REMARK  Name = ZINCrD000000BMe7.0
REMARK                            x       y       z     vdW  Elec       q    Type
REMARK                         _______ _______ _______ _____ _____    ______ ____
ROOT
ATOM      1  O   LIG    1        4.537   5.152   1.200  0.00  0.00    -0.530 OA
ATOM      2  C   LIG    1        3.445   5.627   1.445  0.00  0.00    +0.560 C 
ATOM      3  N   LIG    1        2.338   5.091   0.894  0.00  0.00    -0.720 N 
ATOM      4  H   LIG    1        1.467   5.470   1.089  0.00  0.00    +0.400 HD
ENDROOT
BRANCH   2   5
ATOM      5  C   LIG    1        3.331   6.792   2.348  0.00  0.00    -0.130 A 
ATOM      6  C   LIG    1        2.080   7.343   2.627  0.00  0.00    +0.040 A 
ATOM      7  C   LIG    1        1.980   8.427   3.474  0.00  0.00    +0.030 A 
ATOM      8  C   LIG    1        3.118   8.974   4.039  0.00  0.00    -0.080 A 
ATOM      9  C   LIG    1        4.362   8.436   3.762  0.00  0.00    +0.020 A 
ATOM     10  C   LIG    1        4.476   7.349   2.921  0.00  0.00    +0.080 A 
BRANCH   8  11
ATOM     11  C   LIG    1        3.002  10.162   4.960  0.00  0.00    +0.350 C 
BRANCH  11  12
ATOM     12  N   LIG    1        3.092  11.397   4.178  0.00  0.00    -0.620 N 
ATOM     13  C   LIG    1        4.345  12.103   3.886  0.00  0.00    +0.260 C 
ATOM     14  C   LIG    1        4.017  13.051   2.708  0.00  0.00    +0.040 C 
ATOM     15  C   LIG    1        2.497  13.265   2.893  0.00  0.00    +0.050 C 
ATOM     16  C   LIG    1        2.037  12.032   3.640  0.00  0.00    +0.520 C 
ATOM     17  O   LIG    1        0.883  11.671   3.739  0.00  0.00    -0.530 OA
ENDBRANCH  11  12
ENDBRANCH   8  11
ENDBRANCH   2   5
BRANCH   3  18
ATOM     18  C   LIG    1        2.451   3.936  -0.001  0.00  0.00    +0.300 C 
BRANCH  18  19
ATOM     19  C   LIG    1        1.156   3.166   0.007  0.00  0.00    -0.090 A 
ATOM     20  C   LIG    1        1.175   1.783   0.000  0.00  0.00    +0.050 A 
ATOM     21  C   LIG    1       -0.013   1.076   0.008  0.00  0.00    +0.040 A 
ATOM     22  C   LIG    1       -1.220   1.751   0.017  0.00  0.00    -0.030 A 
ATOM     23  C   LIG    1       -1.238   3.135   0.030  0.00  0.00    +0.040 A 
ATOM     24 CL   LIG    1       -2.712   0.864   0.020  0.00  0.00    -0.060 Cl
ATOM     25  C   LIG    1       -0.050   3.841   0.022  0.00  0.00    +0.030 A 
ENDBRANCH  18  19
BRANCH  18  26
ATOM     26  C   LIG    1        2.748   4.420  -1.422  0.00  0.00    +0.020 C 
BRANCH  26  27
ATOM     27  C   LIG    1        4.121   5.093  -1.456  0.00  0.00    +0.180 C 
BRANCH  27  28
ATOM     28  O   LIG    1        4.397   5.545  -2.783  0.00  0.00    -0.580 OA
ATOM     29  H   LIG    1        5.254   5.983  -2.879  0.00  0.00    +0.380 HD
ENDBRANCH  27  28
ENDBRANCH  26  27
ENDBRANCH  18  26
ENDBRANCH   3  18
TORSDOF 8
