REMARK  Name = ZINCqH0000005krD.0
REMARK                            x       y       z     vdW  Elec       q    Type
REMARK                         _______ _______ _______ _____ _____    ______ ____
ROOT
ATOM      1  C   LIG    1       -0.315   5.119   0.243  0.00  0.00    -0.650 A 
ATOM      2  C   LIG    1        0.659   4.275  -0.260  0.00  0.00    +0.120 A 
ATOM      3  C   LIG    1        0.984   3.115   0.411  0.00  0.00    +0.080 A 
ATOM      4  C   LIG    1        0.327   2.793   1.601  0.00  0.00    -0.070 A 
ATOM      5  C   LIG    1       -0.660   3.646   2.099  0.00  0.00    +0.070 A 
ATOM      6  C   LIG    1       -0.971   4.806   1.420  0.00  0.00    +0.130 A 
ENDROOT
BRANCH   1   7
ATOM      7  S   LIG    1       -0.724   6.599  -0.622  0.00  0.00    +2.690 S 
ATOM      8  O   LIG    1        0.471   7.040  -1.250  0.00  0.00    -0.940 OA
ATOM      9  O   LIG    1       -1.467   7.402   0.286  0.00  0.00    -0.930 OA
BRANCH   7  11
ATOM     10  C   LIG    1       -1.248   5.621  -3.088  0.00  0.00    +0.320 C 
ATOM     11  N   LIG    1       -1.767   6.184  -1.839  0.00  0.00    -0.950 N 
BRANCH  11  12
ATOM     12  C   LIG    1       -3.142   6.370  -1.675  0.00  0.00    +0.150 A 
ATOM     13  C   LIG    1       -3.794   5.816  -0.581  0.00  0.00    -0.010 A 
ATOM     14  C   LIG    1       -5.152   6.006  -0.420  0.00  0.00    +0.030 A 
ATOM     15  C   LIG    1       -5.865   6.738  -1.351  0.00  0.00    +0.010 A 
ATOM     16  C   LIG    1       -5.220   7.287  -2.445  0.00  0.00    +0.030 A 
ATOM     17  C   LIG    1       -3.861   7.105  -2.609  0.00  0.00    +0.010 A 
ENDBRANCH  11  12
ENDBRANCH   7  11
ENDBRANCH   1   7
BRANCH   4  18
ATOM     18  C   LIG    1        0.669   1.552   2.325  0.00  0.00    +0.500 C 
ATOM     19  O   LIG    1        1.525   0.809   1.886  0.00  0.00    -0.470 OA
BRANCH  18  20
ATOM     20  O   LIG    1        0.034   1.244   3.472  0.00  0.00    -0.290 OA
BRANCH  20  21
ATOM     21  C   LIG    1        0.311   0.034   4.026  0.00  0.00    +0.080 A 
ATOM     22  C   LIG    1       -0.181  -1.126   3.445  0.00  0.00    +0.010 A 
ATOM     23  C   LIG    1        0.107  -2.354   4.007  0.00  0.00    +0.030 A 
ATOM     24  C   LIG    1        0.875  -2.428   5.154  0.00  0.00    +0.020 A 
ATOM     25  C   LIG    1        1.363  -1.273   5.738  0.00  0.00    +0.030 A 
ATOM     26  C   LIG    1        1.082  -0.043   5.177  0.00  0.00    +0.020 A 
ENDBRANCH  20  21
ENDBRANCH  18  20
ENDBRANCH   4  18
TORSDOF 6
