REMARK  Name = ZINCrH000004qaNP.0
REMARK                            x       y       z     vdW  Elec       q    Type
REMARK                         _______ _______ _______ _____ _____    ______ ____
ROOT
ATOM      1  C   LIG    1       -0.013   1.086   0.008  0.00  0.00    +0.130 C 
ATOM      2  C   LIG    1       -0.718   1.572   1.248  0.00  0.00    -0.140 A 
ATOM      3  C   LIG    1       -2.031   1.826   1.374  0.00  0.00    +0.090 A 
ATOM      4  N   LIG    1       -2.303   2.248   2.651  0.00  0.00    -0.420 N 
ATOM      5  C   LIG    1       -1.148   2.285   3.387  0.00  0.00    +0.350 A 
ATOM      6  N   LIG    1       -0.855   2.617   4.643  0.00  0.00    -0.540 NA
ATOM      7  C   LIG    1        0.383   2.552   5.084  0.00  0.00    +0.560 A 
ATOM      8  N   LIG    1        1.391   2.162   4.325  0.00  0.00    -0.530 NA
ATOM      9  C   LIG    1        1.199   1.810   3.057  0.00  0.00    +0.460 A 
ATOM     10  C   LIG    1       -3.053   1.667   0.278  0.00  0.00    +0.150 C 
ATOM     11  C   LIG    1       -0.103   1.863   2.542  0.00  0.00    -0.230 A 
ENDROOT
BRANCH   4  12
ATOM     12  C   LIG    1       -3.573   2.595   3.131  0.00  0.00    +0.120 A 
ATOM     13  C   LIG    1       -4.570   1.633   3.219  0.00  0.00    +0.050 A 
ATOM     14  C   LIG    1       -5.820   1.976   3.696  0.00  0.00    +0.040 A 
ATOM     15  C   LIG    1       -6.082   3.280   4.076  0.00  0.00    -0.030 A 
ATOM     16  C   LIG    1       -5.092   4.243   3.984  0.00  0.00    +0.040 A 
ATOM     17 CL   LIG    1       -7.656   3.711   4.668  0.00  0.00    -0.060 Cl
ATOM     18  C   LIG    1       -3.839   3.903   3.513  0.00  0.00    +0.060 A 
ENDBRANCH   4  12
BRANCH   9  19
ATOM     19  N   LIG    1        2.262   1.402   2.264  0.00  0.00    -0.640 N 
ATOM     20  H   LIG    1        2.108   1.148   1.341  0.00  0.00    +0.430 HD
ATOM     21  C   LIG    1        3.507   1.357   2.777  0.00  0.00    +0.570 C 
ATOM     22  O   LIG    1        3.700   1.674   3.934  0.00  0.00    -0.440 OA
BRANCH  21  23
ATOM     23  C   LIG    1        4.641   0.921   1.931  0.00  0.00    +0.020 A 
ATOM     24  C   LIG    1        5.931   0.874   2.459  0.00  0.00    +0.310 A 
ATOM     25  N   LIG    1        6.939   0.484   1.700  0.00  0.00    -0.440 NA
ATOM     26  C   LIG    1        6.727   0.139   0.443  0.00  0.00    +0.260 A 
ATOM     27  C   LIG    1        5.444   0.184  -0.086  0.00  0.00    +0.230 A 
ATOM     28  N   LIG    1        4.432   0.568   0.665  0.00  0.00    -0.420 NA
ENDBRANCH  21  23
ENDBRANCH   9  19
TORSDOF 3
