REMARK  Name = ZINCpe000000UUWF.0
REMARK                            x       y       z     vdW  Elec       q    Type
REMARK                         _______ _______ _______ _____ _____    ______ ____
ROOT
ATOM      1  C   LIG    1       -1.003   2.843   1.357  0.00  0.00    +0.220 C 
ATOM      2  C   LIG    1       -1.778   3.351   0.138  0.00  0.00    +0.040 C 
ATOM      3  C   LIG    1       -0.942   3.126  -1.124  0.00  0.00    +0.020 C 
ATOM      4  C   LIG    1       -0.684   1.628  -1.306  0.00  0.00    +0.010 C 
ATOM      5  C   LIG    1        0.104   1.100  -0.103  0.00  0.00    +0.270 C 
ATOM      6  N   LIG    1       -0.621   1.442   1.128  0.00  0.00    -0.600 N 
ATOM      7  C   LIG    1       -0.934   0.489   2.028  0.00  0.00    +0.510 C 
ATOM      8  O   LIG    1       -1.591   0.772   3.007  0.00  0.00    -0.500 OA
ENDROOT
BRANCH   1  12
ATOM      9  C   LIG    1       -2.279   3.686   4.866  0.00  0.00    +0.280 C 
ATOM     10  N   LIG    1       -1.433   3.595   3.673  0.00  0.00    -0.740 N 
ATOM     11  H   LIG    1       -0.557   4.011   3.668  0.00  0.00    +0.400 HD
ATOM     12  C   LIG    1       -1.873   2.936   2.584  0.00  0.00    +0.530 C 
ATOM     13  O   LIG    1       -2.969   2.416   2.590  0.00  0.00    -0.520 OA
ENDBRANCH   1  12
BRANCH   7  14
ATOM     14  C   LIG    1       -0.468  -0.929   1.817  0.00  0.00    +0.060 C 
BRANCH  14  15
ATOM     15  C   LIG    1       -0.954  -1.803   2.974  0.00  0.00    +0.140 C 
BRANCH  15  16
ATOM     16  C   LIG    1       -0.488  -3.220   2.763  0.00  0.00    -0.190 A 
ATOM     17  C   LIG    1        0.659  -3.660   3.343  0.00  0.00    +0.210 A 
ATOM     18  N   LIG    1        1.054  -4.944   3.135  0.00  0.00    -0.330 N 
ATOM     19  N   LIG    1        2.152  -5.695   3.571  0.00  0.00    -0.340 NA
ATOM     20  C   LIG    1        2.026  -6.896   3.058  0.00  0.00    +0.480 A 
ATOM     21  N   LIG    1        0.921  -6.953   2.326  0.00  0.00    -0.530 NA
ATOM     22  C   LIG    1        0.304  -5.777   2.352  0.00  0.00    +0.450 A 
ATOM     23  N   LIG    1       -0.825  -5.335   1.785  0.00  0.00    -0.460 NA
ATOM     24  C   LIG    1        1.482  -2.737   4.205  0.00  0.00    +0.170 C 
ATOM     25  C   LIG    1       -1.235  -4.101   1.972  0.00  0.00    +0.240 A 
ATOM     26  C   LIG    1       -2.513  -3.630   1.326  0.00  0.00    +0.160 C 
ENDBRANCH  15  16
ENDBRANCH  14  15
ENDBRANCH   7  14
TORSDOF 4
