REMARK  Name = ZINCpe000000Ydwd.0
REMARK                            x       y       z     vdW  Elec       q    Type
REMARK                         _______ _______ _______ _____ _____    ______ ____
ROOT
ATOM      1  C   LIG    1       -2.677  -8.254   4.133  0.00  0.00    +0.350 C 
ATOM      2  N   LIG    1       -2.709  -8.376   2.673  0.00  0.00    -0.550 N 
ATOM      3  C   LIG    1       -2.960  -7.284   1.921  0.00  0.00    +0.590 A 
ATOM      4  C   LIG    1       -2.985  -7.407   0.515  0.00  0.00    -0.150 A 
ATOM      5  C   LIG    1       -2.762  -8.652  -0.060  0.00  0.00    +0.320 A 
ATOM      6  N   LIG    1       -2.510  -9.734   0.767  0.00  0.00    -0.510 N 
ATOM      7  C   LIG    1       -2.266 -11.057   0.186  0.00  0.00    +0.340 C 
ATOM      8  N   LIG    1       -2.846  -8.497  -1.384  0.00  0.00    -0.500 NA
ATOM      9  C   LIG    1       -3.110  -7.247  -1.668  0.00  0.00    +0.500 A 
ATOM     10  N   LIG    1       -3.209  -6.533  -0.530  0.00  0.00    -0.410 N 
ATOM     11  O   LIG    1       -3.157  -6.204   2.449  0.00  0.00    -0.510 OA
ATOM     12  C   LIG    1       -2.490  -9.573   2.104  0.00  0.00    +0.710 A 
ATOM     13  O   LIG    1       -2.267 -10.535   2.813  0.00  0.00    -0.530 OA
ENDROOT
BRANCH  10  14
ATOM     14  C   LIG    1       -3.494  -5.100  -0.423  0.00  0.00    +0.320 C 
BRANCH  14  15
ATOM     15  C   LIG    1       -2.180  -4.325  -0.316  0.00  0.00    +0.040 C 
BRANCH  15  16
ATOM     16  C   LIG    1       -2.478  -2.828  -0.204  0.00  0.00    +0.060 C 
BRANCH  16  17
ATOM     17  C   LIG    1       -1.183  -2.065  -0.099  0.00  0.00    +0.510 C 
ATOM     18  N   LIG    1       -1.199  -0.722   0.010  0.00  0.00    -0.680 N 
ATOM     19  H   LIG    1       -2.044  -0.253   0.098  0.00  0.00    +0.410 HD
ATOM     20  O   LIG    1       -0.125  -2.659  -0.113  0.00  0.00    -0.510 OA
BRANCH  18  21
ATOM     21  C   LIG    1        0.002  -0.004  -0.004  0.00  0.00    +0.140 A 
ATOM     22  C   LIG    1        1.072  -0.452  -0.767  0.00  0.00    +0.010 A 
ATOM     23  C   LIG    1        2.256   0.260  -0.779  0.00  0.00    +0.030 A 
ATOM     24  C   LIG    1        2.376   1.417  -0.032  0.00  0.00    -0.010 A 
ATOM     25  C   LIG    1        1.313   1.865   0.730  0.00  0.00    +0.030 A 
ATOM     26  C   LIG    1        0.126   1.159   0.746  0.00  0.00    -0.020 A 
ENDBRANCH  18  21
ENDBRANCH  16  17
ENDBRANCH  15  16
ENDBRANCH  14  15
ENDBRANCH  10  14
TORSDOF 5
