REMARK  Name = ZINCpe000000X2eo.0
REMARK                            x       y       z     vdW  Elec       q    Type
REMARK                         _______ _______ _______ _____ _____    ______ ____
ROOT
ATOM      1  N   LIG    1        3.169   8.316   0.561  0.00  0.00    -1.010 NA
ATOM      2  C   LIG    1        2.237   9.349   0.088  0.00  0.00    +0.280 C 
ATOM      3  C   LIG    1        0.853   9.073   0.688  0.00  0.00    +0.270 C 
ATOM      4  N   LIG    1        0.517   7.660   0.464  0.00  0.00    -0.610 N 
ATOM      5  C   LIG    1        1.447   6.627   0.942  0.00  0.00    +0.280 C 
ATOM      6  C   LIG    1       -0.625   7.317  -0.165  0.00  0.00    +0.520 C 
ATOM      7  O   LIG    1       -0.936   6.149  -0.264  0.00  0.00    -0.530 OA
ATOM      8  C   LIG    1        2.833   6.903   0.336  0.00  0.00    +0.290 C 
ENDROOT
BRANCH   6   9
ATOM      9  C   LIG    1       -1.516   8.386  -0.744  0.00  0.00    -0.010 C 
ATOM     10  C   LIG    1       -2.349   9.022   0.372  0.00  0.00    +0.080 C 
ATOM     11  C   LIG    1       -3.421   9.892  -0.215  0.00  0.00    -0.050 C 
ATOM     12  C   LIG    1       -3.810   9.831  -1.448  0.00  0.00    -0.040 C 
ATOM     13  C   LIG    1       -3.241   8.884  -2.464  0.00  0.00    +0.070 C 
ATOM     14  C   LIG    1       -2.472   7.761  -1.767  0.00  0.00    +0.040 C 
ENDBRANCH   6   9
BRANCH   1  15
ATOM     15  S   LIG    1        4.572   8.737   1.333  0.00  0.00    +2.780 S 
ATOM     16  O   LIG    1        4.922  10.028   0.854  0.00  0.00    -0.970 OA
ATOM     17  O   LIG    1        5.435   7.612   1.238  0.00  0.00    -0.970 OA
BRANCH  15  21
ATOM     18  C   LIG    1        3.813  11.813   5.339  0.00  0.00    +0.070 C 
ATOM     19  C   LIG    1        4.484  10.614   4.666  0.00  0.00    +0.140 C 
ATOM     20  C   LIG    1        3.653  10.176   3.455  0.00  0.00    +0.270 C 
ATOM     21  N   LIG    1        4.212   8.916   2.940  0.00  0.00    -1.010 NA
ATOM     22  C   LIG    1        4.436   7.818   3.893  0.00  0.00    +0.270 C 
ATOM     23  C   LIG    1        5.234   8.373   5.084  0.00  0.00    +0.200 C 
ATOM     24  C   LIG    1        6.644   8.752   4.628  0.00  0.00    +0.010 C 
ATOM     25  O   LIG    1        4.569   9.530   5.595  0.00  0.00    -0.370 OA
ENDBRANCH  15  21
ENDBRANCH   1  15
TORSDOF 3
