REMARK  Name = ZINCqH0000005ZT1.0
REMARK                            x       y       z     vdW  Elec       q    Type
REMARK                         _______ _______ _______ _____ _____    ______ ____
ROOT
ATOM      1  C   LIG    1       -3.608   1.744   0.229  0.00  0.00    +0.030 A 
ATOM      2  C   LIG    1       -3.575   3.139   0.148  0.00  0.00    +0.030 A 
ATOM      3  C   LIG    1       -2.367   3.794   0.023  0.00  0.00    +0.040 A 
ATOM      4  C   LIG    1       -1.187   3.076  -0.018  0.00  0.00    +0.000 A 
ATOM      5  C   LIG    1       -1.208   1.687   0.055  0.00  0.00    +0.140 A 
ATOM      6  C   LIG    1       -2.415   1.019   0.181  0.00  0.00    +0.060 A 
ENDROOT
BRANCH   5   7
ATOM      7  N   LIG    1       -0.011   0.966   0.007  0.00  0.00    -0.660 N 
ATOM      8  H   LIG    1        0.790   1.328   0.416  0.00  0.00    +0.420 HD
ATOM      9  C   LIG    1        0.028  -0.235  -0.602  0.00  0.00    +0.610 C 
ATOM     10  O   LIG    1       -0.995  -0.728  -1.042  0.00  0.00    -0.500 OA
BRANCH   9  11
ATOM     11  C   LIG    1        1.302  -0.949  -0.736  0.00  0.00    -0.090 A 
ATOM     12  C   LIG    1        1.481  -2.168  -1.324  0.00  0.00    +0.050 A 
ATOM     13  C   LIG    1        2.850  -2.464  -1.232  0.00  0.00    -0.070 A 
ATOM     14  C   LIG    1        3.438  -1.429  -0.593  0.00  0.00    +0.210 A 
ATOM     15  O   LIG    1        2.502  -0.518  -0.295  0.00  0.00    -0.170 OA
ENDBRANCH   9  11
ENDBRANCH   5   7
BRANCH   1  17
ATOM     16  C   LIG    1       -5.886   0.501   0.467  0.00  0.00    -0.120 C 
ATOM     17  C   LIG    1       -4.860   1.061   0.360  0.00  0.00    -0.100 C 
BRANCH  16  22
ATOM     18  C   LIG    1       -9.542  -0.130   0.772  0.00  0.00    -0.130 A 
ATOM     19  C   LIG    1       -9.558  -1.525   0.851  0.00  0.00    +0.090 A 
ATOM     20  C   LIG    1       -8.376  -2.237   0.804  0.00  0.00    +0.010 A 
ATOM     21  C   LIG    1       -7.170  -1.578   0.673  0.00  0.00    +0.080 A 
ATOM     22  C   LIG    1       -7.138  -0.182   0.598  0.00  0.00    +0.010 A 
ATOM     23  C   LIG    1       -8.328   0.543   0.645  0.00  0.00    +0.110 A 
BRANCH  18  24
ATOM     24  C   LIG    1      -10.808   0.629   0.823  0.00  0.00    +0.510 C 
ATOM     25  O   LIG    1      -10.792   1.842   0.755  0.00  0.00    -0.500 OA
BRANCH  24  27
ATOM     26  C   LIG    1      -13.184   0.787   0.990  0.00  0.00    +0.290 C 
ATOM     27  O   LIG    1      -11.980  -0.023   0.946  0.00  0.00    -0.350 OA
ENDBRANCH  24  27
ENDBRANCH  18  24
ENDBRANCH  16  22
ENDBRANCH   1  17
TORSDOF 6
