REMARK  Name = ZINC590000002rlv.0
REMARK                            x       y       z     vdW  Elec       q    Type
REMARK                         _______ _______ _______ _____ _____    ______ ____
ROOT
ATOM      1  C   LIG    1        0.011   1.072   2.506  0.00  0.00    +0.260 C 
ENDROOT
BRANCH   1   2
ATOM      2  N   LIG    1       -0.676   1.546   3.715  0.00  0.00    -0.640 N 
ATOM      3  H   LIG    1       -0.690   2.555   3.720  0.00  0.00    +0.440 HD
ATOM      4  H   LIG    1       -0.188   1.212   4.532  0.00  0.00    +0.440 HD
ATOM      5  H   LIG    1       -1.623   1.197   3.722  0.00  0.00    +0.440 HD
ENDBRANCH   1   2
BRANCH   1   7
ATOM      6  C   LIG    1       -0.013   1.086   0.008  0.00  0.00    +0.070 C 
ATOM      7  C   LIG    1       -0.729   1.579   1.267  0.00  0.00    +0.180 C 
ATOM      8  F   LIG    1       -0.748   2.978   1.274  0.00  0.00    -0.200 F 
ENDBRANCH   1   7
TORSDOF 2
