REMARK  Name = ZINCpk00000y6v6U.1
REMARK                            x       y       z     vdW  Elec       q    Type
REMARK                         _______ _______ _______ _____ _____    ______ ____
ROOT
ATOM      1  C   LIG    1       -1.480   2.950   0.682  0.00  0.00    +0.250 C 
ATOM      2  C   LIG    1       -0.668   1.756   1.256  0.00  0.00    +0.050 C 
ATOM      3  C   LIG    1        0.049   1.198   0.008  0.00  0.00    +0.270 C 
ATOM      4  N   LIG    1       -0.714   1.637  -1.170  0.00  0.00    -0.610 N 
ATOM      5  C   LIG    1       -0.398   1.373  -2.453  0.00  0.00    +0.570 C 
ATOM      6  O   LIG    1       -1.153   1.706  -3.346  0.00  0.00    -0.520 OA
ATOM      7  C   LIG    1       -1.881   2.414  -0.715  0.00  0.00    +0.260 C 
ENDROOT
BRANCH   5   8
ATOM      8  C   LIG    1        0.866   0.678  -2.775  0.00  0.00    -0.120 A 
ATOM      9  C   LIG    1        1.655   0.152  -1.748  0.00  0.00    +0.050 A 
ATOM     10  C   LIG    1        2.829  -0.500  -2.049  0.00  0.00    +0.020 A 
ATOM     11  C   LIG    1        3.238  -0.625  -3.378  0.00  0.00    +0.010 A 
ATOM     12  C   LIG    1        2.452  -0.094  -4.404  0.00  0.00    +0.070 A 
ATOM     13  C   LIG    1        1.275   0.553  -4.105  0.00  0.00    +0.100 A 
BRANCH  11  14
ATOM     14  C   LIG    1        4.502  -1.320  -3.700  0.00  0.00    +0.210 A 
ATOM     15  N   LIG    1        5.005  -1.516  -4.900  0.00  0.00    -0.270 NA
ATOM     16  N   LIG    1        6.118  -2.151  -4.802  0.00  0.00    -0.290 NA
ATOM     17  C   LIG    1        6.380  -2.403  -3.547  0.00  0.00    +0.400 A 
ATOM     18  N   LIG    1        5.370  -1.888  -2.807  0.00  0.00    -0.580 N 
ATOM     19  H   LIG    1        5.280  -1.915  -1.841  0.00  0.00    +0.430 HD
ENDBRANCH  11  14
ENDBRANCH   5   8
BRANCH   1  21
ATOM     20  C   LIG    1       -3.285   4.415   1.413  0.00  0.00    +0.550 C 
ATOM     21  N   LIG    1       -2.665   3.221   1.500  0.00  0.00    -0.720 N 
ATOM     22  H   LIG    1       -3.003   2.542   2.104  0.00  0.00    +0.400 HD
ATOM     23  O   LIG    1       -2.862   5.265   0.658  0.00  0.00    -0.520 OA
BRANCH  20  27
ATOM     24  C   LIG    1       -4.530   7.054   1.126  0.00  0.00    +0.070 C 
ATOM     25  C   LIG    1       -5.160   6.069   2.112  0.00  0.00    -0.010 C 
ATOM     26  C   LIG    1       -4.367   5.727   3.375  0.00  0.00    +0.060 C 
ATOM     27  C   LIG    1       -4.503   4.695   2.254  0.00  0.00    -0.080 C 
ENDBRANCH  20  27
ENDBRANCH   1  21
TORSDOF 4
