REMARK  Name = ZINCpk00000y6v6U.0
REMARK                            x       y       z     vdW  Elec       q    Type
REMARK                         _______ _______ _______ _____ _____    ______ ____
ROOT
ATOM      1  C   LIG    1       -1.481   2.949   0.682  0.00  0.00    +0.240 C 
ATOM      2  C   LIG    1       -0.669   1.755   1.256  0.00  0.00    +0.050 C 
ATOM      3  C   LIG    1        0.048   1.197   0.008  0.00  0.00    +0.270 C 
ATOM      4  N   LIG    1       -0.714   1.637  -1.170  0.00  0.00    -0.610 N 
ATOM      5  C   LIG    1       -0.398   1.373  -2.453  0.00  0.00    +0.580 C 
ATOM      6  O   LIG    1       -1.153   1.706  -3.346  0.00  0.00    -0.530 OA
ATOM      7  C   LIG    1       -1.881   2.414  -0.715  0.00  0.00    +0.260 C 
ENDROOT
BRANCH   5   8
ATOM      8  C   LIG    1        0.866   0.678  -2.775  0.00  0.00    -0.120 A 
ATOM      9  C   LIG    1        1.655   0.152  -1.749  0.00  0.00    +0.030 A 
ATOM     10  C   LIG    1        2.830  -0.498  -2.050  0.00  0.00    +0.050 A 
ATOM     11  C   LIG    1        3.238  -0.624  -3.378  0.00  0.00    +0.010 A 
ATOM     12  C   LIG    1        2.454  -0.094  -4.403  0.00  0.00    +0.060 A 
ATOM     13  C   LIG    1        1.276   0.553  -4.104  0.00  0.00    +0.080 A 
BRANCH  11  14
ATOM     14  C   LIG    1        4.507  -1.320  -3.701  0.00  0.00    +0.260 A 
ATOM     15  N   LIG    1        5.330  -1.859  -2.827  0.00  0.00    -0.300 NA
ATOM     16  N   LIG    1        6.395  -2.406  -3.561  0.00  0.00    -0.480 N 
ATOM     17  H   LIG    1        7.166  -2.873  -3.203  0.00  0.00    +0.450 HD
ATOM     18  C   LIG    1        6.137  -2.154  -4.857  0.00  0.00    +0.500 A 
ATOM     19  N   LIG    1        5.003  -1.509  -4.931  0.00  0.00    -0.530 NA
ENDBRANCH  11  14
ENDBRANCH   5   8
BRANCH   1  21
ATOM     20  C   LIG    1       -3.285   4.415   1.413  0.00  0.00    +0.550 C 
ATOM     21  N   LIG    1       -2.666   3.221   1.500  0.00  0.00    -0.720 N 
ATOM     22  H   LIG    1       -3.004   2.541   2.104  0.00  0.00    +0.400 HD
ATOM     23  O   LIG    1       -2.862   5.264   0.658  0.00  0.00    -0.520 OA
BRANCH  20  27
ATOM     24  C   LIG    1       -4.530   7.054   1.127  0.00  0.00    +0.070 C 
ATOM     25  C   LIG    1       -5.161   6.068   2.112  0.00  0.00    -0.010 C 
ATOM     26  C   LIG    1       -4.367   5.726   3.376  0.00  0.00    +0.060 C 
ATOM     27  C   LIG    1       -4.504   4.694   2.255  0.00  0.00    -0.080 C 
ENDBRANCH  20  27
ENDBRANCH   1  21
TORSDOF 4
