REMARK  Name = ZINCue00000005Xv.1
REMARK                            x       y       z     vdW  Elec       q    Type
REMARK                         _______ _______ _______ _____ _____    ______ ____
ROOT
ATOM      1  C   LIG    1       -0.051   3.848   0.023  0.00  0.00    +0.090 A 
ATOM      2  C   LIG    1       -1.244   3.141   0.031  0.00  0.00    -0.060 A 
ATOM      3  C   LIG    1       -1.225   1.753   0.017  0.00  0.00    +0.280 A 
ATOM      4  C   LIG    1       -0.013   1.076   0.008  0.00  0.00    -0.120 A 
ATOM      5  C   LIG    1        1.176   1.782   0.000  0.00  0.00    +0.030 A 
ATOM      6  C   LIG    1        1.161   3.165   0.007  0.00  0.00    +0.020 A 
ATOM      7  F   LIG    1        2.324   3.853  -0.000  0.00  0.00    -0.150 F 
ENDROOT
BRANCH   1  12
ATOM      8  O   LIG    1       -0.411   9.479   0.074  0.00  0.00    -0.950 OA
ATOM      9  S   LIG    1       -0.998   8.185   0.103  0.00  0.00    +2.410 S 
ATOM     10  C   LIG    1       -0.417   7.248  -1.343  0.00  0.00    -0.310 C 
ATOM     11  C   LIG    1       -0.767   5.771  -1.143  0.00  0.00    +0.240 C 
ATOM     12  N   LIG    1       -0.066   5.246   0.031  0.00  0.00    -0.510 N 
ATOM     13  C   LIG    1       -0.619   5.758   1.288  0.00  0.00    +0.240 C 
ATOM     14  O   LIG    1       -2.411   8.064   0.187  0.00  0.00    -0.940 OA
ATOM     15  C   LIG    1       -0.246   7.234   1.458  0.00  0.00    -0.310 C 
ENDBRANCH   1  12
BRANCH   3  16
ATOM     16  N   LIG    1       -2.426   1.037   0.019  0.00  0.00    -1.080 NA
BRANCH  16  17
ATOM     17  S   LIG    1       -2.403  -0.619   0.009  0.00  0.00    +2.600 S 
ATOM     18  O   LIG    1       -1.847  -1.020   1.254  0.00  0.00    -1.020 OA
ATOM     19  O   LIG    1       -1.859  -1.005  -1.245  0.00  0.00    -1.020 OA
BRANCH  17  20
ATOM     20  C   LIG    1       -4.078  -1.164   0.013  0.00  0.00    -0.600 A 
ATOM     21  C   LIG    1       -4.728  -1.390   1.213  0.00  0.00    +0.140 A 
ATOM     22  C   LIG    1       -6.045  -1.812   1.220  0.00  0.00    +0.030 A 
ATOM     23  C   LIG    1       -6.711  -2.021   0.029  0.00  0.00    +0.060 A 
ATOM     24  C   LIG    1       -6.060  -1.800  -1.177  0.00  0.00    +0.100 A 
ATOM     25  C   LIG    1       -4.740  -1.371  -1.181  0.00  0.00    +0.160 A 
BRANCH  24  26
ATOM     26  N   LIG    1       -6.734  -2.011  -2.389  0.00  0.00    -0.320 N 
ATOM     27  C   LIG    1       -8.009  -2.424  -2.557  0.00  0.00    +0.460 A 
ATOM     28  N   LIG    1       -8.230  -2.487  -3.844  0.00  0.00    -0.330 NA
ATOM     29  N   LIG    1       -7.183  -2.141  -4.501  0.00  0.00    -0.040 NA
ATOM     30  N   LIG    1       -6.230  -1.831  -3.689  0.00  0.00    -0.070 NA
ENDBRANCH  24  26
ENDBRANCH  17  20
ENDBRANCH  16  17
ENDBRANCH   3  16
TORSDOF 5
