REMARK  Name = ZINCrD000000BIO1.0
REMARK                            x       y       z     vdW  Elec       q    Type
REMARK                         _______ _______ _______ _____ _____    ______ ____
ROOT
ATOM      1  O   LIG    1        2.248   5.404  -3.802  0.00  0.00    -0.520 OA
ATOM      2  C   LIG    1        3.406   5.148  -4.054  0.00  0.00    +0.530 C 
ATOM      3  N   LIG    1        3.940   5.531  -5.231  0.00  0.00    -0.720 N 
ATOM      4  H   LIG    1        4.867   5.326  -5.432  0.00  0.00    +0.400 HD
ENDROOT
BRANCH   3   5
ATOM      5  C   LIG    1        3.122   6.257  -6.205  0.00  0.00    +0.290 C 
ATOM      6  C   LIG    1        3.687   6.035  -7.610  0.00  0.00    +0.010 C 
ATOM      7  C   LIG    1        3.007   7.026  -8.564  0.00  0.00    +0.260 C 
ATOM      8  O   LIG    1        3.381   8.350  -8.179  0.00  0.00    -0.310 OA
ATOM      9  C   LIG    1        3.263   8.687  -6.868  0.00  0.00    +0.140 A 
ATOM     10  C   LIG    1        3.270  10.035  -6.526  0.00  0.00    -0.020 A 
ATOM     11  C   LIG    1        3.156  10.417  -5.205  0.00  0.00    +0.050 A 
ATOM     12  C   LIG    1        3.035   9.457  -4.217  0.00  0.00    -0.040 A 
ATOM     13  C   LIG    1        3.027   8.117  -4.553  0.00  0.00    +0.060 A 
ATOM     14  C   LIG    1        3.139   7.728  -5.877  0.00  0.00    -0.180 A 
ENDBRANCH   3   5
BRANCH   2  15
ATOM     15  C   LIG    1        4.248   4.401  -3.052  0.00  0.00    -0.010 C 
ATOM     16  C   LIG    1        4.611   2.991  -3.574  0.00  0.00    +0.080 C 
ATOM     17  C   LIG    1        4.565   2.117  -2.340  0.00  0.00    +0.520 C 
ATOM     18  N   LIG    1        3.899   2.743  -1.354  0.00  0.00    -0.610 N 
ATOM     19  O   LIG    1        5.056   1.012  -2.253  0.00  0.00    -0.520 OA
ATOM     20  C   LIG    1        3.431   4.066  -1.784  0.00  0.00    +0.300 C 
BRANCH  18  21
ATOM     21  C   LIG    1        3.674   2.180  -0.021  0.00  0.00    +0.370 C 
BRANCH  21  22
ATOM     22  C   LIG    1        2.379   1.409  -0.013  0.00  0.00    -0.110 A 
ATOM     23  C   LIG    1        2.397   0.028  -0.020  0.00  0.00    +0.040 A 
ATOM     24  C   LIG    1        1.208  -0.679  -0.013  0.00  0.00    +0.010 A 
ATOM     25  C   LIG    1        0.002  -0.004   0.002  0.00  0.00    +0.030 A 
ATOM     26  C   LIG    1       -0.017   1.378   0.010  0.00  0.00    +0.020 A 
ATOM     27  C   LIG    1        1.172   2.086   0.002  0.00  0.00    -0.020 A 
ATOM     28 CL   LIG    1        1.149   3.822   0.011  0.00  0.00    -0.060 Cl
ENDBRANCH  21  22
ENDBRANCH  18  21
ENDBRANCH   2  15
TORSDOF 4
