REMARK  Name = ZINCrD00000ieefp.0
REMARK                            x       y       z     vdW  Elec       q    Type
REMARK                         _______ _______ _______ _____ _____    ______ ____
ROOT
ATOM      1  C   LIG    1       -3.586   3.087   0.025  0.00  0.00    +0.010 A 
ATOM      2  N   LIG    1       -2.528   3.877   0.053  0.00  0.00    -0.320 NA
ATOM      3  C   LIG    1       -1.307   3.343   0.049  0.00  0.00    +0.010 A 
ATOM      4  C   LIG    1       -0.149   4.143   0.062  0.00  0.00    +0.100 A 
ATOM      5  C   LIG    1        1.075   3.548   0.056  0.00  0.00    +0.010 A 
ATOM      6  C   LIG    1        1.214   2.163   0.038  0.00  0.00    +0.080 A 
ATOM      7  C   LIG    1        0.133   1.336   0.026  0.00  0.00    +0.020 A 
ATOM      8  C   LIG    1       -1.159   1.886   0.025  0.00  0.00    +0.180 A 
ATOM      9  N   LIG    1       -2.252   1.116   0.007  0.00  0.00    -0.500 NA
ATOM     10  C   LIG    1       -3.445   1.681   0.007  0.00  0.00    +0.420 A 
ENDROOT
BRANCH   1  11
ATOM     11  C   LIG    1       -4.939   3.683   0.024  0.00  0.00    +0.540 C 
ATOM     12  O   LIG    1       -5.917   2.968   0.111  0.00  0.00    -0.510 OA
BRANCH  11  13
ATOM     13  O   LIG    1       -5.087   5.018  -0.073  0.00  0.00    -0.330 OA
BRANCH  13  15
ATOM     14  C   LIG    1       -6.412   7.058  -0.185  0.00  0.00    +0.070 C 
ATOM     15  C   LIG    1       -6.445   5.533  -0.068  0.00  0.00    +0.220 C 
ENDBRANCH  13  15
ENDBRANCH  11  13
ENDBRANCH   1  11
BRANCH  10  16
ATOM     16  N   LIG    1       -4.574   0.884  -0.012  0.00  0.00    -0.680 N 
ATOM     17  H   LIG    1       -5.453   1.287   0.067  0.00  0.00    +0.430 HD
BRANCH  16  18
ATOM     18  C   LIG    1       -4.444  -0.569  -0.150  0.00  0.00    +0.220 C 
ATOM     19  C   LIG    1       -4.341  -0.939  -1.636  0.00  0.00    +0.230 C 
ATOM     20  O   LIG    1       -4.112  -2.345  -1.735  0.00  0.00    -0.300 OA
ATOM     21  C   LIG    1       -4.919  -3.172  -1.021  0.00  0.00    +0.160 A 
ATOM     22  C   LIG    1       -4.962  -4.519  -1.367  0.00  0.00    -0.030 A 
ATOM     23  C   LIG    1       -5.767  -5.393  -0.661  0.00  0.00    +0.140 A 
ATOM     24  C   LIG    1       -6.534  -4.926   0.393  0.00  0.00    -0.040 A 
ATOM     25  C   LIG    1       -6.495  -3.589   0.736  0.00  0.00    +0.090 A 
ATOM     26  F   LIG    1       -5.805  -6.700  -0.999  0.00  0.00    -0.130 F 
ATOM     27  C   LIG    1       -5.691  -2.709   0.031  0.00  0.00    -0.170 A 
ATOM     28  C   LIG    1       -5.682  -1.256   0.432  0.00  0.00    +0.100 C 
ENDBRANCH  16  18
ENDBRANCH  10  16
TORSDOF 5
