REMARK  Name = ZINCrg000000o7EC.1
REMARK                            x       y       z     vdW  Elec       q    Type
REMARK                         _______ _______ _______ _____ _____    ______ ____
ROOT
ATOM      1  N   LIG    1       -0.721   1.571  -1.179  0.00  0.00    -0.700 N 
ATOM      2  H   LIG    1       -0.433   2.388  -1.615  0.00  0.00    +0.410 HD
ATOM      3  C   LIG    1       -1.773   0.883  -1.664  0.00  0.00    +0.500 C 
ATOM      4  O   LIG    1       -2.134  -0.139  -1.118  0.00  0.00    -0.510 OA
ENDROOT
BRANCH   1   5
ATOM      5  C   LIG    1       -0.013   1.086   0.008  0.00  0.00    +0.300 C 
BRANCH   5   6
ATOM      6  C   LIG    1       -0.718   1.572   1.248  0.00  0.00    +0.450 C 
ATOM      7  O   LIG    1       -1.711   2.254   1.150  0.00  0.00    -0.490 OA
BRANCH   6   8
ATOM      8  O   LIG    1       -0.243   1.247   2.461  0.00  0.00    -0.360 OA
BRANCH   8  10
ATOM      9  C   LIG    1       -0.288   1.281   4.895  0.00  0.00    +0.070 C 
ATOM     10  C   LIG    1       -0.974   1.750   3.611  0.00  0.00    +0.200 C 
ENDBRANCH   8  10
ENDBRANCH   6   8
ENDBRANCH   5   6
BRANCH   5  11
ATOM     11  C   LIG    1        1.423   1.615  -0.003  0.00  0.00    +0.160 C 
BRANCH  11  12
ATOM     12  C   LIG    1        2.165   1.031  -1.177  0.00  0.00    -0.030 A 
ATOM     13  C   LIG    1        2.172   1.504  -2.438  0.00  0.00    +0.160 A 
ATOM     14  N   LIG    1        2.952   0.701  -3.177  0.00  0.00    -0.490 NA
ATOM     15  C   LIG    1        3.429  -0.251  -2.422  0.00  0.00    +0.410 A 
ATOM     16  N   LIG    1        2.966  -0.079  -1.165  0.00  0.00    -0.560 N 
ATOM     17  H   LIG    1        3.163  -0.638  -0.398  0.00  0.00    +0.420 HD
ENDBRANCH  11  12
ENDBRANCH   5  11
ENDBRANCH   1   5
BRANCH   3  18
ATOM     18  C   LIG    1       -2.502   1.382  -2.885  0.00  0.00    +0.340 C 
BRANCH  18  19
ATOM     19  N   LIG    1       -3.598   0.465  -3.209  0.00  0.00    -0.480 N 
ATOM     20  C   LIG    1       -4.820   0.677  -2.664  0.00  0.00    +0.340 A 
ATOM     21  C   LIG    1       -5.876  -0.124  -2.916  0.00  0.00    -0.160 A 
ATOM     22  C   LIG    1       -5.732  -1.237  -3.777  0.00  0.00    +0.420 A 
ATOM     23  C   LIG    1       -4.407  -1.477  -4.374  0.00  0.00    -0.200 A 
ATOM     24  C   LIG    1       -4.179  -2.550  -5.234  0.00  0.00    +0.110 A 
ATOM     25  C   LIG    1       -2.934  -2.738  -5.768  0.00  0.00    -0.030 A 
ATOM     26  C   LIG    1       -1.897  -1.868  -5.460  0.00  0.00    +0.080 A 
ATOM     27  C   LIG    1       -2.101  -0.801  -4.613  0.00  0.00    -0.050 A 
ATOM     28  O   LIG    1       -6.675  -1.974  -4.018  0.00  0.00    -0.500 OA
ATOM     29  C   LIG    1       -3.362  -0.589  -4.063  0.00  0.00    +0.200 A 
ENDBRANCH  18  19
ENDBRANCH   3  18
TORSDOF 8
