REMARK  Name = ZINCrg000000o7EC.0
REMARK                            x       y       z     vdW  Elec       q    Type
REMARK                         _______ _______ _______ _____ _____    ______ ____
ROOT
ATOM      1  N   LIG    1       -0.288   1.272  -2.443  0.00  0.00    -0.700 N 
ATOM      2  H   LIG    1        0.507   0.726  -2.543  0.00  0.00    +0.410 HD
ATOM      3  C   LIG    1       -0.742   1.585  -1.213  0.00  0.00    +0.500 C 
ATOM      4  O   LIG    1       -1.736   2.268  -1.088  0.00  0.00    -0.510 OA
ENDROOT
BRANCH   1   5
ATOM      5  C   LIG    1       -0.997   1.758  -3.630  0.00  0.00    +0.310 C 
BRANCH   5   6
ATOM      6  C   LIG    1       -2.124   0.814  -3.963  0.00  0.00    +0.450 C 
ATOM      7  O   LIG    1       -2.316  -0.163  -3.279  0.00  0.00    -0.500 OA
BRANCH   6   8
ATOM      8  O   LIG    1       -2.915   1.060  -5.019  0.00  0.00    -0.350 OA
BRANCH   8  10
ATOM      9  C   LIG    1       -4.769   0.552  -6.514  0.00  0.00    +0.070 C 
ATOM     10  C   LIG    1       -3.980   0.108  -5.280  0.00  0.00    +0.200 C 
ENDBRANCH   8  10
ENDBRANCH   6   8
ENDBRANCH   5   6
BRANCH   5  11
ATOM     11  C   LIG    1       -0.026   1.829  -4.810  0.00  0.00    +0.170 C 
BRANCH  11  12
ATOM     12  C   LIG    1        1.033   2.863  -4.527  0.00  0.00    -0.000 A 
ATOM     13  C   LIG    1        2.364   2.659  -4.550  0.00  0.00    +0.130 A 
ATOM     14  N   LIG    1        2.953   3.855  -4.238  0.00  0.00    -0.570 N 
ATOM     15  H   LIG    1        3.906   4.028  -4.175  0.00  0.00    +0.420 HD
ATOM     16  C   LIG    1        1.961   4.748  -4.035  0.00  0.00    +0.400 A 
ATOM     17  N   LIG    1        0.816   4.149  -4.215  0.00  0.00    -0.480 NA
ENDBRANCH  11  12
ENDBRANCH   5  11
ENDBRANCH   1   5
BRANCH   3  18
ATOM     18  C   LIG    1       -0.013   1.086   0.008  0.00  0.00    +0.340 C 
BRANCH  18  19
ATOM     19  N   LIG    1       -0.698   1.558   1.213  0.00  0.00    -0.480 N 
ATOM     20  C   LIG    1       -1.677   0.796   1.758  0.00  0.00    +0.340 A 
ATOM     21  C   LIG    1       -2.352   1.166   2.866  0.00  0.00    -0.160 A 
ATOM     22  C   LIG    1       -2.049   2.390   3.507  0.00  0.00    +0.420 A 
ATOM     23  C   LIG    1       -0.986   3.226   2.922  0.00  0.00    -0.200 A 
ATOM     24  C   LIG    1       -0.624   4.447   3.489  0.00  0.00    +0.110 A 
ATOM     25  C   LIG    1        0.368   5.193   2.916  0.00  0.00    -0.030 A 
ATOM     26  C   LIG    1        1.017   4.744   1.774  0.00  0.00    +0.080 A 
ATOM     27  C   LIG    1        0.675   3.541   1.197  0.00  0.00    -0.040 A 
ATOM     28  O   LIG    1       -2.647   2.743   4.510  0.00  0.00    -0.500 OA
ATOM     29  C   LIG    1       -0.328   2.763   1.768  0.00  0.00    +0.200 A 
ENDBRANCH  18  19
ENDBRANCH   3  18
TORSDOF 8
