REMARK  Name = ZINCkj000005h787.0
REMARK                            x       y       z     vdW  Elec       q    Type
REMARK                         _______ _______ _______ _____ _____    ______ ____
ROOT
ATOM      1  C   LIG    1        3.509  -4.551   1.014  0.00  0.00    +0.160 C 
ATOM      2  C   LIG    1        2.134  -5.215   1.121  0.00  0.00    +0.040 C 
ATOM      3  C   LIG    1        1.250  -4.737  -0.035  0.00  0.00    +0.310 C 
ATOM      4  N   LIG    1        1.214  -3.268  -0.027  0.00  0.00    -0.610 N 
ATOM      5  C   LIG    1        2.484  -2.530  -0.041  0.00  0.00    +0.280 C 
ATOM      6  C   LIG    1        0.037  -2.610  -0.012  0.00  0.00    +0.640 C 
ATOM      7  O   LIG    1       -1.007  -3.232  -0.006  0.00  0.00    -0.510 OA
ATOM      8  C   LIG    1        3.354  -3.033   1.121  0.00  0.00    +0.000 C 
ENDROOT
BRANCH   6   9
ATOM      9  C   LIG    1        0.018  -1.178  -0.004  0.00  0.00    -0.230 C 
ATOM     10  C   LIG    1        0.002  -0.004   0.002  0.00  0.00    -0.040 C 
BRANCH  10  11
ATOM     11  C   LIG    1       -0.018   1.468   0.010  0.00  0.00    +0.060 C 
ATOM     12  C   LIG    1        0.455   2.188  -1.254  0.00  0.00    +0.050 C 
ATOM     13  C   LIG    1        1.329   2.193   0.001  0.00  0.00    +0.050 C 
ENDBRANCH  10  11
ENDBRANCH   6   9
BRANCH   1  14
ATOM     14  O   LIG    1        4.346  -5.020   2.073  0.00  0.00    -0.380 OA
BRANCH  14  15
ATOM     15  C   LIG    1        5.737  -5.049   1.744  0.00  0.00    +0.180 C 
BRANCH  15  16
ATOM     16  C   LIG    1        6.534  -5.564   2.945  0.00  0.00    +0.050 C 
BRANCH  16  17
ATOM     17  C   LIG    1        8.023  -5.595   2.593  0.00  0.00    +0.250 C 
BRANCH  17  19
ATOM     18  C   LIG    1       10.201  -6.233   3.370  0.00  0.00    +0.320 C 
ATOM     19  N   LIG    1        8.788  -6.089   3.745  0.00  0.00    -0.390 N 
ATOM     20  C   LIG    1        8.671  -5.135   4.856  0.00  0.00    +0.330 C 
ATOM     21  H   LIG    1        8.423  -6.986   4.032  0.00  0.00    +0.430 HD
ENDBRANCH  17  19
ENDBRANCH  16  17
ENDBRANCH  15  16
ENDBRANCH  14  15
ENDBRANCH   1  14
TORSDOF 7
