REMARK  Name = ZINCrD000000fFM4.0
REMARK                            x       y       z     vdW  Elec       q    Type
REMARK                         _______ _______ _______ _____ _____    ______ ____
ROOT
ATOM      1  C   LIG    1       -1.301  -3.354   1.125  0.00  0.00    +0.520 C 
ATOM      2  N   LIG    1       -0.121  -2.864   0.695  0.00  0.00    -0.720 N 
ATOM      3  H   LIG    1        0.705  -3.315   0.929  0.00  0.00    +0.410 HD
ATOM      4  O   LIG    1       -2.334  -2.789   0.832  0.00  0.00    -0.530 OA
ENDROOT
BRANCH   2   5
ATOM      5  C   LIG    1       -0.086  -1.650  -0.125  0.00  0.00    +0.340 C 
ATOM      6  C   LIG    1       -0.300  -2.021  -1.594  0.00  0.00    +0.060 C 
BRANCH   5   7
ATOM      7  C   LIG    1        1.252  -0.976   0.034  0.00  0.00    +0.270 A 
ATOM      8  N   LIG    1        2.354  -1.577   0.375  0.00  0.00    -0.480 NA
ATOM      9  C   LIG    1        3.369  -0.676   0.424  0.00  0.00    +0.050 A 
ATOM     10  C   LIG    1        4.729  -0.773   0.728  0.00  0.00    +0.070 A 
ATOM     11  C   LIG    1        5.516   0.343   0.690  0.00  0.00    +0.000 A 
ATOM     12  C   LIG    1        4.979   1.577   0.352  0.00  0.00    +0.030 A 
ATOM     13  C   LIG    1        3.639   1.696   0.049  0.00  0.00    +0.010 A 
ATOM     14  C   LIG    1        2.824   0.573   0.082  0.00  0.00    +0.050 A 
ATOM     15  N   LIG    1        1.483   0.351  -0.159  0.00  0.00    -0.590 N 
ATOM     16  H   LIG    1        0.828   1.017  -0.422  0.00  0.00    +0.430 HD
ENDBRANCH   5   7
ENDBRANCH   2   5
BRANCH   1  17
ATOM     17  C   LIG    1       -1.337  -4.602   1.968  0.00  0.00    +0.060 C 
BRANCH  17  18
ATOM     18  C   LIG    1       -2.788  -4.940   2.318  0.00  0.00    +0.310 C 
BRANCH  18  19
ATOM     19  C   LIG    1       -2.834  -6.253   3.056  0.00  0.00    -0.100 A 
ATOM     20  C   LIG    1       -2.511  -6.302   4.399  0.00  0.00    +0.020 A 
ATOM     21  C   LIG    1       -2.558  -7.506   5.077  0.00  0.00    +0.000 A 
ATOM     22  C   LIG    1       -2.919  -8.662   4.410  0.00  0.00    -0.080 A 
ATOM     23  C   LIG    1       -3.236  -8.613   3.065  0.00  0.00    +0.000 A 
ATOM     24  C   LIG    1       -2.966  -9.975   5.148  0.00  0.00    +0.090 C 
ATOM     25  C   LIG    1       -3.194  -7.409   2.388  0.00  0.00    +0.020 A 
ENDBRANCH  18  19
BRANCH  18  28
ATOM     26  C   LIG    1       -5.237  -2.510   3.973  0.00  0.00    +0.080 C 
ATOM     27  C   LIG    1       -4.675  -3.667   3.188  0.00  0.00    +0.520 C 
ATOM     28  N   LIG    1       -3.344  -3.883   3.166  0.00  0.00    -0.720 N 
ATOM     29  H   LIG    1       -2.756  -3.338   3.711  0.00  0.00    +0.400 HD
ATOM     30  O   LIG    1       -5.419  -4.404   2.577  0.00  0.00    -0.540 OA
ENDBRANCH  18  28
ENDBRANCH  17  18
ENDBRANCH   1  17
TORSDOF 6
