REMARK  Name = ZINCpe000000WSH2.0
REMARK                            x       y       z     vdW  Elec       q    Type
REMARK                         _______ _______ _______ _____ _____    ______ ____
ROOT
ATOM      1  N   LIG    1        6.593   1.326  -1.715  0.00  0.00    -0.720 N 
ATOM      2  H   LIG    1        7.229   1.250  -0.987  0.00  0.00    +0.410 HD
ATOM      3  C   LIG    1        5.305   1.628  -1.455  0.00  0.00    +0.500 C 
ATOM      4  O   LIG    1        4.509   1.723  -2.366  0.00  0.00    -0.520 OA
ENDROOT
BRANCH   1   6
ATOM      5  C   LIG    1        6.762  -0.340  -3.497  0.00  0.00    +0.030 C 
ATOM      6  C   LIG    1        7.031   1.111  -3.096  0.00  0.00    +0.330 C 
BRANCH   6   7
ATOM      7  C   LIG    1        8.506   1.398  -3.205  0.00  0.00    -0.040 A 
ATOM      8  C   LIG    1        9.307   1.880  -2.233  0.00  0.00    +0.150 A 
ATOM      9  N   LIG    1       10.548   1.991  -2.732  0.00  0.00    -0.480 NA
ATOM     10  C   LIG    1       10.548   1.597  -3.972  0.00  0.00    +0.220 A 
ATOM     11  C   LIG    1       11.723   1.549  -4.920  0.00  0.00    +0.150 C 
ATOM     12  C   LIG    1       11.343   0.660  -6.111  0.00  0.00    +0.030 C 
ATOM     13  C   LIG    1        9.972   1.088  -6.642  0.00  0.00    +0.030 C 
ATOM     14  C   LIG    1        8.889   0.718  -5.622  0.00  0.00    +0.280 C 
ATOM     15  N   LIG    1        9.292   1.214  -4.304  0.00  0.00    -0.440 N 
ENDBRANCH   6   7
ENDBRANCH   1   6
BRANCH   3  16
ATOM     16  C   LIG    1        4.854   1.849  -0.034  0.00  0.00    +0.360 C 
BRANCH  16  17
ATOM     17  N   LIG    1        3.423   2.161  -0.019  0.00  0.00    -0.460 N 
ATOM     18  C   LIG    1        2.870   3.407  -0.007  0.00  0.00    +0.480 A 
ATOM     19  N   LIG    1        1.571   3.317   0.005  0.00  0.00    -0.460 NA
ATOM     20  C   LIG    1        1.210   2.011   0.001  0.00  0.00    -0.110 A 
ATOM     21  C   LIG    1       -0.016   1.325   0.009  0.00  0.00    +0.510 A 
ATOM     22  N   LIG    1        0.002  -0.004   0.002  0.00  0.00    -0.590 NA
ATOM     23  C   LIG    1        1.141  -0.672  -0.012  0.00  0.00    +0.570 A 
ATOM     24  N   LIG    1        2.312  -0.072  -0.020  0.00  0.00    -0.560 NA
ATOM     25  C   LIG    1        2.394   1.254  -0.014  0.00  0.00    +0.310 A 
BRANCH  21  26
ATOM     26  N   LIG    1       -1.214   2.017   0.019  0.00  0.00    -0.820 N 
ATOM     27  H   LIG    1       -1.214   2.987   0.024  0.00  0.00    +0.420 HD
ATOM     28  H   LIG    1       -2.054   1.532   0.020  0.00  0.00    +0.410 HD
ENDBRANCH  21  26
ENDBRANCH  16  17
ENDBRANCH   3  16
TORSDOF 5
