REMARK  Name = ZINCrg000009DFmk.0
REMARK                            x       y       z     vdW  Elec       q    Type
REMARK                         _______ _______ _______ _____ _____    ______ ____
ROOT
ATOM      1  C   LIG    1        3.151   1.647  -0.084  0.00  0.00    +0.600 C 
ATOM      2  N   LIG    1        4.239   2.424  -0.259  0.00  0.00    -0.600 N 
ATOM      3  C   LIG    1        4.257   3.888  -0.346  0.00  0.00    +0.390 C 
ATOM      4  C   LIG    1        5.689   4.319  -0.538  0.00  0.00    +0.060 A 
ATOM      5  N   LIG    1        6.457   5.370  -0.689  0.00  0.00    -0.250 NA
ATOM      6  N   LIG    1        7.779   4.929  -0.827  0.00  0.00    -0.460 N 
ATOM      7  H   LIG    1        8.559   5.492  -0.953  0.00  0.00    +0.450 HD
ATOM      8  C   LIG    1        7.778   3.582  -0.755  0.00  0.00    +0.300 A 
ATOM      9  C   LIG    1        6.497   3.180  -0.576  0.00  0.00    -0.280 A 
ATOM     10  C   LIG    1        5.623   1.964  -0.404  0.00  0.00    +0.320 C 
ATOM     11  O   LIG    1        3.279   0.447   0.064  0.00  0.00    -0.510 OA
ENDROOT
BRANCH   1  19
ATOM     12  C   LIG    1       -2.121   5.295   0.226  0.00  0.00    +0.550 C 
ATOM     13  N   LIG    1       -1.987   3.979  -0.033  0.00  0.00    -0.550 N 
ATOM     14  C   LIG    1       -3.168   3.148  -0.303  0.00  0.00    +0.280 C 
ATOM     15  C   LIG    1       -3.019   1.847   0.496  0.00  0.00    +0.020 C 
ATOM     16  C   LIG    1       -1.789   1.094  -0.012  0.00  0.00    +0.090 C 
ATOM     17  C   LIG    1       -0.588   2.002  -0.039  0.00  0.00    -0.130 A 
ATOM     18  C   LIG    1        0.672   1.438  -0.044  0.00  0.00    +0.110 A 
ATOM     19  C   LIG    1        1.806   2.253  -0.072  0.00  0.00    -0.150 A 
ATOM     20  C   LIG    1        1.663   3.643  -0.091  0.00  0.00    +0.060 A 
ATOM     21  C   LIG    1        0.405   4.201  -0.079  0.00  0.00    +0.010 A 
ATOM     22  C   LIG    1       -0.724   3.385  -0.049  0.00  0.00    +0.180 A 
ATOM     23  O   LIG    1       -1.134   5.985   0.393  0.00  0.00    -0.510 OA
BRANCH  12  25
ATOM     24  C   LIG    1       -3.598   7.170   0.665  0.00  0.00    +0.160 C 
ATOM     25  C   LIG    1       -3.461   5.896   0.307  0.00  0.00    -0.100 C 
ENDBRANCH  12  25
ENDBRANCH   1  19
BRANCH  10  26
ATOM     26  C   LIG    1        6.041   1.206   0.830  0.00  0.00    +0.510 C 
ATOM     27  O   LIG    1        5.260   1.061   1.746  0.00  0.00    -0.510 OA
ATOM     28  N   LIG    1        7.282   0.688   0.915  0.00  0.00    -0.850 N 
ATOM     29  H   LIG    1        7.551   0.200   1.709  0.00  0.00    +0.400 HD
ATOM     30  H   LIG    1        7.907   0.804   0.182  0.00  0.00    +0.400 HD
ENDBRANCH  10  26
TORSDOF 3
