REMARK  Name = ZINCtj00000mhoVW.0
REMARK                            x       y       z     vdW  Elec       q    Type
REMARK                         _______ _______ _______ _____ _____    ______ ____
ROOT
ATOM      1  C   LIG    1       -5.894   3.369  -0.748  0.00  0.00    +0.080 C 
ATOM      2  C   LIG    1       -5.936   1.967  -1.359  0.00  0.00    +0.140 C 
ENDROOT
BRANCH   2   3
ATOM      3  C   LIG    1       -7.284   1.345  -1.098  0.00  0.00    +0.520 C 
ATOM      4  N   LIG    1       -8.356   1.733  -1.817  0.00  0.00    -0.610 N 
ATOM      5  C   LIG    1       -8.254   2.851  -2.766  0.00  0.00    +0.270 C 
ATOM      6  C   LIG    1       -8.717   2.358  -4.148  0.00  0.00    +0.280 C 
ATOM      7  N   LIG    1      -10.009   1.675  -3.993  0.00  0.00    -0.610 N 
ATOM      8  C   LIG    1      -10.112   0.561  -3.040  0.00  0.00    +0.290 C 
ATOM      9  C   LIG    1      -11.081   2.064  -4.711  0.00  0.00    +0.610 C 
ATOM     10  O   LIG    1      -12.170   1.563  -4.500  0.00  0.00    -0.510 OA
ATOM     11  C   LIG    1       -9.648   1.051  -1.662  0.00  0.00    +0.290 C 
ATOM     12  O   LIG    1       -7.404   0.496  -0.241  0.00  0.00    -0.510 OA
BRANCH   9  13
ATOM     13  C   LIG    1      -10.936   3.092  -5.747  0.00  0.00    -0.090 A 
ATOM     14  C   LIG    1      -11.953   3.673  -6.449  0.00  0.00    +0.050 A 
ATOM     15  C   LIG    1      -11.362   4.596  -7.326  0.00  0.00    -0.060 A 
ATOM     16  C   LIG    1      -10.026   4.532  -7.130  0.00  0.00    +0.200 A 
ATOM     17  O   LIG    1       -9.774   3.624  -6.178  0.00  0.00    -0.170 OA
ENDBRANCH   9  13
ENDBRANCH   2   3
BRANCH   2  18
ATOM     18  N   LIG    1       -4.888   1.136  -0.751  0.00  0.00    -0.490 NA
ATOM     19  C   LIG    1       -3.543   1.671  -1.057  0.00  0.00    +0.220 C 
ATOM     20  C   LIG    1       -2.595   0.462  -1.194  0.00  0.00    +0.170 C 
ATOM     21  C   LIG    1       -3.494  -0.778  -0.983  0.00  0.00    +0.050 C 
ATOM     22  C   LIG    1       -4.912  -0.241  -1.305  0.00  0.00    +0.220 C 
BRANCH  21  23
ATOM     23  C   LIG    1       -3.113  -1.881  -1.936  0.00  0.00    -0.110 A 
ATOM     24  C   LIG    1       -2.744  -3.120  -1.446  0.00  0.00    +0.020 A 
ATOM     25  C   LIG    1       -2.399  -4.134  -2.320  0.00  0.00    +0.020 A 
ATOM     26  C   LIG    1       -2.418  -3.908  -3.683  0.00  0.00    +0.030 A 
ATOM     27  C   LIG    1       -2.782  -2.667  -4.173  0.00  0.00    +0.020 A 
ATOM     28  C   LIG    1       -3.127  -1.654  -3.299  0.00  0.00    +0.000 A 
ENDBRANCH  21  23
BRANCH  20  29
ATOM     29  N   LIG    1       -1.547   0.512  -0.166  0.00  0.00    -0.630 N 
ATOM     30  H   LIG    1       -1.974   0.566   0.747  0.00  0.00    +0.440 HD
ATOM     31  H   LIG    1       -0.968   1.325  -0.315  0.00  0.00    +0.440 HD
ATOM     32  H   LIG    1       -0.979  -0.320  -0.223  0.00  0.00    +0.440 HD
ENDBRANCH  20  29
ENDBRANCH   2  18
TORSDOF 5
