REMARK  Name = ZINCrD00000hQ5YD.0
REMARK                            x       y       z     vdW  Elec       q    Type
REMARK                         _______ _______ _______ _____ _____    ______ ____
ROOT
ATOM      1  C   LIG    1       -1.293   2.060   0.019  0.00  0.00    +0.550 C 
ATOM      2  N   LIG    1       -1.313   3.403   0.129  0.00  0.00    -0.610 N 
ATOM      3  C   LIG    1       -2.587   4.126   0.244  0.00  0.00    +0.280 C 
ATOM      4  C   LIG    1       -2.644   5.207  -0.834  0.00  0.00    +0.020 C 
ATOM      5  C   LIG    1       -1.404   6.097  -0.727  0.00  0.00    +0.070 C 
ATOM      6  C   LIG    1       -0.147   5.254  -0.953  0.00  0.00    +0.020 C 
ATOM      7  C   LIG    1       -0.061   4.173   0.128  0.00  0.00    +0.280 C 
ATOM      8  O   LIG    1       -2.337   1.441  -0.075  0.00  0.00    -0.540 OA
ENDROOT
BRANCH   5   9
ATOM      9  C   LIG    1       -1.474   7.183  -1.769  0.00  0.00    +0.090 A 
ATOM     10  C   LIG    1       -2.035   6.920  -3.006  0.00  0.00    +0.220 A 
ATOM     11  N   LIG    1       -2.097   7.872  -3.920  0.00  0.00    -0.430 NA
ATOM     12  C   LIG    1       -1.624   9.076  -3.652  0.00  0.00    +0.210 A 
ATOM     13  C   LIG    1       -1.063   9.340  -2.415  0.00  0.00    +0.220 A 
ATOM     14  N   LIG    1       -1.005   8.389  -1.500  0.00  0.00    -0.440 NA
ENDBRANCH   5   9
BRANCH   1  16
ATOM     15  C   LIG    1        0.001  -0.004   0.007  0.00  0.00    +0.140 C 
ATOM     16  C   LIG    1       -0.016   1.345   0.015  0.00  0.00    -0.090 C 
BRANCH  15  20
ATOM     17  C   LIG    1        3.708  -2.072  -0.024  0.00  0.00    +0.120 A 
ATOM     18  C   LIG    1        3.688  -0.684  -0.017  0.00  0.00    -0.040 A 
ATOM     19  C   LIG    1        2.488  -0.009  -0.006  0.00  0.00    +0.040 A 
ATOM     20  C   LIG    1        1.284  -0.723  -0.004  0.00  0.00    -0.080 A 
ATOM     21  C   LIG    1        1.305  -2.122  -0.006  0.00  0.00    -0.010 A 
ATOM     22  C   LIG    1        2.513  -2.791  -0.021  0.00  0.00    +0.100 A 
BRANCH  22  23
ATOM     23  O   LIG    1        2.537  -4.151  -0.029  0.00  0.00    -0.310 OA
ATOM     24  C   LIG    1        1.275  -4.822  -0.025  0.00  0.00    +0.240 C 
ENDBRANCH  22  23
BRANCH  17  25
ATOM     25  O   LIG    1        4.895  -2.733  -0.034  0.00  0.00    -0.300 OA
BRANCH  25  27
ATOM     26  C   LIG    1        7.309  -2.848  -0.047  0.00  0.00    +0.070 C 
ATOM     27  C   LIG    1        6.081  -1.936  -0.035  0.00  0.00    +0.170 C 
ENDBRANCH  25  27
ENDBRANCH  17  25
ENDBRANCH  15  20
ENDBRANCH   1  16
TORSDOF 6
