REMARK  Name = ZINCrH000004q5pe.0
REMARK                            x       y       z     vdW  Elec       q    Type
REMARK                         _______ _______ _______ _____ _____    ______ ____
ROOT
ATOM      1  C   LIG    1       -0.262   4.383   0.244  0.00  0.00    +0.120 C 
ATOM      2  C   LIG    1       -1.436   3.447   0.123  0.00  0.00    -0.040 A 
ATOM      3  C   LIG    1       -1.308   2.145  -0.172  0.00  0.00    -0.220 A 
ATOM      4  S   LIG    1       -2.888   1.380  -0.234  0.00  0.00    +0.330 S 
ATOM      5  C   LIG    1       -3.676   2.843   0.152  0.00  0.00    +0.030 A 
ATOM      6  C   LIG    1       -2.760   3.854   0.308  0.00  0.00    -0.200 A 
ENDROOT
BRANCH   6   7
ATOM      7  C   LIG    1       -3.136   5.233   0.638  0.00  0.00    +0.590 C 
ATOM      8  N   LIG    1       -3.227   5.617   1.927  0.00  0.00    -0.610 N 
ATOM      9  C   LIG    1       -2.960   4.669   3.020  0.00  0.00    +0.250 C 
ATOM     10  C   LIG    1       -1.958   5.322   3.986  0.00  0.00    +0.220 C 
ATOM     11  O   LIG    1       -2.447   6.610   4.368  0.00  0.00    -0.380 OA
ATOM     12  C   LIG    1       -2.575   7.533   3.284  0.00  0.00    +0.220 C 
ATOM     13  C   LIG    1       -3.603   6.995   2.282  0.00  0.00    +0.250 C 
ATOM     14  O   LIG    1       -3.366   6.031  -0.252  0.00  0.00    -0.530 OA
ENDBRANCH   6   7
BRANCH   3  15
ATOM     15  C   LIG    1       -0.024   1.455  -0.415  0.00  0.00    -0.010 A 
ATOM     16  C   LIG    1        0.917   2.012  -1.283  0.00  0.00    +0.020 A 
ATOM     17  C   LIG    1        2.112   1.360  -1.510  0.00  0.00    +0.010 A 
ATOM     18  C   LIG    1        2.378   0.157  -0.881  0.00  0.00    +0.000 A 
ATOM     19  C   LIG    1        1.449  -0.400  -0.020  0.00  0.00    +0.010 A 
ATOM     20  C   LIG    1        0.251   0.241   0.216  0.00  0.00    +0.010 A 
ENDBRANCH   3  15
BRANCH   5  21
ATOM     21  N   LIG    1       -5.047   2.991   0.283  0.00  0.00    -0.630 N 
ATOM     22  H   LIG    1       -5.422   3.859   0.501  0.00  0.00    +0.420 HD
ATOM     23  C   LIG    1       -5.859   1.930   0.108  0.00  0.00    +0.540 C 
ATOM     24  O   LIG    1       -5.390   0.846  -0.164  0.00  0.00    -0.500 OA
BRANCH  23  25
ATOM     25  C   LIG    1       -7.351   2.092   0.251  0.00  0.00    -0.070 C 
ATOM     26  C   LIG    1       -8.200   1.961  -1.014  0.00  0.00    +0.070 C 
ATOM     27  C   LIG    1       -8.220   0.850   0.039  0.00  0.00    +0.010 C 
ATOM     28  C   LIG    1       -9.478   0.713   0.898  0.00  0.00    +0.060 C 
ENDBRANCH  23  25
ENDBRANCH   5  21
TORSDOF 4
