REMARK  Name = ZINCrD000000C2IW.0
REMARK                            x       y       z     vdW  Elec       q    Type
REMARK                         _______ _______ _______ _____ _____    ______ ____
ROOT
ATOM      1  O   LIG    1        0.444  -0.272   8.172  0.00  0.00    -0.500 OA
ATOM      2  C   LIG    1        0.368   0.427   7.181  0.00  0.00    +0.570 C 
ATOM      3  N   LIG    1       -0.301   1.597   7.231  0.00  0.00    -0.670 N 
ATOM      4  H   LIG    1       -0.305   2.186   6.461  0.00  0.00    +0.420 HD
ENDROOT
BRANCH   2   5
ATOM      5  C   LIG    1        1.008  -0.004   5.920  0.00  0.00    -0.110 A 
ATOM      6  C   LIG    1        0.921   0.797   4.780  0.00  0.00    +0.020 A 
ATOM      7  C   LIG    1        1.520   0.391   3.605  0.00  0.00    +0.050 A 
ATOM      8  C   LIG    1        2.211  -0.806   3.554  0.00  0.00    -0.020 A 
ATOM      9  C   LIG    1        2.298  -1.612   4.681  0.00  0.00    +0.100 A 
ATOM     10  C   LIG    1        1.700  -1.214   5.865  0.00  0.00    +0.080 A 
BRANCH   9  11
ATOM     11  O   LIG    1        2.974  -2.790   4.623  0.00  0.00    -0.320 OA
BRANCH  11  12
ATOM     12  C   LIG    1        3.565  -3.137   3.369  0.00  0.00    +0.600 C 
ATOM     13  F   LIG    1        2.568  -3.228   2.393  0.00  0.00    -0.200 F 
ATOM     14  F   LIG    1        4.490  -2.155   3.002  0.00  0.00    -0.200 F 
ENDBRANCH  11  12
ENDBRANCH   9  11
ENDBRANCH   2   5
BRANCH   3  15
ATOM     15  C   LIG    1       -0.988   1.960   8.394  0.00  0.00    +0.200 A 
ATOM     16  C   LIG    1       -2.179   2.669   8.306  0.00  0.00    -0.030 A 
ATOM     17  C   LIG    1       -2.857   3.022   9.456  0.00  0.00    +0.150 A 
ATOM     18  C   LIG    1       -2.346   2.679  10.694  0.00  0.00    -0.690 A 
ATOM     19  C   LIG    1       -1.158   1.978  10.785  0.00  0.00    +0.140 A 
ATOM     20  C   LIG    1       -0.477   1.617   9.639  0.00  0.00    +0.010 A 
BRANCH  18  21
ATOM     21  S   LIG    1       -3.212   3.137  12.159  0.00  0.00    +2.710 S 
ATOM     22  O   LIG    1       -2.798   2.228  13.170  0.00  0.00    -0.950 OA
ATOM     23  O   LIG    1       -4.570   3.317  11.783  0.00  0.00    -0.950 OA
BRANCH  21  24
ATOM     24  N   LIG    1       -2.651   4.628  12.613  0.00  0.00    -1.010 NA
ATOM     25  C   LIG    1       -1.518   4.879  13.516  0.00  0.00    +0.270 C 
ATOM     26  C   LIG    1       -1.382   6.409  13.666  0.00  0.00    +0.030 C 
ATOM     27  C   LIG    1       -2.799   6.920  13.297  0.00  0.00    +0.030 C 
ATOM     28  C   LIG    1       -3.210   5.923  12.184  0.00  0.00    +0.270 C 
ENDBRANCH  21  24
ENDBRANCH  18  21
ENDBRANCH   3  15
TORSDOF 6
