REMARK  Name = ZINCpk00000y6vxZ.0
REMARK                            x       y       z     vdW  Elec       q    Type
REMARK                         _______ _______ _______ _____ _____    ______ ____
ROOT
ATOM      1  C   LIG    1       10.762  -1.115  -3.914  0.00  0.00    +0.300 C 
ATOM      2  N   LIG    1        9.348  -1.495  -3.949  0.00  0.00    -0.620 N 
ATOM      3  C   LIG    1        8.315  -0.934  -3.065  0.00  0.00    +0.250 C 
ATOM      4  C   LIG    1        7.139  -1.924  -3.159  0.00  0.00    +0.240 C 
ATOM      5  C   LIG    1        7.324  -2.509  -4.567  0.00  0.00    +0.000 C 
ATOM      6  C   LIG    1        6.614  -1.653  -5.615  0.00  0.00    +0.040 C 
ATOM      7  C   LIG    1        5.137  -1.497  -5.250  0.00  0.00    +0.040 C 
ATOM      8  C   LIG    1        5.062  -0.651  -3.972  0.00  0.00    +0.300 C 
ATOM      9  N   LIG    1        5.869  -1.285  -2.937  0.00  0.00    -0.610 N 
ATOM     10  C   LIG    1        5.388  -1.276  -1.678  0.00  0.00    +0.710 C 
ATOM     11  N   LIG    1        6.137  -1.756  -0.666  0.00  0.00    -0.740 N 
ATOM     12  H   LIG    1        6.993  -2.174  -0.852  0.00  0.00    +0.400 HD
ATOM     13  O   LIG    1        4.277  -0.834  -1.455  0.00  0.00    -0.580 OA
ATOM     14  C   LIG    1        8.824  -2.402  -4.794  0.00  0.00    +0.520 C 
ATOM     15  O   LIG    1        9.453  -3.038  -5.613  0.00  0.00    -0.520 OA
ENDROOT
BRANCH  11  16
ATOM     16  C   LIG    1        5.660  -1.648   0.715  0.00  0.00    +0.370 C 
BRANCH  16  17
ATOM     17  C   LIG    1        6.676  -2.256   1.647  0.00  0.00    +0.080 A 
ATOM     18  C   LIG    1        7.616  -1.445   2.254  0.00  0.00    +0.030 A 
ATOM     19  C   LIG    1        8.548  -2.012   3.109  0.00  0.00    +0.060 A 
ATOM     20  C   LIG    1        8.498  -3.386   3.324  0.00  0.00    +0.060 A 
ATOM     21  C   LIG    1        7.524  -4.134   2.678  0.00  0.00    +0.210 A 
ATOM     22  N   LIG    1        6.656  -3.556   1.872  0.00  0.00    -0.430 NA
BRANCH  20  23
ATOM     23  O   LIG    1        9.394  -3.987   4.151  0.00  0.00    -0.310 OA
BRANCH  23  24
ATOM     24  C   LIG    1        9.275  -5.401   4.318  0.00  0.00    +0.600 C 
ATOM     25  F   LIG    1        9.425  -6.031   3.078  0.00  0.00    -0.200 F 
ATOM     26  F   LIG    1        8.015  -5.704   4.845  0.00  0.00    -0.190 F 
ENDBRANCH  23  24
ENDBRANCH  20  23
ENDBRANCH  16  17
ENDBRANCH  11  16
TORSDOF 4
