REMARK  Name = ZINCrg000000ok4C.0
REMARK                            x       y       z     vdW  Elec       q    Type
REMARK                         _______ _______ _______ _____ _____    ______ ____
ROOT
ATOM      1  C   LIG    1        4.865   1.051  -0.253  0.00  0.00    +0.260 C 
ATOM      2  C   LIG    1        4.834   0.177  -1.509  0.00  0.00    +0.100 C 
ENDROOT
BRANCH   1   3
ATOM      3  N   LIG    1        5.963   2.015  -0.356  0.00  0.00    -0.400 N 
ATOM      4  C   LIG    1        6.118   2.954  -1.309  0.00  0.00    +0.530 A 
ATOM      5  N   LIG    1        7.213   3.635  -1.083  0.00  0.00    -0.500 NA
ATOM      6  C   LIG    1        7.814   3.175   0.017  0.00  0.00    +0.330 A 
ATOM      7  N   LIG    1        8.972   3.519   0.695  0.00  0.00    -0.510 N 
ATOM      8  C   LIG    1        9.812   4.613   0.199  0.00  0.00    +0.340 C 
ATOM      9  C   LIG    1        9.318   2.862   1.818  0.00  0.00    +0.710 A 
ATOM     10  O   LIG    1       10.335   3.182   2.403  0.00  0.00    -0.530 OA
ATOM     11  N   LIG    1        8.572   1.855   2.304  0.00  0.00    -0.550 N 
ATOM     12  C   LIG    1        8.999   1.165   3.524  0.00  0.00    +0.350 C 
ATOM     13  C   LIG    1        7.437   1.469   1.685  0.00  0.00    +0.600 A 
ATOM     14  O   LIG    1        6.770   0.555   2.135  0.00  0.00    -0.520 OA
ATOM     15  C   LIG    1        7.032   2.138   0.510  0.00  0.00    -0.160 A 
ENDBRANCH   1   3
BRANCH   1  18
ATOM     16  N   LIG    1        2.403   1.103  -0.015  0.00  0.00    -0.660 N 
ATOM     17  H   LIG    1        2.419   0.135   0.048  0.00  0.00    +0.410 HD
ATOM     18  C   LIG    1        3.558   1.790  -0.124  0.00  0.00    +0.510 C 
ATOM     19  O   LIG    1        3.545   3.003  -0.117  0.00  0.00    -0.500 OA
BRANCH  16  23
ATOM     20  C   LIG    1       -1.236   3.138   0.054  0.00  0.00    +0.120 A 
ATOM     21  C   LIG    1       -1.144   1.902  -0.568  0.00  0.00    -0.060 A 
ATOM     22  C   LIG    1        0.059   1.225  -0.586  0.00  0.00    +0.030 A 
ATOM     23  C   LIG    1        1.181   1.787   0.008  0.00  0.00    +0.100 A 
ATOM     24  C   LIG    1        1.090   3.027   0.626  0.00  0.00    +0.060 A 
ATOM     25  C   LIG    1       -0.115   3.701   0.648  0.00  0.00    +0.010 A 
BRANCH  20  26
ATOM     26  O   LIG    1       -2.422   3.802   0.076  0.00  0.00    -0.310 OA
BRANCH  26  28
ATOM     27  C   LIG    1       -4.772   4.055  -0.430  0.00  0.00    +0.070 C 
ATOM     28  C   LIG    1       -3.534   3.164  -0.555  0.00  0.00    +0.170 C 
ENDBRANCH  26  28
ENDBRANCH  20  26
ENDBRANCH  16  23
ENDBRANCH   1  18
TORSDOF 5
