REMARK  Name = ZINCkj000005iGWM.1
REMARK                            x       y       z     vdW  Elec       q    Type
REMARK                         _______ _______ _______ _____ _____    ______ ____
ROOT
ATOM      1  N   LIG    1       -1.726  -1.016  -1.369  0.00  0.00    -0.700 N 
ATOM      2  H   LIG    1       -1.191  -0.690  -2.109  0.00  0.00    +0.410 HD
ATOM      3  C   LIG    1       -2.867  -1.692  -1.608  0.00  0.00    +0.510 C 
ATOM      4  O   LIG    1       -3.536  -2.099  -0.683  0.00  0.00    -0.520 OA
ENDROOT
BRANCH   3   5
ATOM      5  C   LIG    1       -3.312  -1.940  -3.027  0.00  0.00    +0.140 C 
ATOM      6  N   LIG    1       -4.266  -3.057  -3.052  0.00  0.00    -0.490 N 
ATOM      7  C   LIG    1       -4.700  -3.299  -4.435  0.00  0.00    +0.250 C 
ATOM      8  C   LIG    1       -5.372  -2.038  -4.984  0.00  0.00    +0.270 C 
ATOM      9  O   LIG    1       -4.457  -0.942  -4.904  0.00  0.00    -0.350 OA
ATOM     10  H   LIG    1       -5.068  -2.828  -2.484  0.00  0.00    +0.440 HD
ATOM     11  H   LIG    1       -3.823  -3.888  -2.688  0.00  0.00    +0.440 HD
ATOM     12  C   LIG    1       -3.987  -0.682  -3.578  0.00  0.00    +0.180 C 
ATOM     13  C   LIG    1       -2.978   0.467  -3.610  0.00  0.00    +0.110 C 
ENDBRANCH   3   5
BRANCH   1  14
ATOM     14  C   LIG    1       -1.293  -0.774   0.010  0.00  0.00    +0.350 C 
BRANCH  14  18
ATOM     15  C   LIG    1        2.382   1.408  -0.013  0.00  0.00    +0.160 A 
ATOM     16  C   LIG    1        2.397   0.022  -0.021  0.00  0.00    -0.060 A 
ATOM     17  C   LIG    1        1.207  -0.681  -0.013  0.00  0.00    +0.080 A 
ATOM     18  C   LIG    1        0.002  -0.004   0.002  0.00  0.00    -0.160 A 
ATOM     19  C   LIG    1       -0.017   1.379   0.010  0.00  0.00    +0.090 A 
ATOM     20  C   LIG    1        1.170   2.087   0.002  0.00  0.00    -0.070 A 
ATOM     21 CL   LIG    1        1.147   3.823   0.011  0.00  0.00    -0.040 Cl
BRANCH  15  23
ATOM     22  C   LIG    1        4.758   1.338  -0.037  0.00  0.00    +0.250 C 
ATOM     23  O   LIG    1        3.550   2.102  -0.021  0.00  0.00    -0.300 OA
ENDBRANCH  15  23
ENDBRANCH  14  18
ENDBRANCH   1  14
TORSDOF 4
