REMARK  Name = ZINCpk000000mO7O.0
REMARK                            x       y       z     vdW  Elec       q    Type
REMARK                         _______ _______ _______ _____ _____    ______ ____
ROOT
ATOM      1  C   LIG    1        0.369  -4.586   0.634  0.00  0.00    +0.540 C 
ATOM      2  N   LIG    1       -0.426  -5.398  -0.089  0.00  0.00    -0.670 N 
ATOM      3  H   LIG    1       -1.207  -5.038  -0.538  0.00  0.00    +0.420 HD
ATOM      4  O   LIG    1        1.297  -5.048   1.264  0.00  0.00    -0.500 OA
ENDROOT
BRANCH   2   5
ATOM      5  C   LIG    1       -0.126  -6.756  -0.192  0.00  0.00    +0.170 A 
ATOM      6  C   LIG    1        1.200  -7.175  -0.204  0.00  0.00    +0.010 A 
ATOM      7  C   LIG    1        1.499  -8.516  -0.300  0.00  0.00    +0.070 A 
ATOM      8  C   LIG    1        0.469  -9.455  -0.399  0.00  0.00    -0.150 A 
ATOM      9  C   LIG    1       -0.862  -9.030  -0.392  0.00  0.00    +0.100 A 
ATOM     10  C   LIG    1       -1.155  -7.688  -0.289  0.00  0.00    -0.010 A 
BRANCH   8  11
ATOM     11  C   LIG    1        0.786 -10.892  -0.509  0.00  0.00    +0.560 C 
ATOM     12  N   LIG    1        1.976 -11.283  -1.008  0.00  0.00    -0.620 N 
ATOM     13  C   LIG    1        2.910 -10.288  -1.540  0.00  0.00    +0.280 C 
ATOM     14  C   LIG    1        2.335 -12.703  -1.017  0.00  0.00    +0.290 C 
ATOM     15  O   LIG    1       -0.026 -11.723  -0.150  0.00  0.00    -0.540 OA
ENDBRANCH   8  11
ENDBRANCH   2   5
BRANCH   1  16
ATOM     16  C   LIG    1        0.106  -3.102   0.661  0.00  0.00    +0.110 C 
BRANCH  16  17
ATOM     17  S   LIG    1        1.338  -2.288   1.715  0.00  0.00    +0.080 S 
BRANCH  17  22
ATOM     18  N   LIG    1        1.505   0.447   2.256  0.00  0.00    -0.500 N 
ATOM     19  C   LIG    1        0.845   1.599   1.932  0.00  0.00    +0.490 C 
ATOM     20  N   LIG    1       -0.148   1.288   1.136  0.00  0.00    -0.370 NA
ATOM     21  N   LIG    1       -0.128  -0.100   0.941  0.00  0.00    -0.300 NA
ATOM     22  C   LIG    1        0.877  -0.590   1.625  0.00  0.00    +0.180 C 
BRANCH  19  23
ATOM     23  N   LIG    1        1.169   2.876   2.371  0.00  0.00    -0.830 NA
ATOM     24  H   LIG    1        1.927   3.008   2.962  0.00  0.00    +0.410 HD
ATOM     25  H   LIG    1        0.638   3.636   2.086  0.00  0.00    +0.430 HD
ENDBRANCH  19  23
BRANCH  18  26
ATOM     26  C   LIG    1        2.678   0.343   3.126  0.00  0.00    +0.340 C 
BRANCH  26  28
ATOM     27  C   LIG    1        4.823   1.386   2.605  0.00  0.00    +0.050 C 
ATOM     28  C   LIG    1        3.931   0.477   2.299  0.00  0.00    -0.070 C 
ENDBRANCH  26  28
ENDBRANCH  18  26
ENDBRANCH  17  22
ENDBRANCH  16  17
ENDBRANCH   1  16
TORSDOF 8
