REMARK  Name = ZINCpe000000T3PG.0
REMARK                            x       y       z     vdW  Elec       q    Type
REMARK                         _______ _______ _______ _____ _____    ______ ____
ROOT
ATOM      1  C   LIG    1        2.432   5.646   0.368  0.00  0.00    +0.260 C 
ENDROOT
BRANCH   1   2
ATOM      2  N   LIG    1        3.736   6.043  -0.169  0.00  0.00    -0.730 N 
ATOM      3  H   LIG    1        4.198   5.466  -0.796  0.00  0.00    +0.410 HD
ATOM      4  C   LIG    1        4.293   7.210   0.210  0.00  0.00    +0.710 C 
ATOM      5  N   LIG    1        5.493   7.576  -0.284  0.00  0.00    -0.740 N 
ATOM      6  H   LIG    1        5.955   6.998  -0.911  0.00  0.00    +0.400 HD
ATOM      7  O   LIG    1        3.714   7.934   0.997  0.00  0.00    -0.580 OA
BRANCH   5   8
ATOM      8  C   LIG    1        6.099   8.845   0.128  0.00  0.00    +0.340 C 
BRANCH   8   9
ATOM      9  C   LIG    1        7.428   9.014  -0.562  0.00  0.00    -0.110 A 
ATOM     10  C   LIG    1        8.582   8.542   0.035  0.00  0.00    +0.020 A 
ATOM     11  C   LIG    1        9.800   8.693  -0.601  0.00  0.00    +0.000 A 
ATOM     12  C   LIG    1        9.866   9.325  -1.828  0.00  0.00    +0.010 A 
ATOM     13  C   LIG    1        8.713   9.802  -2.423  0.00  0.00    +0.000 A 
ATOM     14  C   LIG    1        7.494   9.646  -1.790  0.00  0.00    +0.020 A 
ENDBRANCH   8   9
ENDBRANCH   5   8
ENDBRANCH   1   2
BRANCH   1  15
ATOM     15  C   LIG    1        2.304   4.145   0.319  0.00  0.00    +0.520 C 
ATOM     16  N   LIG    1        1.351   3.526   1.043  0.00  0.00    -0.720 N 
ATOM     17  H   LIG    1        0.797   4.037   1.653  0.00  0.00    +0.410 HD
ATOM     18  O   LIG    1        3.060   3.495  -0.372  0.00  0.00    -0.520 OA
BRANCH  16  19
ATOM     19  C   LIG    1        1.151   2.081   0.907  0.00  0.00    +0.270 C 
ATOM     20  C   LIG    1       -0.293   1.720   1.295  0.00  0.00    +0.080 C 
ATOM     21  C   LIG    1       -0.339   0.178   1.451  0.00  0.00    -0.300 C 
ATOM     22  S   LIG    1        1.218  -0.178   2.351  0.00  0.00    +2.390 S 
ATOM     23  O   LIG    1        1.847  -1.314   1.774  0.00  0.00    -0.930 OA
ATOM     24  O   LIG    1        0.973  -0.136   3.750  0.00  0.00    -0.930 OA
ATOM     25  C   LIG    1        2.117   1.334   1.848  0.00  0.00    -0.320 C 
ENDBRANCH  16  19
ENDBRANCH   1  15
BRANCH   1  27
ATOM     26  C   LIG    1        1.397   7.803  -0.352  0.00  0.00    +0.040 C 
ATOM     27  C   LIG    1        1.321   6.280  -0.471  0.00  0.00    -0.020 C 
ATOM     28  C   LIG    1        1.493   5.874  -1.936  0.00  0.00    +0.020 C 
ENDBRANCH   1  27
TORSDOF 6
