REMARK  Name = ZINCkj000005hfnN.0
REMARK                            x       y       z     vdW  Elec       q    Type
REMARK                         _______ _______ _______ _____ _____    ______ ____
ROOT
ATOM      1  C   LIG    1        0.002  -0.004   0.002  0.00  0.00    +0.330 C 
ATOM      2  N   LIG    1       -0.018   1.465   0.010  0.00  0.00    -0.390 N 
ATOM      3  H   LIG    1       -0.490   1.790   0.840  0.00  0.00    +0.430 HD
ENDROOT
BRANCH   2   4
ATOM      4  C   LIG    1        1.360   1.973  -0.000  0.00  0.00    +0.280 C 
BRANCH   4   5
ATOM      5  C   LIG    1        2.062   1.571   1.298  0.00  0.00    +0.080 C 
BRANCH   5   6
ATOM      6  C   LIG    1        3.476   2.092   1.288  0.00  0.00    +0.530 C 
ATOM      7  N   LIG    1        4.289   1.857   2.336  0.00  0.00    -0.690 N 
ATOM      8  H   LIG    1        3.964   1.352   3.098  0.00  0.00    +0.410 HD
ATOM      9  C   LIG    1        5.553   2.324   2.327  0.00  0.00    +0.700 C 
ATOM     10  O   LIG    1        5.960   2.957   1.372  0.00  0.00    -0.530 OA
ATOM     11  N   LIG    1        6.367   2.088   3.376  0.00  0.00    -0.850 N 
ATOM     12  H   LIG    1        7.277   2.424   3.369  0.00  0.00    +0.430 HD
ATOM     13  H   LIG    1        6.042   1.583   4.138  0.00  0.00    +0.400 HD
ATOM     14  O   LIG    1        3.882   2.724   0.335  0.00  0.00    -0.460 OA
ENDBRANCH   5   6
ENDBRANCH   4   5
ENDBRANCH   2   4
BRANCH   2  15
ATOM     15  C   LIG    1       -0.728   1.951  -1.180  0.00  0.00    +0.300 C 
BRANCH  15  16
ATOM     16  C   LIG    1       -2.196   1.526  -1.107  0.00  0.00    +0.220 C 
BRANCH  16  17
ATOM     17  O   LIG    1       -2.825   2.175   0.000  0.00  0.00    -0.330 OA
BRANCH  17  18
ATOM     18  C   LIG    1       -4.141   1.903   0.208  0.00  0.00    +0.130 A 
ATOM     19  C   LIG    1       -4.814   1.036  -0.640  0.00  0.00    -0.060 A 
ATOM     20  C   LIG    1       -6.149   0.758  -0.425  0.00  0.00    +0.090 A 
ATOM     21  C   LIG    1       -6.819   1.352   0.630  0.00  0.00    -0.120 A 
ATOM     22  C   LIG    1       -6.152   2.221   1.474  0.00  0.00    +0.100 A 
ATOM     23 BR   LIG    1       -8.650   0.975   0.919  0.00  0.00    -0.030 Br
ATOM     24  C   LIG    1       -4.814   2.498   1.265  0.00  0.00    +0.000 A 
ENDBRANCH  17  18
ENDBRANCH  16  17
ENDBRANCH  15  16
ENDBRANCH   2  15
TORSDOF 7
