REMARK  Name = ZINCkj000005hfnN.1
REMARK                            x       y       z     vdW  Elec       q    Type
REMARK                         _______ _______ _______ _____ _____    ______ ____
ROOT
ATOM      1  C   LIG    1       -0.025  -0.023  -0.039  0.00  0.00    +0.340 C 
ATOM      2  N   LIG    1       -0.119   1.443  -0.074  0.00  0.00    -0.390 N 
ATOM      3  H   LIG    1       -0.696   1.724  -0.852  0.00  0.00    +0.430 HD
ENDROOT
BRANCH   2   4
ATOM      4  C   LIG    1        1.225   2.015  -0.229  0.00  0.00    +0.290 C 
BRANCH   4   5
ATOM      5  C   LIG    1        1.797   1.614  -1.590  0.00  0.00    +0.090 C 
BRANCH   5   6
ATOM      6  C   LIG    1        3.175   2.202  -1.748  0.00  0.00    +0.530 C 
ATOM      7  N   LIG    1        3.877   1.979  -2.877  0.00  0.00    -0.690 N 
ATOM      8  H   LIG    1        3.495   1.440  -3.588  0.00  0.00    +0.410 HD
ATOM      9  C   LIG    1        5.110   2.505  -3.019  0.00  0.00    +0.700 C 
ATOM     10  O   LIG    1        5.589   3.180  -2.129  0.00  0.00    -0.530 OA
ATOM     11  N   LIG    1        5.811   2.282  -4.148  0.00  0.00    -0.850 N 
ATOM     12  H   LIG    1        6.699   2.660  -4.250  0.00  0.00    +0.430 HD
ATOM     13  H   LIG    1        5.429   1.743  -4.859  0.00  0.00    +0.400 HD
ATOM     14  O   LIG    1        3.653   2.875  -0.861  0.00  0.00    -0.460 OA
ENDBRANCH   5   6
ENDBRANCH   4   5
ENDBRANCH   2   4
BRANCH   2  15
ATOM     15  C   LIG    1       -0.716   1.925   1.179  0.00  0.00    +0.300 C 
BRANCH  15  16
ATOM     16  C   LIG    1       -0.961   3.432   1.080  0.00  0.00    +0.220 C 
BRANCH  16  17
ATOM     17  O   LIG    1       -1.935   3.690   0.067  0.00  0.00    -0.330 OA
BRANCH  17  18
ATOM     18  C   LIG    1       -2.269   4.990  -0.150  0.00  0.00    +0.130 A 
ATOM     19  C   LIG    1       -1.677   5.994   0.601  0.00  0.00    -0.060 A 
ATOM     20  C   LIG    1       -2.015   7.315   0.375  0.00  0.00    +0.090 A 
ATOM     21  C   LIG    1       -2.951   7.635  -0.592  0.00  0.00    -0.120 A 
ATOM     22  C   LIG    1       -3.547   6.634  -1.338  0.00  0.00    +0.100 A 
ATOM     23 BR   LIG    1       -3.417   9.442  -0.893  0.00  0.00    -0.030 Br
ATOM     24  C   LIG    1       -3.208   5.313  -1.119  0.00  0.00    +0.000 A 
ENDBRANCH  17  18
ENDBRANCH  16  17
ENDBRANCH  15  16
ENDBRANCH   2  15
TORSDOF 7
