REMARK  Name = ZINCrH000004mfEL.0
REMARK                            x       y       z     vdW  Elec       q    Type
REMARK                         _______ _______ _______ _____ _____    ______ ____
ROOT
ATOM      1  C   LIG    1        1.192   1.791  -0.069  0.00  0.00    +0.180 A 
ATOM      2  C   LIG    1        0.003   1.077  -0.061  0.00  0.00    -0.190 A 
ATOM      3  C   LIG    1       -1.209   1.748  -0.029  0.00  0.00    +0.180 A 
ATOM      4  C   LIG    1       -1.240   3.138   0.007  0.00  0.00    -0.180 A 
ATOM      5  C   LIG    1       -2.574   3.835   0.043  0.00  0.00    +0.090 C 
ATOM      6  C   LIG    1       -2.420   5.260   0.574  0.00  0.00    +0.020 C 
ATOM      7  C   LIG    1       -1.311   5.966  -0.217  0.00  0.00    +0.280 C 
ATOM      8  N   LIG    1       -0.053   5.250   0.038  0.00  0.00    -0.550 N 
ATOM      9  C   LIG    1        1.081   5.930   0.302  0.00  0.00    +0.520 C 
ATOM     10  O   LIG    1        2.087   5.332   0.619  0.00  0.00    -0.490 OA
ATOM     11  C   LIG    1       -0.051   3.849   0.002  0.00  0.00    +0.230 A 
ATOM     12  C   LIG    1        1.164   3.176  -0.037  0.00  0.00    -0.050 A 
ENDROOT
BRANCH   1  14
ATOM     13  C   LIG    1        2.332  -0.294  -0.140  0.00  0.00    +0.250 C 
ATOM     14  O   LIG    1        2.380   1.134  -0.108  0.00  0.00    -0.310 OA
ENDBRANCH   1  14
BRANCH   3  15
ATOM     15  O   LIG    1       -2.372   1.045  -0.027  0.00  0.00    -0.310 OA
ATOM     16  C   LIG    1       -2.269  -0.380  -0.059  0.00  0.00    +0.250 C 
ENDBRANCH   3  15
BRANCH   9  17
ATOM     17  C   LIG    1        1.098   7.434   0.202  0.00  0.00    +0.120 C 
BRANCH  17  18
ATOM     18  C   LIG    1        2.474   7.944   0.544  0.00  0.00    -0.070 A 
ATOM     19  C   LIG    1        2.758   8.357   1.811  0.00  0.00    +0.050 A 
ATOM     20  C   LIG    1        4.026   8.827   2.146  0.00  0.00    +0.010 A 
ATOM     21  C   LIG    1        5.018   8.899   1.216  0.00  0.00    +0.060 A 
ATOM     22  C   LIG    1        4.761   8.488  -0.102  0.00  0.00    -0.110 A 
ATOM     23  C   LIG    1        5.743   8.540  -1.104  0.00  0.00    +0.310 A 
ATOM     24  N   LIG    1        5.456   8.145  -2.322  0.00  0.00    -0.490 NA
ATOM     25  C   LIG    1        4.259   7.689  -2.665  0.00  0.00    +0.230 A 
ATOM     26  C   LIG    1        3.239   7.600  -1.768  0.00  0.00    -0.030 A 
ATOM     27  C   LIG    1        3.470   8.004  -0.441  0.00  0.00    -0.000 A 
ENDBRANCH  17  18
ENDBRANCH   9  17
TORSDOF 4
