REMARK  Name = ZINCkj000005ePcR.0
REMARK                            x       y       z     vdW  Elec       q    Type
REMARK                         _______ _______ _______ _____ _____    ______ ____
ROOT
ATOM      1  C   LIG    1        5.956   1.412  -0.128  0.00  0.00    +0.610 C 
ATOM      2  N   LIG    1        6.232   2.728  -0.042  0.00  0.00    -0.720 N 
ATOM      3  H   LIG    1        5.515   3.365   0.108  0.00  0.00    +0.420 HD
ATOM      4  O   LIG    1        6.855   0.613  -0.316  0.00  0.00    -0.520 OA
ENDROOT
BRANCH   1   7
ATOM      5  C   LIG    1        2.379   1.215   0.308  0.00  0.00    +0.250 A 
ATOM      6  N   LIG    1        3.543   1.773   0.206  0.00  0.00    -0.490 NA
ATOM      7  C   LIG    1        4.569   0.940   0.005  0.00  0.00    +0.010 A 
ATOM      8  C   LIG    1        4.236  -0.365  -0.072  0.00  0.00    -0.070 A 
ATOM      9  S   LIG    1        2.546  -0.528   0.127  0.00  0.00    +0.310 S 
BRANCH   5  12
ATOM     10  C   LIG    1       -1.271   1.930   0.831  0.00  0.00    +0.140 C 
ATOM     11  C   LIG    1        0.027   1.199   0.606  0.00  0.00    +0.510 C 
ATOM     12  N   LIG    1        1.183   1.888   0.522  0.00  0.00    -0.620 N 
ATOM     13  H   LIG    1        1.179   2.854   0.611  0.00  0.00    +0.430 HD
ATOM     14  O   LIG    1        0.032  -0.009   0.495  0.00  0.00    -0.500 OA
ENDBRANCH   5  12
ENDBRANCH   1   7
BRANCH   2  15
ATOM     15  C   LIG    1        7.613   3.198  -0.175  0.00  0.00    +0.280 C 
BRANCH  15  16
ATOM     16  C   LIG    1        7.634   4.728  -0.170  0.00  0.00    +0.160 C 
ATOM     17  C   LIG    1        6.909   5.252  -1.411  0.00  0.00    +0.110 C 
BRANCH  16  18
ATOM     18  N   LIG    1        9.026   5.198  -0.180  0.00  0.00    -0.390 N 
ATOM     19  C   LIG    1        9.065   6.683  -0.148  0.00  0.00    +0.270 C 
ATOM     20  C   LIG    1       10.484   6.988   0.397  0.00  0.00    +0.070 C 
ATOM     21  C   LIG    1       10.700   5.872   1.444  0.00  0.00    +0.070 C 
ATOM     22  C   LIG    1        9.726   4.748   1.043  0.00  0.00    +0.250 C 
ATOM     23  H   LIG    1        9.503   4.855  -1.000  0.00  0.00    +0.430 HD
ENDBRANCH  16  18
ENDBRANCH  15  16
ENDBRANCH   2  15
TORSDOF 5
