REMARK  Name = ZINCvU0000000F9V.0
REMARK                            x       y       z     vdW  Elec       q    Type
REMARK                         _______ _______ _______ _____ _____    ______ ____
ROOT
ATOM      1  C   LIG    1        4.705   1.478  -0.050  0.00  0.00    +0.360 A 
ATOM      2  N   LIG    1        3.556   2.107  -0.043  0.00  0.00    -0.530 NA
ATOM      3  C   LIG    1        2.380   1.435  -0.044  0.00  0.00    +0.160 A 
ATOM      4  C   LIG    1        1.155   2.107  -0.037  0.00  0.00    +0.030 A 
ATOM      5  C   LIG    1       -0.018   1.386  -0.039  0.00  0.00    +0.070 A 
ATOM      6  C   LIG    1        0.001  -0.003  -0.047  0.00  0.00    -0.010 A 
ATOM      7  C   LIG    1        1.196  -0.688  -0.054  0.00  0.00    +0.100 A 
ATOM      8  C   LIG    1        2.395   0.022  -0.052  0.00  0.00    -0.200 A 
ATOM      9  C   LIG    1        3.698  -0.658  -0.060  0.00  0.00    +0.560 A 
ATOM     10  O   LIG    1        3.776  -1.873  -0.067  0.00  0.00    -0.500 OA
ATOM     11  N   LIG    1        4.808   0.116  -0.058  0.00  0.00    -0.520 N 
ENDROOT
BRANCH   1  12
ATOM     12  S   LIG    1        6.186   2.432  -0.048  0.00  0.00    +0.080 S 
BRANCH  12  13
ATOM     13  C   LIG    1        5.484   4.101  -0.036  0.00  0.00    +0.130 C 
BRANCH  13  15
ATOM     14  O   LIG    1        7.754   4.745  -0.038  0.00  0.00    -0.500 OA
ATOM     15  C   LIG    1        6.599   5.114  -0.033  0.00  0.00    +0.540 C 
ATOM     16  N   LIG    1        6.312   6.431  -0.024  0.00  0.00    -0.660 N 
ATOM     17  H   LIG    1        5.391   6.728  -0.088  0.00  0.00    +0.420 HD
BRANCH  16  18
ATOM     18  C   LIG    1        7.344   7.371   0.076  0.00  0.00    +0.170 A 
ATOM     19  C   LIG    1        7.142   8.553   0.776  0.00  0.00    +0.020 A 
ATOM     20  C   LIG    1        8.165   9.478   0.878  0.00  0.00    -0.010 A 
ATOM     21  C   LIG    1        9.385   9.231   0.275  0.00  0.00    +0.040 A 
ATOM     22  C   LIG    1        9.587   8.056  -0.428  0.00  0.00    -0.010 A 
ATOM     23 CL   LIG    1       11.120   7.751  -1.185  0.00  0.00    -0.050 Cl
ATOM     24 CL   LIG    1        7.915  10.953   1.759  0.00  0.00    -0.050 Cl
ATOM     25  C   LIG    1        8.569   7.126  -0.529  0.00  0.00    +0.050 A 
ENDBRANCH  16  18
ENDBRANCH  13  15
ENDBRANCH  12  13
ENDBRANCH   1  12
BRANCH  11  26
ATOM     26  C   LIG    1        6.132  -0.512  -0.066  0.00  0.00    +0.360 C 
BRANCH  26  27
ATOM     27  C   LIG    1        6.589  -0.737   1.353  0.00  0.00    -0.120 A 
ATOM     28  C   LIG    1        7.317   0.239   2.007  0.00  0.00    +0.030 A 
ATOM     29  C   LIG    1        7.732   0.036   3.309  0.00  0.00    +0.010 A 
ATOM     30  C   LIG    1        7.429  -1.149   3.954  0.00  0.00    +0.010 A 
ATOM     31  C   LIG    1        6.705  -2.127   3.299  0.00  0.00    +0.010 A 
ATOM     32  C   LIG    1        6.285  -1.921   1.998  0.00  0.00    +0.040 A 
ENDBRANCH  26  27
ENDBRANCH  11  26
TORSDOF 6
