REMARK  Name = ZINCvU0000000Edf.0
REMARK                            x       y       z     vdW  Elec       q    Type
REMARK                         _______ _______ _______ _____ _____    ______ ____
ROOT
ATOM      1  C   LIG    1        0.049   1.879   5.347  0.00  0.00    +0.200 A 
ATOM      2  C   LIG    1        1.034   2.814   5.755  0.00  0.00    -0.160 A 
ATOM      3  C   LIG    1        1.988   2.758   6.855  0.00  0.00    -0.030 A 
ATOM      4  C   LIG    1        2.779   3.825   6.952  0.00  0.00    -0.010 A 
ATOM      5  S   LIG    1        2.422   4.998   5.698  0.00  0.00    +0.190 S 
ATOM      6  C   LIG    1        1.149   3.994   5.020  0.00  0.00    +0.100 A 
ATOM      7  N   LIG    1        0.336   4.192   3.974  0.00  0.00    -0.470 NA
ATOM      8  C   LIG    1       -0.561   3.295   3.634  0.00  0.00    +0.360 A 
ATOM      9  N   LIG    1       -0.713   2.165   4.300  0.00  0.00    -0.520 NA
ENDROOT
BRANCH   3  10
ATOM     10  C   LIG    1        2.072   1.609   7.788  0.00  0.00    -0.040 A 
ATOM     11  C   LIG    1        0.920   1.125   8.407  0.00  0.00    +0.040 A 
ATOM     12  C   LIG    1        1.003   0.052   9.270  0.00  0.00    +0.010 A 
ATOM     13  C   LIG    1        2.228  -0.536   9.531  0.00  0.00    +0.010 A 
ATOM     14  C   LIG    1        3.375  -0.057   8.924  0.00  0.00    +0.010 A 
ATOM     15  C   LIG    1        3.304   1.012   8.054  0.00  0.00    +0.030 A 
ENDBRANCH   3  10
BRANCH   1  16
ATOM     16  S   LIG    1       -0.163   0.364   6.220  0.00  0.00    +0.030 S 
BRANCH  16  17
ATOM     17  C   LIG    1       -1.512  -0.367   5.259  0.00  0.00    +0.150 C 
BRANCH  17  24
ATOM     18  C   LIG    1       -3.698  -1.004   7.570  0.00  0.00    +0.160 C 
ATOM     19  C   LIG    1       -2.824  -1.995   6.847  0.00  0.00    +0.040 A 
ATOM     20  N   LIG    1       -2.795  -3.284   7.025  0.00  0.00    -0.360 NA
ATOM     21  O   LIG    1       -1.989  -3.816   6.297  0.00  0.00    +0.100 OA
ATOM     22  C   LIG    1       -1.365  -2.923   5.516  0.00  0.00    -0.010 A 
ATOM     23  C   LIG    1       -0.306  -3.211   4.483  0.00  0.00    +0.190 C 
ATOM     24  C   LIG    1       -1.873  -1.710   5.841  0.00  0.00    -0.200 A 
ENDBRANCH  17  24
ENDBRANCH  16  17
ENDBRANCH   1  16
BRANCH   8  25
ATOM     25  C   LIG    1       -1.451   3.568   2.449  0.00  0.00    +0.310 C 
BRANCH  25  26
ATOM     26  N   LIG    1       -0.817   3.048   1.230  0.00  0.00    -0.530 NA
ATOM     27  C   LIG    1       -0.731   1.580   1.266  0.00  0.00    +0.150 C 
ATOM     28  C   LIG    1       -0.013   1.086   0.008  0.00  0.00    +0.220 C 
ATOM     29  O   LIG    1       -0.706   1.560  -1.149  0.00  0.00    -0.380 OA
ATOM     30  C   LIG    1       -0.807   2.985  -1.216  0.00  0.00    +0.220 C 
ATOM     31  C   LIG    1       -1.534   3.499   0.029  0.00  0.00    +0.160 C 
ENDBRANCH  25  26
ENDBRANCH   8  25
TORSDOF 6
