REMARK  Name = ZINCqH0000032npZ.0
REMARK                            x       y       z     vdW  Elec       q    Type
REMARK                         _______ _______ _______ _____ _____    ______ ____
ROOT
ATOM      1  C   LIG    1       -0.793   2.070   1.109  0.00  0.00    +0.240 C 
ENDROOT
BRANCH   1   2
ATOM      2  C   LIG    1       -2.109   1.338   1.172  0.00  0.00    +0.520 C 
ATOM      3  N   LIG    1       -2.129  -0.004   1.292  0.00  0.00    -0.730 N 
ATOM      4  H   LIG    1       -1.299  -0.505   1.265  0.00  0.00    +0.400 HD
ATOM      5  O   LIG    1       -3.151   1.958   1.115  0.00  0.00    -0.530 OA
BRANCH   3   6
ATOM      6  C   LIG    1       -3.404  -0.705   1.464  0.00  0.00    +0.260 C 
BRANCH   6   7
ATOM      7  C   LIG    1       -3.147  -2.209   1.575  0.00  0.00    +0.060 C 
BRANCH   7   8
ATOM      8  C   LIG    1       -4.459  -2.931   1.752  0.00  0.00    -0.120 C 
ATOM      9  C   LIG    1       -5.039  -3.404   0.696  0.00  0.00    -0.050 C 
ATOM     10  C   LIG    1       -6.347  -4.139   0.713  0.00  0.00    +0.050 C 
ATOM     11  C   LIG    1       -6.673  -4.604   2.134  0.00  0.00    +0.010 C 
ATOM     12  C   LIG    1       -6.499  -3.413   3.085  0.00  0.00    +0.010 C 
ATOM     13  C   LIG    1       -5.014  -3.051   3.141  0.00  0.00    +0.060 C 
ENDBRANCH   7   8
ENDBRANCH   6   7
ENDBRANCH   3   6
ENDBRANCH   1   2
BRANCH   1  14
ATOM     14  N   LIG    1       -0.996   3.473   1.479  0.00  0.00    -0.700 N 
ATOM     15  H   LIG    1       -1.867   3.884   1.363  0.00  0.00    +0.410 HD
ATOM     16  C   LIG    1        0.028   4.192   1.980  0.00  0.00    +0.570 C 
ATOM     17  O   LIG    1        1.119   3.677   2.125  0.00  0.00    -0.510 OA
BRANCH  16  18
ATOM     18  C   LIG    1       -0.177   5.605   2.353  0.00  0.00    -0.200 A 
ATOM     19  C   LIG    1       -0.589   5.939   3.648  0.00  0.00    +0.160 A 
ATOM     20  C   LIG    1       -0.772   7.265   3.990  0.00  0.00    -0.010 A 
ATOM     21  C   LIG    1       -0.560   8.261   3.054  0.00  0.00    +0.110 A 
ATOM     22  C   LIG    1       -0.159   7.939   1.770  0.00  0.00    -0.010 A 
ATOM     23  F   LIG    1       -0.802   4.967   4.562  0.00  0.00    -0.120 F 
ATOM     24  C   LIG    1        0.035   6.619   1.412  0.00  0.00    +0.160 A 
ATOM     25  F   LIG    1        0.427   6.307   0.157  0.00  0.00    -0.120 F 
ENDBRANCH  16  18
ENDBRANCH   1  14
BRANCH   1  27
ATOM     26  C   LIG    1        1.163   2.613  -0.347  0.00  0.00    +0.050 C 
ATOM     27  C   LIG    1       -0.235   1.993  -0.314  0.00  0.00    -0.020 C 
ATOM     28  C   LIG    1       -1.155   2.761  -1.265  0.00  0.00    +0.030 C 
ENDBRANCH   1  27
TORSDOF 7
