REMARK  Name = ZINCpe00000gMw5K.0
REMARK                            x       y       z     vdW  Elec       q    Type
REMARK                         _______ _______ _______ _____ _____    ______ ____
ROOT
ATOM      1  C   LIG    1        2.207  -3.892  -0.220  0.00  0.00    +0.230 C 
ATOM      2  C   LIG    1        1.997  -4.231   1.261  0.00  0.00    +0.030 C 
ATOM      3  C   LIG    1        1.954  -5.754   1.406  0.00  0.00    +0.080 C 
ATOM      4  C   LIG    1        3.119  -6.370   0.686  0.00  0.00    +0.520 C 
ATOM      5  N   LIG    1        3.835  -5.728  -0.239  0.00  0.00    -0.710 N 
ATOM      6  H   LIG    1        4.550  -6.214  -0.677  0.00  0.00    +0.410 HD
ATOM      7  O   LIG    1        3.424  -7.511   0.958  0.00  0.00    -0.540 OA
ATOM      8  C   LIG    1        3.609  -4.343  -0.631  0.00  0.00    +0.310 C 
ENDROOT
BRANCH   8   9
ATOM      9  C   LIG    1        3.753  -4.219  -2.126  0.00  0.00    +0.050 A 
ATOM     10  C   LIG    1        4.671  -3.470  -2.780  0.00  0.00    -0.100 A 
ATOM     11  C   LIG    1        4.462  -3.635  -4.153  0.00  0.00    +0.240 A 
ATOM     12  N   LIG    1        3.455  -4.454  -4.318  0.00  0.00    -0.280 NA
ATOM     13  N   LIG    1        2.994  -4.840  -3.053  0.00  0.00    -0.350 N 
ATOM     14  C   LIG    1        1.882  -5.755  -2.784  0.00  0.00    +0.350 C 
ENDBRANCH   8   9
BRANCH   1  16
ATOM     15  C   LIG    1        0.864  -1.897  -0.613  0.00  0.00    +0.570 C 
ATOM     16  N   LIG    1        2.079  -2.445  -0.415  0.00  0.00    -0.710 N 
ATOM     17  H   LIG    1        2.869  -1.882  -0.402  0.00  0.00    +0.410 HD
ATOM     18  O   LIG    1       -0.126  -2.602  -0.629  0.00  0.00    -0.520 OA
BRANCH  15  21
ATOM     19  C   LIG    1        1.691   1.758  -0.986  0.00  0.00    +0.330 A 
ATOM     20  C   LIG    1        1.859   0.393  -0.796  0.00  0.00    -0.020 A 
ATOM     21  C   LIG    1        0.735  -0.434  -0.810  0.00  0.00    -0.050 A 
ATOM     22  C   LIG    1       -0.518   0.155  -1.017  0.00  0.00    +0.000 A 
ATOM     23  C   LIG    1       -0.596   1.521  -1.198  0.00  0.00    +0.170 A 
ATOM     24  C   LIG    1       -1.940   2.163  -1.427  0.00  0.00    +0.140 C 
ATOM     25  N   LIG    1        0.488   2.272  -1.178  0.00  0.00    -0.520 NA
BRANCH  19  27
ATOM     26  C   LIG    1        2.538   3.970  -1.176  0.00  0.00    +0.260 C 
ATOM     27  O   LIG    1        2.775   2.575  -0.975  0.00  0.00    -0.300 OA
ENDBRANCH  19  27
ENDBRANCH  15  21
ENDBRANCH   1  16
TORSDOF 4
