REMARK  Name = ZINCkj000005jJh4.0
REMARK                            x       y       z     vdW  Elec       q    Type
REMARK                         _______ _______ _______ _____ _____    ______ ____
ROOT
ATOM      1  C   LIG    1        3.623   1.937  -0.422  0.00  0.00    +0.180 C 
ATOM      2  C   LIG    1        2.476   1.012  -0.013  0.00  0.00    +0.150 C 
ATOM      3  C   LIG    1        1.180   1.782   0.000  0.00  0.00    -0.090 A 
ATOM      4  C   LIG    1       -0.013   1.076   0.008  0.00  0.00    +0.040 A 
ATOM      5  C   LIG    1       -1.220   1.747   0.017  0.00  0.00    +0.050 A 
ATOM      6  C   LIG    1       -1.238   3.129   0.032  0.00  0.00    +0.040 A 
ATOM      7  C   LIG    1       -0.050   3.833   0.024  0.00  0.00    +0.050 A 
ATOM      8  C   LIG    1        1.163   3.161   0.007  0.00  0.00    -0.140 A 
ATOM      9  C   LIG    1        2.433   3.969  -0.005  0.00  0.00    +0.340 C 
ATOM     10  N   LIG    1        3.572   3.146   0.414  0.00  0.00    -0.490 N 
ATOM     11  H   LIG    1        4.427   3.670   0.303  0.00  0.00    +0.440 HD
ATOM     12  H   LIG    1        3.460   2.882   1.382  0.00  0.00    +0.440 HD
ENDROOT
BRANCH   1  15
ATOM     13  N   LIG    1        5.200   0.085  -0.871  0.00  0.00    -0.690 N 
ATOM     14  H   LIG    1        4.540  -0.288  -1.477  0.00  0.00    +0.410 HD
ATOM     15  C   LIG    1        4.939   1.233  -0.215  0.00  0.00    +0.510 C 
ATOM     16  O   LIG    1        5.764   1.700   0.541  0.00  0.00    -0.530 OA
BRANCH  13  18
ATOM     17  C   LIG    1        6.389  -1.497   0.566  0.00  0.00    +0.040 C 
ATOM     18  C   LIG    1        6.479  -0.599  -0.670  0.00  0.00    +0.260 C 
BRANCH  18  19
ATOM     19  C   LIG    1        6.800  -1.453  -1.899  0.00  0.00    +0.150 C 
ATOM     20  C   LIG    1        6.896  -0.566  -3.160  0.00  0.00    +0.000 C 
ATOM     21  C   LIG    1        6.273  -1.433  -4.277  0.00  0.00    +0.000 C 
ATOM     22  C   LIG    1        5.874  -2.741  -3.558  0.00  0.00    +0.210 C 
ATOM     23  O   LIG    1        5.716  -2.367  -2.172  0.00  0.00    -0.370 OA
ENDBRANCH  18  19
ENDBRANCH  13  18
ENDBRANCH   1  15
TORSDOF 3
