REMARK  Name = ZINCrg00001JduZ4.0
REMARK                            x       y       z     vdW  Elec       q    Type
REMARK                         _______ _______ _______ _____ _____    ______ ____
ROOT
ATOM      1  C   LIG    1       -5.202   4.858  -0.532  0.00  0.00    +0.230 C 
ATOM      2  C   LIG    1       -5.002   4.386  -1.973  0.00  0.00    +0.030 C 
ENDROOT
BRANCH   1   3
ATOM      3  N   LIG    1       -6.102   6.014  -0.517  0.00  0.00    -0.700 N 
ATOM      4  H   LIG    1       -5.738   6.913  -0.516  0.00  0.00    +0.410 HD
ATOM      5  C   LIG    1       -7.437   5.828  -0.505  0.00  0.00    +0.530 C 
ATOM      6  O   LIG    1       -7.893   4.704  -0.507  0.00  0.00    -0.530 OA
BRANCH   5   7
ATOM      7  C   LIG    1       -8.363   7.017  -0.490  0.00  0.00    +0.000 C 
ATOM      8  C   LIG    1       -9.815   6.531  -0.489  0.00  0.00    +0.060 C 
ATOM      9  C   LIG    1      -10.726   7.729  -0.198  0.00  0.00    +0.030 C 
ATOM     10  C   LIG    1      -10.489   8.186   1.242  0.00  0.00    +0.220 C 
ATOM     11  N   LIG    1       -9.064   8.371   1.490  0.00  0.00    -0.700 N 
ATOM     12  H   LIG    1       -8.802   8.916   2.248  0.00  0.00    +0.400 HD
ATOM     13  C   LIG    1       -8.099   7.839   0.739  0.00  0.00    +0.530 C 
ATOM     14  O   LIG    1       -6.947   8.029   1.065  0.00  0.00    -0.550 OA
BRANCH  10  15
ATOM     15  C   LIG    1      -11.219   9.510   1.476  0.00  0.00    -0.020 C 
ATOM     16  C   LIG    1      -10.667  10.572   0.522  0.00  0.00    +0.030 C 
ATOM     17  C   LIG    1      -11.005   9.962   2.922  0.00  0.00    +0.020 C 
ENDBRANCH  10  15
ENDBRANCH   5   7
ENDBRANCH   1   3
BRANCH   1  18
ATOM     18  C   LIG    1       -3.852   5.256   0.067  0.00  0.00    +0.230 C 
ATOM     19  C   LIG    1       -4.052   5.728   1.509  0.00  0.00    +0.030 C 
BRANCH  18  21
ATOM     20  C   LIG    1       -1.617   4.285   0.041  0.00  0.00    +0.610 C 
ATOM     21  N   LIG    1       -2.952   4.100   0.052  0.00  0.00    -0.710 N 
ATOM     22  H   LIG    1       -3.316   3.201   0.051  0.00  0.00    +0.410 HD
ATOM     23  O   LIG    1       -1.159   5.412   0.042  0.00  0.00    -0.540 OA
BRANCH  20  27
ATOM     24  N   LIG    1        1.083   1.880   0.002  0.00  0.00    -0.460 N 
ATOM     25  C   LIG    1       -0.013   1.076   0.008  0.00  0.00    +0.400 A 
ATOM     26  N   LIG    1       -1.083   1.817   0.017  0.00  0.00    -0.460 NA
ATOM     27  C   LIG    1       -0.712   3.123   0.026  0.00  0.00    -0.070 A 
ATOM     28  C   LIG    1        0.652   3.163   0.013  0.00  0.00    +0.230 A 
BRANCH  24  30
ATOM     29  C   LIG    1        2.952   1.291  -1.461  0.00  0.00    +0.040 C 
ATOM     30  C   LIG    1        2.479   1.437  -0.013  0.00  0.00    +0.300 C 
ENDBRANCH  24  30
ENDBRANCH  20  27
ENDBRANCH  18  21
ENDBRANCH   1  18
TORSDOF 7
