REMARK  Name = ZINCvU0000000Jc6.0
REMARK                            x       y       z     vdW  Elec       q    Type
REMARK                         _______ _______ _______ _____ _____    ______ ____
ROOT
ATOM      1  C   LIG    1       -6.250  -2.302   0.947  0.00  0.00    -0.260 A 
ATOM      2  C   LIG    1       -7.310  -3.143   0.641  0.00  0.00    +0.310 A 
ATOM      3  N   LIG    1       -6.801  -4.269   0.113  0.00  0.00    -0.300 N 
ATOM      4  N   LIG    1       -5.407  -4.177   0.060  0.00  0.00    -0.270 NA
ATOM      5  C   LIG    1       -5.030  -3.016   0.545  0.00  0.00    +0.190 A 
ENDROOT
BRANCH   3   6
ATOM      6  C   LIG    1       -7.553  -5.368  -0.319  0.00  0.00    +0.140 A 
ATOM      7  C   LIG    1       -8.938  -5.349  -0.211  0.00  0.00    +0.000 A 
ATOM      8  C   LIG    1       -9.677  -6.432  -0.644  0.00  0.00    +0.050 A 
ATOM      9  C   LIG    1       -9.040  -7.540  -1.173  0.00  0.00    +0.010 A 
ATOM     10  C   LIG    1       -7.661  -7.564  -1.276  0.00  0.00    +0.040 A 
ATOM     11  C   LIG    1       -6.916  -6.481  -0.851  0.00  0.00    +0.030 A 
ENDBRANCH   3   6
BRANCH   5  12
ATOM     12  C   LIG    1       -3.639  -2.523   0.669  0.00  0.00    -0.070 A 
ATOM     13  C   LIG    1       -2.606  -3.412   0.967  0.00  0.00    +0.100 A 
ATOM     14  C   LIG    1       -1.312  -2.949   1.082  0.00  0.00    -0.010 A 
ATOM     15  C   LIG    1       -1.037  -1.600   0.901  0.00  0.00    +0.150 A 
ATOM     16  C   LIG    1       -2.063  -0.712   0.610  0.00  0.00    -0.070 A 
ATOM     17  C   LIG    1       -3.358  -1.169   0.488  0.00  0.00    +0.080 A 
BRANCH  15  18
ATOM     18  O   LIG    1        0.239  -1.148   1.016  0.00  0.00    -0.310 OA
BRANCH  18  19
ATOM     19  C   LIG    1        0.451   0.252   0.818  0.00  0.00    +0.200 C 
BRANCH  19  20
ATOM     20  C   LIG    1        1.938   0.571   0.986  0.00  0.00    -0.020 C 
ATOM     21  C   LIG    1        2.148   2.083   0.898  0.00  0.00    +0.040 C 
ATOM     22  C   LIG    1        2.736  -0.121  -0.122  0.00  0.00    +0.020 C 
ENDBRANCH  19  20
ENDBRANCH  18  19
ENDBRANCH  15  18
ENDBRANCH   5  12
BRANCH   1  24
ATOM     23  C   LIG    1       -7.527  -0.324   1.523  0.00  0.00    -0.160 C 
ATOM     24  C   LIG    1       -6.329  -1.011   1.526  0.00  0.00    +0.310 C 
BRANCH  23  25
ATOM     25  C   LIG    1       -7.649   0.943   2.255  0.00  0.00    +0.530 C 
ATOM     26  O   LIG    1       -6.695   1.387   2.865  0.00  0.00    -0.500 OA
BRANCH  25  27
ATOM     27  O   LIG    1       -8.819   1.614   2.252  0.00  0.00    -0.350 OA
BRANCH  27  29
ATOM     28  C   LIG    1      -10.264   3.471   2.878  0.00  0.00    +0.060 C 
ATOM     29  C   LIG    1       -8.867   2.859   2.998  0.00  0.00    +0.200 C 
ENDBRANCH  27  29
ENDBRANCH  25  27
ENDBRANCH  23  25
BRANCH  23  30
ATOM     30  C   LIG    1       -8.650  -0.847   0.805  0.00  0.00    +0.270 C 
ATOM     31  N   LIG    1       -9.541  -1.261   0.236  0.00  0.00    -0.420 NA
ENDBRANCH  23  30
ENDBRANCH   1  24
TORSDOF 10
