REMARK  Name = ZINCpe000000YeLq.0
REMARK                            x       y       z     vdW  Elec       q    Type
REMARK                         _______ _______ _______ _____ _____    ______ ____
ROOT
ATOM      1  N   LIG    1        6.390   1.841   0.799  0.00  0.00    -0.620 N 
ATOM      2  C   LIG    1        5.638   2.093   2.036  0.00  0.00    +0.290 C 
ATOM      3  C   LIG    1        4.292   1.366   1.952  0.00  0.00    +0.020 C 
ATOM      4  C   LIG    1        3.564   1.796   0.676  0.00  0.00    +0.240 C 
ATOM      5  C   LIG    1        4.400   1.407  -0.546  0.00  0.00    +0.010 C 
ATOM      6  C   LIG    1        5.748   2.134  -0.489  0.00  0.00    +0.310 C 
ENDROOT
BRANCH   1  11
ATOM      7  C   LIG    1       11.556  -0.223   1.049  0.00  0.00    +0.330 C 
ATOM      8  N   LIG    1       10.201   0.328   0.970  0.00  0.00    -0.560 N 
ATOM      9  C   LIG    1        9.877   1.162  -0.038  0.00  0.00    +0.560 A 
ATOM     10  C   LIG    1        8.576   1.684  -0.114  0.00  0.00    -0.210 A 
ATOM     11  C   LIG    1        7.666   1.342   0.846  0.00  0.00    +0.470 A 
ATOM     12  N   LIG    1        8.040   0.489   1.856  0.00  0.00    -0.650 N 
ATOM     13  H   LIG    1        7.397   0.238   2.539  0.00  0.00    +0.430 HD
ATOM     14  O   LIG    1       10.707   1.456  -0.881  0.00  0.00    -0.530 OA
ATOM     15  C   LIG    1        9.291  -0.003   1.904  0.00  0.00    +0.710 A 
ATOM     16  O   LIG    1        9.605  -0.757   2.804  0.00  0.00    -0.540 OA
ENDBRANCH   1  11
BRANCH   4  17
ATOM     17  N   LIG    1        2.262   1.128   0.608  0.00  0.00    -0.730 N 
ATOM     18  H   LIG    1        2.123   0.287   1.071  0.00  0.00    +0.400 HD
ATOM     19  C   LIG    1        1.256   1.683  -0.097  0.00  0.00    +0.550 C 
ATOM     20  O   LIG    1        1.429   2.735  -0.676  0.00  0.00    -0.530 OA
BRANCH  19  21
ATOM     21  C   LIG    1       -0.083   0.996  -0.167  0.00  0.00    -0.050 C 
ATOM     22  C   LIG    1       -0.720   0.828  -1.548  0.00  0.00    -0.080 C 
ATOM     23  C   LIG    1        0.052   1.369  -2.752  0.00  0.00    +0.070 C 
ATOM     24  C   LIG    1       -2.244   0.930  -1.640  0.00  0.00    +0.060 C 
ATOM     25  C   LIG    1       -0.136  -0.386  -0.821  0.00  0.00    -0.110 C 
ATOM     26  C   LIG    1       -1.119  -1.405  -0.242  0.00  0.00    +0.070 C 
ATOM     27  C   LIG    1        1.176  -0.965  -1.355  0.00  0.00    +0.060 C 
ENDBRANCH  19  21
ENDBRANCH   4  17
TORSDOF 3
