REMARK  Name = ZINCqH0000008w8V.0
REMARK                            x       y       z     vdW  Elec       q    Type
REMARK                         _______ _______ _______ _____ _____    ______ ____
ROOT
ATOM      1  C   LIG    1        1.350  -2.339   0.752  0.00  0.00    +0.130 A 
ATOM      2  N   LIG    1        0.284  -3.002   0.362  0.00  0.00    -0.240 NA
ATOM      3  N   LIG    1        0.459  -4.266   0.529  0.00  0.00    -0.240 NA
ATOM      4  C   LIG    1        1.653  -4.485   1.048  0.00  0.00    +0.210 A 
ATOM      5  C   LIG    1        2.345  -5.652   1.431  0.00  0.00    +0.010 A 
ATOM      6  C   LIG    1        3.598  -5.541   1.949  0.00  0.00    +0.120 A 
ATOM      7  C   LIG    1        4.185  -4.270   2.096  0.00  0.00    -0.190 A 
ATOM      8  C   LIG    1        3.514  -3.161   1.727  0.00  0.00    +0.340 A 
ATOM      9 CL   LIG    1        1.608  -7.213   1.244  0.00  0.00    +0.010 Cl
ATOM     10  N   LIG    1        2.254  -3.254   1.204  0.00  0.00    -0.380 N 
ENDROOT
BRANCH   7  11
ATOM     11  C   LIG    1        5.573  -4.149   2.671  0.00  0.00    +0.530 C 
ATOM     12  F   LIG    1        6.163  -2.964   2.219  0.00  0.00    -0.170 F 
ATOM     13  F   LIG    1        6.345  -5.240   2.259  0.00  0.00    -0.160 F 
ATOM     14  F   LIG    1        5.500  -4.130   4.068  0.00  0.00    -0.160 F 
ENDBRANCH   7  11
BRANCH   1  15
ATOM     15  S   LIG    1        1.567  -0.592   0.707  0.00  0.00    +0.090 S 
BRANCH  15  17
ATOM     16  C   LIG    1       -0.130  -0.508  -1.437  0.00  0.00    +0.100 C 
ATOM     17  C   LIG    1        0.002  -0.004   0.002  0.00  0.00    +0.020 C 
BRANCH  17  18
ATOM     18  C   LIG    1       -0.018   1.503   0.010  0.00  0.00    +0.540 C 
ATOM     19  N   LIG    1       -1.195   2.161   0.019  0.00  0.00    -0.720 N 
ATOM     20  H   LIG    1       -2.028   1.664   0.021  0.00  0.00    +0.410 HD
ATOM     21  O   LIG    1        1.024   2.123   0.004  0.00  0.00    -0.520 OA
BRANCH  19  22
ATOM     22  C   LIG    1       -1.214   3.626   0.028  0.00  0.00    +0.390 C 
BRANCH  22  23
ATOM     23  C   LIG    1       -2.642   4.109   0.037  0.00  0.00    -0.050 A 
ATOM     24  C   LIG    1       -3.384   4.350   1.133  0.00  0.00    -0.030 A 
ATOM     25  C   LIG    1       -4.651   4.785   0.682  0.00  0.00    -0.070 A 
ATOM     26  C   LIG    1       -4.611   4.777  -0.662  0.00  0.00    +0.190 A 
ATOM     27  O   LIG    1       -3.391   4.366  -1.048  0.00  0.00    -0.170 OA
ENDBRANCH  22  23
ENDBRANCH  19  22
ENDBRANCH  17  18
ENDBRANCH  15  17
ENDBRANCH   1  15
TORSDOF 6
