REMARK  Name = ZINCpk00000KfLS8.0
REMARK                            x       y       z     vdW  Elec       q    Type
REMARK                         _______ _______ _______ _____ _____    ______ ____
ROOT
ATOM      1  N   LIG    1       -1.343   3.436   3.535  0.00  0.00    -0.650 N 
ATOM      2  H   LIG    1       -1.230   2.513   3.813  0.00  0.00    +0.410 HD
ATOM      3  C   LIG    1       -1.631   4.384   4.449  0.00  0.00    +0.710 C 
ATOM      4  N   LIG    1       -1.762   4.050   5.748  0.00  0.00    -0.740 N 
ATOM      5  H   LIG    1       -1.649   3.127   6.026  0.00  0.00    +0.400 HD
ATOM      6  O   LIG    1       -1.772   5.541   4.102  0.00  0.00    -0.580 OA
ENDROOT
BRANCH   1  13
ATOM      7  C   LIG    1       -0.158   0.942  -2.485  0.00  0.00    +0.060 C 
ATOM      8  C   LIG    1       -0.752   1.593  -1.234  0.00  0.00    -0.060 C 
ATOM      9  C   LIG    1       -0.013   1.086   0.008  0.00  0.00    +0.240 C 
ATOM     10  N   LIG    1       -0.700   1.560   1.220  0.00  0.00    -0.600 N 
ATOM     11  H   LIG    1       -1.566   1.062   1.362  0.00  0.00    +0.360 HD
ATOM     12  C   LIG    1       -0.918   2.936   1.152  0.00  0.00    +0.220 A 
ATOM     13  C   LIG    1       -1.205   3.786   2.174  0.00  0.00    +0.020 A 
ATOM     14  C   LIG    1       -1.340   5.072   1.633  0.00  0.00    +0.270 A 
ATOM     15  N   LIG    1       -1.143   5.002   0.339  0.00  0.00    -0.280 NA
ATOM     16  N   LIG    1       -0.876   3.674   0.007  0.00  0.00    -0.390 N 
ATOM     17  C   LIG    1       -0.595   3.118  -1.322  0.00  0.00    +0.330 C 
ENDBRANCH   1  13
BRANCH   4  18
ATOM     18  C   LIG    1       -2.075   5.080   6.742  0.00  0.00    +0.290 C 
BRANCH  18  19
ATOM     19  C   LIG    1       -2.168   4.440   8.128  0.00  0.00    +0.270 C 
BRANCH  19  20
ATOM     20  N   LIG    1       -2.481   5.470   9.122  0.00  0.00    -0.710 N 
ATOM     21  H   LIG    1       -2.593   6.393   8.845  0.00  0.00    +0.410 HD
BRANCH  20  22
ATOM     22  C   LIG    1       -2.616   5.127  10.458  0.00  0.00    +0.430 A 
ATOM     23  C   LIG    1       -2.452   3.798  10.845  0.00  0.00    -0.100 A 
ATOM     24  C   LIG    1       -2.586   3.462  12.165  0.00  0.00    +0.160 A 
ATOM     25  C   LIG    1       -2.886   4.477  13.087  0.00  0.00    -0.150 A 
ATOM     26  C   LIG    1       -3.037   5.787  12.628  0.00  0.00    +0.380 A 
ATOM     27  N   LIG    1       -2.894   6.067  11.350  0.00  0.00    -0.540 NA
BRANCH  25  28
ATOM     28  C   LIG    1       -3.035   4.173  14.479  0.00  0.00    +0.260 C 
ATOM     29  N   LIG    1       -3.154   3.932  15.582  0.00  0.00    -0.420 NA
ENDBRANCH  25  28
ENDBRANCH  20  22
ENDBRANCH  19  20
ENDBRANCH  18  19
ENDBRANCH   4  18
TORSDOF 6
