REMARK  Name = ZINCpk00000y6yuI.0
REMARK                            x       y       z     vdW  Elec       q    Type
REMARK                         _______ _______ _______ _____ _____    ______ ____
ROOT
ATOM      1  C   LIG    1       -4.163   0.412  -0.409  0.00  0.00    +0.250 C 
ATOM      2  C   LIG    1       -4.173  -1.092  -0.112  0.00  0.00    +0.300 C 
ATOM      3  N   LIG    1       -3.347  -1.334   1.082  0.00  0.00    -0.590 N 
ATOM      4  C   LIG    1       -1.992  -0.760   1.114  0.00  0.00    +0.280 C 
ATOM      5  C   LIG    1       -2.089   0.727   0.757  0.00  0.00    +0.230 C 
ATOM      6  O   LIG    1       -2.811   0.872  -0.469  0.00  0.00    -0.360 OA
ENDROOT
BRANCH   3   7
ATOM      7  C   LIG    1       -3.832  -2.083   2.149  0.00  0.00    +0.420 A 
ATOM      8  N   LIG    1       -3.117  -2.191   3.244  0.00  0.00    -0.340 NA
ATOM      9  N   LIG    1       -3.588  -2.933   4.328  0.00  0.00    -0.270 N 
ATOM     10  C   LIG    1       -4.804  -3.567   4.252  0.00  0.00    +0.110 A 
ATOM     11  C   LIG    1       -5.568  -3.456   3.074  0.00  0.00    +0.200 A 
ATOM     12  N   LIG    1       -4.987  -4.188   5.406  0.00  0.00    -0.250 NA
ATOM     13  N   LIG    1       -3.971  -3.973   6.168  0.00  0.00    -0.260 NA
ATOM     14  C   LIG    1       -3.097  -3.215   5.553  0.00  0.00    +0.220 A 
ATOM     15  C   LIG    1       -5.083  -2.722   2.038  0.00  0.00    -0.030 A 
BRANCH  14  16
ATOM     16  C   LIG    1       -1.780  -2.743   6.113  0.00  0.00    +0.020 C 
ATOM     17  C   LIG    1       -1.759  -1.213   6.146  0.00  0.00    +0.050 C 
ATOM     18  C   LIG    1       -0.639  -3.250   5.230  0.00  0.00    +0.050 C 
ATOM     19  C   LIG    1       -1.605  -3.285   7.533  0.00  0.00    +0.080 C 
ENDBRANCH  14  16
ENDBRANCH   3   7
BRANCH   1  24
ATOM     20  C   LIG    1       -7.243   2.166  -4.010  0.00  0.00    +0.200 C 
ATOM     21  C   LIG    1       -6.160   1.419  -3.273  0.00  0.00    +0.190 A 
ATOM     22  N   LIG    1       -5.318   0.568  -3.792  0.00  0.00    -0.290 NA
ATOM     23  N   LIG    1       -4.534   0.121  -2.876  0.00  0.00    -0.250 NA
ATOM     24  C   LIG    1       -4.841   0.667  -1.731  0.00  0.00    +0.170 A 
ATOM     25  N   LIG    1       -5.881   1.507  -1.950  0.00  0.00    -0.570 N 
ATOM     26  H   LIG    1       -6.335   2.058  -1.294  0.00  0.00    +0.430 HD
ENDBRANCH   1  24
TORSDOF 3
