REMARK  Name = ZINCpk00000y6yuI.1
REMARK                            x       y       z     vdW  Elec       q    Type
REMARK                         _______ _______ _______ _____ _____    ______ ____
ROOT
ATOM      1  C   LIG    1       -1.583   4.247   0.025  0.00  0.00    +0.280 C 
ATOM      2  C   LIG    1       -2.211   4.457  -1.357  0.00  0.00    +0.290 C 
ATOM      3  N   LIG    1       -3.188   5.553  -1.262  0.00  0.00    -0.590 N 
ATOM      4  C   LIG    1       -4.192   5.493  -0.188  0.00  0.00    +0.270 C 
ATOM      5  C   LIG    1       -3.468   5.233   1.138  0.00  0.00    +0.230 C 
ATOM      6  O   LIG    1       -2.622   4.089   0.995  0.00  0.00    -0.360 OA
ENDROOT
BRANCH   3   7
ATOM      7  C   LIG    1       -3.162   6.615  -2.159  0.00  0.00    +0.420 A 
ATOM      8  N   LIG    1       -2.189   6.699  -3.037  0.00  0.00    -0.340 NA
ATOM      9  N   LIG    1       -2.145   7.757  -3.947  0.00  0.00    -0.270 N 
ATOM     10  C   LIG    1       -3.122   8.721  -3.930  0.00  0.00    +0.110 A 
ATOM     11  C   LIG    1       -4.165   8.630  -2.988  0.00  0.00    +0.190 A 
ATOM     12  N   LIG    1       -2.826   9.584  -4.888  0.00  0.00    -0.250 NA
ATOM     13  N   LIG    1       -1.745   9.209  -5.478  0.00  0.00    -0.260 NA
ATOM     14  C   LIG    1       -1.296   8.103  -4.938  0.00  0.00    +0.220 A 
ATOM     15  C   LIG    1       -4.183   7.585  -2.119  0.00  0.00    -0.030 A 
BRANCH  14  16
ATOM     16  C   LIG    1       -0.057   7.351  -5.350  0.00  0.00    +0.020 C 
ATOM     17  C   LIG    1        0.910   7.274  -4.167  0.00  0.00    +0.050 C 
ATOM     18  C   LIG    1        0.619   8.081  -6.514  0.00  0.00    +0.080 C 
ATOM     19  C   LIG    1       -0.440   5.937  -5.789  0.00  0.00    +0.050 C 
ENDBRANCH  14  16
ENDBRANCH   3   7
BRANCH   1  23
ATOM     20  C   LIG    1        2.482   1.323  -0.057  0.00  0.00    +0.210 C 
ATOM     21  C   LIG    1        1.039   1.759  -0.031  0.00  0.00    +0.290 A 
ATOM     22  N   LIG    1        0.610   2.995  -0.018  0.00  0.00    -0.530 NA
ATOM     23  C   LIG    1       -0.722   3.010   0.005  0.00  0.00    +0.230 A 
ATOM     24  N   LIG    1       -1.161   1.779   0.000  0.00  0.00    -0.280 NA
ATOM     25  N   LIG    1       -0.031   0.945  -0.017  0.00  0.00    -0.480 N 
ATOM     26  H   LIG    1       -0.024  -0.025  -0.023  0.00  0.00    +0.440 HD
ENDBRANCH   1  23
TORSDOF 3
