REMARK  Name = ZINCkj000005jHES.0
REMARK                            x       y       z     vdW  Elec       q    Type
REMARK                         _______ _______ _______ _____ _____    ______ ____
ROOT
ATOM      1  N   LIG    1       -3.268   4.018   4.574  0.00  0.00    -0.750 N 
ATOM      2  H   LIG    1       -3.232   3.755   5.507  0.00  0.00    +0.390 HD
ATOM      3  C   LIG    1       -2.583   3.319   3.649  0.00  0.00    +0.710 C 
ATOM      4  N   LIG    1       -1.933   2.192   4.001  0.00  0.00    -0.630 N 
ATOM      5  C   LIG    1       -1.868   1.773   5.408  0.00  0.00    +0.250 C 
ATOM      6  C   LIG    1       -2.371   0.330   5.516  0.00  0.00    +0.020 C 
ATOM      7  C   LIG    1       -1.572  -0.557   4.559  0.00  0.00    +0.020 C 
ATOM      8  C   LIG    1       -1.784  -0.079   3.121  0.00  0.00    -0.020 C 
ATOM      9  C   LIG    1       -1.275   1.359   2.984  0.00  0.00    +0.310 C 
ATOM     10  O   LIG    1       -2.551   3.704   2.496  0.00  0.00    -0.580 OA
ENDROOT
BRANCH   1  12
ATOM     11  C   LIG    1       -5.452   4.708   3.715  0.00  0.00    +0.040 C 
ATOM     12  C   LIG    1       -4.069   5.177   4.172  0.00  0.00    +0.280 C 
BRANCH  12  13
ATOM     13  C   LIG    1       -4.220   6.130   5.360  0.00  0.00    -0.090 C 
ATOM     14  C   LIG    1       -2.837   6.599   5.816  0.00  0.00    +0.070 C 
ATOM     15  C   LIG    1       -4.918   5.403   6.511  0.00  0.00    +0.050 C 
BRANCH  13  16
ATOM     16  C   LIG    1       -5.057   7.340   4.939  0.00  0.00    +0.280 C 
BRANCH  16  17
ATOM     17  N   LIG    1       -5.101   8.311   6.041  0.00  0.00    -0.390 N 
ATOM     18  C   LIG    1       -6.311   9.135   5.919  0.00  0.00    +0.310 C 
ATOM     19  C   LIG    1       -3.913   9.174   5.981  0.00  0.00    +0.300 C 
ATOM     20  H   LIG    1       -5.116   7.820   6.922  0.00  0.00    +0.420 HD
ENDBRANCH  16  17
ENDBRANCH  13  16
ENDBRANCH  12  13
ENDBRANCH   1  12
BRANCH   8  21
ATOM     21  C   LIG    1       -1.012  -0.988   2.162  0.00  0.00    +0.180 C 
BRANCH  21  22
ATOM     22  O   LIG    1       -1.301  -0.612   0.814  0.00  0.00    -0.570 OA
ATOM     23  H   LIG    1       -0.844  -1.147   0.150  0.00  0.00    +0.380 HD
ENDBRANCH  21  22
ENDBRANCH   8  21
TORSDOF 6
