REMARK  Name = ZINCvU00000005S7.0
REMARK                            x       y       z     vdW  Elec       q    Type
REMARK                         _______ _______ _______ _____ _____    ______ ____
ROOT
ATOM      1  C   LIG    1        0.226   0.377  -2.654  0.00  0.00    +0.020 A 
ATOM      2  C   LIG    1        0.514  -0.935  -2.935  0.00  0.00    -0.220 A 
ATOM      3  C   LIG    1        1.386  -0.833  -4.124  0.00  0.00    +0.080 A 
ATOM      4  N   LIG    1        1.491   0.451  -4.361  0.00  0.00    -0.320 NA
ATOM      5  O   LIG    1        0.865   1.111  -3.568  0.00  0.00    +0.110 OA
ENDROOT
BRANCH   2   6
ATOM      6  C   LIG    1        0.066  -2.146  -2.227  0.00  0.00    +0.620 C 
ATOM      7  N   LIG    1        0.855  -2.712  -1.292  0.00  0.00    -0.610 N 
ATOM      8  C   LIG    1        2.198  -2.271  -0.849  0.00  0.00    +0.270 C 
ATOM      9  C   LIG    1        2.189  -2.489   0.683  0.00  0.00    +0.080 C 
ATOM     10  C   LIG    1        1.124  -3.579   0.923  0.00  0.00    -0.070 C 
ATOM     11  C   LIG    1        1.760  -4.816   1.562  0.00  0.00    +0.040 C 
ATOM     12  C   LIG    1        0.001  -3.040   1.812  0.00  0.00    +0.040 C 
ATOM     13  C   LIG    1        0.580  -3.920  -0.481  0.00  0.00    +0.270 C 
ATOM     14  O   LIG    1       -1.018  -2.634  -2.484  0.00  0.00    -0.510 OA
BRANCH   9  15
ATOM     15  C   LIG    1        3.540  -2.965   1.152  0.00  0.00    -0.220 A 
ATOM     16  C   LIG    1        4.199  -2.533   2.252  0.00  0.00    +0.230 A 
ATOM     17  N   LIG    1        5.369  -3.202   2.320  0.00  0.00    -0.370 N 
ATOM     18  N   LIG    1        5.431  -4.073   1.225  0.00  0.00    -0.290 NA
ATOM     19  C   LIG    1        6.393  -3.044   3.356  0.00  0.00    +0.360 C 
ATOM     20  C   LIG    1        4.332  -3.934   0.528  0.00  0.00    +0.240 A 
ENDBRANCH   9  15
ENDBRANCH   2   6
BRANCH   3  21
ATOM     21  C   LIG    1        2.011  -1.943  -4.882  0.00  0.00    -0.010 A 
ATOM     22  C   LIG    1        3.399  -2.072  -4.918  0.00  0.00    -0.000 A 
ATOM     23  C   LIG    1        3.975  -3.112  -5.622  0.00  0.00    +0.040 A 
ATOM     24  C   LIG    1        3.179  -4.017  -6.300  0.00  0.00    +0.070 A 
ATOM     25  C   LIG    1        1.802  -3.892  -6.272  0.00  0.00    +0.040 A 
ATOM     26 CL   LIG    1        4.401  -0.933  -4.074  0.00  0.00    -0.040 Cl
ATOM     27  C   LIG    1        1.213  -2.859  -5.567  0.00  0.00    -0.000 A 
ATOM     28 CL   LIG    1       -0.515  -2.703  -5.535  0.00  0.00    -0.030 Cl
ENDBRANCH   3  21
BRANCH   1  29
ATOM     29  C   LIG    1       -0.638   0.889  -1.531  0.00  0.00    +0.150 C 
BRANCH  29  31
ATOM     30  C   LIG    1       -0.650   1.647   0.850  0.00  0.00    +0.030 C 
ATOM     31  C   LIG    1        0.227   1.127  -0.291  0.00  0.00    +0.020 C 
ENDBRANCH  29  31
ENDBRANCH   1  29
TORSDOF 5
