REMARK  Name = ZINCqH0000037oC2.0
REMARK                            x       y       z     vdW  Elec       q    Type
REMARK                         _______ _______ _______ _____ _____    ______ ____
ROOT
ATOM      1  C   LIG    1        7.254   3.317  -5.737  0.00  0.00    +0.060 C 
ATOM      2  C   LIG    1        8.167   2.090  -5.786  0.00  0.00    +0.220 C 
ATOM      3  C   LIG    1        9.597   2.518  -6.159  0.00  0.00    +0.040 C 
ATOM      4  C   LIG    1       10.469   1.268  -6.274  0.00  0.00    +0.080 C 
ATOM      5  C   LIG    1       10.334   0.415  -5.040  0.00  0.00    -0.110 A 
ATOM      6  C   LIG    1       11.327  -0.506  -4.750  0.00  0.00    +0.030 A 
ATOM      7  C   LIG    1       11.227  -1.310  -3.631  0.00  0.00    -0.020 A 
ATOM      8  C   LIG    1       10.134  -1.198  -2.791  0.00  0.00    +0.030 A 
ATOM      9  C   LIG    1        9.142  -0.280  -3.071  0.00  0.00    +0.020 A 
ATOM     10  C   LIG    1        9.240   0.530  -4.197  0.00  0.00    +0.150 A 
ATOM     11  N   LIG    1        8.224   1.458  -4.461  0.00  0.00    -0.550 N 
ATOM     12  C   LIG    1        7.311   1.762  -3.518  0.00  0.00    +0.540 C 
ATOM     13  O   LIG    1        7.486   1.412  -2.369  0.00  0.00    -0.500 OA
ENDROOT
BRANCH  12  14
ATOM     14  C   LIG    1        6.072   2.535  -3.889  0.00  0.00    +0.130 C 
BRANCH  14  15
ATOM     15  S   LIG    1        4.885   2.465  -2.524  0.00  0.00    +0.070 S 
BRANCH  15  16
ATOM     16  C   LIG    1        3.574   3.422  -3.210  0.00  0.00    +0.150 A 
ATOM     17  N   LIG    1        3.555   3.986  -4.395  0.00  0.00    -0.290 NA
ATOM     18  N   LIG    1        2.446   4.611  -4.566  0.00  0.00    -0.280 NA
ATOM     19  C   LIG    1        1.691   4.481  -3.511  0.00  0.00    +0.400 A 
ATOM     20  N   LIG    1        2.380   3.715  -2.609  0.00  0.00    -0.420 N 
BRANCH  20  21
ATOM     21  C   LIG    1        1.954   3.320  -1.333  0.00  0.00    +0.100 A 
ATOM     22  C   LIG    1        1.449   4.260  -0.446  0.00  0.00    +0.020 A 
ATOM     23  C   LIG    1        1.029   3.867   0.810  0.00  0.00    +0.040 A 
ATOM     24  C   LIG    1        1.112   2.538   1.184  0.00  0.00    +0.030 A 
ATOM     25  C   LIG    1        1.614   1.599   0.302  0.00  0.00    +0.040 A 
ATOM     26  C   LIG    1        2.035   1.986  -0.955  0.00  0.00    +0.030 A 
ENDBRANCH  20  21
ENDBRANCH  15  16
ENDBRANCH  14  15
ENDBRANCH  12  14
TORSDOF 4
