REMARK  Name = ZINCpk00000y6tEL.0
REMARK                            x       y       z     vdW  Elec       q    Type
REMARK                         _______ _______ _______ _____ _____    ______ ____
ROOT
ATOM      1  C   LIG    1       -4.424   0.980   2.081  0.00  0.00    +0.290 C 
ENDROOT
BRANCH   1   5
ATOM      2  C   LIG    1       -7.158   1.008   4.345  0.00  0.00    +0.140 C 
ATOM      3  C   LIG    1       -6.228   1.922   5.181  0.00  0.00    +0.030 C 
ATOM      4  C   LIG    1       -4.901   1.881   4.383  0.00  0.00    +0.170 C 
ATOM      5  C   LIG    1       -5.347   1.878   2.906  0.00  0.00    +0.000 C 
ATOM      6  C   LIG    1       -6.782   1.323   2.882  0.00  0.00    +0.060 C 
BRANCH   2  11
ATOM      7  C   LIG    1      -12.023   0.770   5.507  0.00  0.00    +0.200 C 
ATOM      8  C   LIG    1      -10.660   1.262   5.091  0.00  0.00    +0.170 A 
ATOM      9  N   LIG    1      -10.349   2.481   4.764  0.00  0.00    -0.380 NA
ATOM     10  O   LIG    1       -9.171   2.553   4.485  0.00  0.00    +0.080 OA
ATOM     11  C   LIG    1       -8.603   1.348   4.603  0.00  0.00    +0.190 A 
ATOM     12  N   LIG    1       -9.543   0.520   4.992  0.00  0.00    -0.480 NA
ENDBRANCH   2  11
BRANCH   4  13
ATOM     13  O   LIG    1       -4.171   0.691   4.687  0.00  0.00    -0.550 OA
ATOM     14  H   LIG    1       -3.866   0.640   5.603  0.00  0.00    +0.380 HD
ENDBRANCH   4  13
ENDBRANCH   1   5
BRANCH   1  15
ATOM     15  N   LIG    1       -3.090   1.582   2.013  0.00  0.00    -0.700 N 
ATOM     16  H   LIG    1       -2.916   2.426   2.458  0.00  0.00    +0.410 HD
ATOM     17  C   LIG    1       -2.105   0.962   1.334  0.00  0.00    +0.490 C 
ATOM     18  O   LIG    1       -2.322  -0.094   0.778  0.00  0.00    -0.500 OA
BRANCH  17  19
ATOM     19  C   LIG    1       -0.732   1.581   1.264  0.00  0.00    +0.290 C 
ATOM     20  F   LIG    1       -0.851   2.974   1.215  0.00  0.00    -0.190 F 
ATOM     21  F   LIG    1        0.002   1.215   2.397  0.00  0.00    -0.180 F 
BRANCH  19  22
ATOM     22  C   LIG    1       -0.013   1.086   0.008  0.00  0.00    -0.010 C 
ATOM     23  C   LIG    1       -0.744   1.595  -1.238  0.00  0.00    +0.010 C 
ATOM     24  C   LIG    1        0.028   1.159  -2.486  0.00  0.00    +0.230 C 
ATOM     25  O   LIG    1        1.364   1.661  -2.418  0.00  0.00    -0.380 OA
ATOM     26  C   LIG    1        2.111   1.181  -1.299  0.00  0.00    +0.220 C 
ATOM     27  C   LIG    1        1.424   1.618  -0.003  0.00  0.00    +0.010 C 
ENDBRANCH  19  22
ENDBRANCH  17  19
ENDBRANCH   1  15
TORSDOF 6
