REMARK  Name = ZINCrH000004mTGp.0
REMARK                            x       y       z     vdW  Elec       q    Type
REMARK                         _______ _______ _______ _____ _____    ______ ____
ROOT
ATOM      1  N   LIG    1       -2.022   7.924  -1.379  0.00  0.00    -1.110 NA
ATOM      2  H   LIG    1       -2.495   8.146  -0.561  0.00  0.00    +0.420 HD
ENDROOT
BRANCH   1   3
ATOM      3  S   LIG    1       -2.292   8.802  -2.756  0.00  0.00    +2.710 S 
ATOM      4  O   LIG    1       -1.013   9.141  -3.273  0.00  0.00    -0.940 OA
ATOM      5  O   LIG    1       -3.279   9.770  -2.428  0.00  0.00    -0.960 OA
BRANCH   3  10
ATOM      6  C   LIG    1       -4.907   7.085  -5.284  0.00  0.00    +0.070 A 
ATOM      7  C   LIG    1       -4.191   6.004  -5.776  0.00  0.00    +0.030 A 
ATOM      8  C   LIG    1       -2.897   5.780  -5.347  0.00  0.00    -0.040 A 
ATOM      9  C   LIG    1       -2.315   6.636  -4.423  0.00  0.00    +0.190 A 
ATOM     10  C   LIG    1       -3.032   7.716  -3.930  0.00  0.00    -0.670 A 
ATOM     11  C   LIG    1       -4.327   7.937  -4.356  0.00  0.00    +0.140 A 
BRANCH   6  13
ATOM     12  C   LIG    1       -6.717   6.384  -6.658  0.00  0.00    +0.240 C 
ATOM     13  O   LIG    1       -6.181   7.305  -5.706  0.00  0.00    -0.310 OA
ENDBRANCH   6  13
BRANCH   9  14
ATOM     14  O   LIG    1       -1.041   6.415  -4.001  0.00  0.00    -0.310 OA
ATOM     15  C   LIG    1       -0.362   5.284  -4.550  0.00  0.00    +0.260 C 
ENDBRANCH   9  14
ENDBRANCH   3  10
ENDBRANCH   1   3
BRANCH   1  16
ATOM     16  C   LIG    1       -1.069   6.812  -1.394  0.00  0.00    +0.290 C 
BRANCH  16  17
ATOM     17  C   LIG    1       -0.723   6.417   0.043  0.00  0.00    +0.110 C 
BRANCH  17  18
ATOM     18  C   LIG    1        0.258   5.273   0.028  0.00  0.00    -0.170 A 
ATOM     19  C   LIG    1        1.597   5.370   0.016  0.00  0.00    +0.100 A 
ATOM     20  N   LIG    1        2.154   4.120   0.004  0.00  0.00    -0.590 N 
ATOM     21  H   LIG    1        3.107   3.935  -0.006  0.00  0.00    +0.420 HD
ATOM     22  C   LIG    1        1.163   3.164   0.008  0.00  0.00    +0.110 A 
ATOM     23  C   LIG    1        1.175   1.774   0.000  0.00  0.00    +0.010 A 
ATOM     24  C   LIG    1       -0.013   1.076   0.008  0.00  0.00    +0.070 A 
ATOM     25  C   LIG    1       -1.228   1.747   0.017  0.00  0.00    -0.120 A 
ATOM     26  C   LIG    1       -1.264   3.123   0.031  0.00  0.00    +0.090 A 
ATOM     27 BR   LIG    1       -2.844   0.765   0.020  0.00  0.00    -0.050 Br
ATOM     28  C   LIG    1        2.371   6.663   0.015  0.00  0.00    +0.140 C 
ATOM     29  C   LIG    1       -0.069   3.845   0.023  0.00  0.00    -0.090 A 
ENDBRANCH  17  18
ENDBRANCH  16  17
ENDBRANCH   1  16
TORSDOF 7
