REMARK  Name = ZINCpk00000y0r3f.0
REMARK                            x       y       z     vdW  Elec       q    Type
REMARK                         _______ _______ _______ _____ _____    ______ ____
ROOT
ATOM      1  C   LIG    1        1.792   4.216   1.476  0.00  0.00    +0.290 C 
ATOM      2  C   LIG    1        3.299   4.552   1.360  0.00  0.00    +0.060 C 
ATOM      3  C   LIG    1        3.530   4.716  -0.126  0.00  0.00    +0.520 C 
ATOM      4  N   LIG    1        2.505   4.184  -0.815  0.00  0.00    -0.590 N 
ATOM      5  O   LIG    1        4.498   5.251  -0.624  0.00  0.00    -0.510 OA
ATOM      6  C   LIG    1        1.500   3.608   0.086  0.00  0.00    +0.290 C 
ENDROOT
BRANCH   1   9
ATOM      7  O   LIG    1        1.098   5.175   3.899  0.00  0.00    -0.560 OA
ATOM      8  C   LIG    1        0.705   5.824   2.949  0.00  0.00    +0.710 C 
ATOM      9  N   LIG    1        0.998   5.428   1.694  0.00  0.00    -0.730 N 
ATOM     10  H   LIG    1        0.685   5.946   0.936  0.00  0.00    +0.400 HD
ATOM     11  N   LIG    1       -0.025   6.939   3.150  0.00  0.00    -0.670 N 
ATOM     12  H   LIG    1       -0.274   7.499   2.397  0.00  0.00    +0.420 HD
BRANCH  11  13
ATOM     13  C   LIG    1       -0.423   7.289   4.441  0.00  0.00    +0.170 A 
ATOM     14  C   LIG    1       -0.700   6.313   5.400  0.00  0.00    +0.030 A 
ATOM     15  C   LIG    1       -1.084   6.735   6.660  0.00  0.00    +0.240 A 
ATOM     16  N   LIG    1       -1.188   8.025   6.920  0.00  0.00    -0.260 NA
ATOM     17  N   LIG    1       -0.939   8.925   6.041  0.00  0.00    -0.220 NA
ATOM     18  C   LIG    1       -0.562   8.625   4.814  0.00  0.00    +0.190 A 
ENDBRANCH  11  13
ENDBRANCH   1   9
BRANCH   6  19
ATOM     19  C   LIG    1        1.640   2.108   0.133  0.00  0.00    -0.160 A 
ATOM     20  C   LIG    1        0.516   1.300   0.210  0.00  0.00    +0.080 A 
ATOM     21  C   LIG    1        0.694  -0.075   0.251  0.00  0.00    -0.030 A 
ATOM     22  C   LIG    1        1.975  -0.590   0.214  0.00  0.00    +0.270 A 
ATOM     23  N   LIG    1        3.022   0.209   0.140  0.00  0.00    -0.480 NA
ATOM     24  C   LIG    1        2.891   1.521   0.100  0.00  0.00    +0.270 A 
ENDBRANCH   6  19
BRANCH   4  25
ATOM     25  C   LIG    1        2.405   4.180  -2.276  0.00  0.00    +0.210 C 
ATOM     26  C   LIG    1        3.631   4.637  -3.069  0.00  0.00    +0.040 C 
ATOM     27  C   LIG    1        2.394   5.534  -2.987  0.00  0.00    +0.000 C 
ENDBRANCH   4  25
TORSDOF 4
