REMARK  Name = ZINCbu0000000GBP.0
REMARK                            x       y       z     vdW  Elec       q    Type
REMARK                         _______ _______ _______ _____ _____    ______ ____
ROOT
ATOM      1  C   LIG    1       -0.114   2.348   1.297  0.00  0.00    +0.160 C 
ATOM      2  C   LIG    1        0.910   2.498   0.159  0.00  0.00    +0.040 C 
ATOM      3  C   LIG    1        0.116   2.912  -1.098  0.00  0.00    +0.040 C 
ATOM      4  C   LIG    1       -1.172   3.562  -0.536  0.00  0.00    +0.030 C 
ATOM      5  C   LIG    1       -1.496   2.675   0.692  0.00  0.00    +0.020 C 
ENDROOT
BRANCH   1   7
ATOM      6  C   LIG    1        1.483   2.925   2.992  0.00  0.00    +0.310 C 
ATOM      7  N   LIG    1        0.197   3.289   2.381  0.00  0.00    -0.520 N 
ATOM      8  H   LIG    1       -0.530   3.250   3.080  0.00  0.00    +0.430 HD
ATOM      9  H   LIG    1        0.255   4.224   2.008  0.00  0.00    +0.430 HD
ENDBRANCH   1   7
BRANCH   5  10
ATOM     10  C   LIG    1       -2.355   3.444   1.698  0.00  0.00    -0.080 C 
ATOM     11  C   LIG    1       -1.705   4.796   1.994  0.00  0.00    +0.020 C 
ATOM     12  C   LIG    1       -2.469   2.637   2.993  0.00  0.00    +0.040 C 
ATOM     13  C   LIG    1       -3.750   3.666   1.111  0.00  0.00    +0.070 C 
ENDBRANCH   5  10
TORSDOF 2
