REMARK  Name = ZINCrg000000nJvK.0
REMARK                            x       y       z     vdW  Elec       q    Type
REMARK                         _______ _______ _______ _____ _____    ______ ____
ROOT
ATOM      1  N   LIG    1        3.995   0.308  -1.700  0.00  0.00    -0.720 N 
ATOM      2  H   LIG    1        4.551  -0.004  -0.970  0.00  0.00    +0.400 HD
ATOM      3  C   LIG    1        2.842   0.956  -1.440  0.00  0.00    +0.510 C 
ATOM      4  O   LIG    1        2.146   1.346  -2.354  0.00  0.00    -0.520 OA
ENDROOT
BRANCH   1   5
ATOM      5  C   LIG    1        4.408   0.076  -3.087  0.00  0.00    +0.290 C 
BRANCH   5   6
ATOM      6  C   LIG    1        5.906  -0.077  -3.146  0.00  0.00    -0.090 A 
ATOM      7  C   LIG    1        6.568  -0.780  -2.157  0.00  0.00    +0.010 A 
ATOM      8  C   LIG    1        7.942  -0.924  -2.214  0.00  0.00    +0.000 A 
ATOM      9  C   LIG    1        8.654  -0.357  -3.254  0.00  0.00    +0.000 A 
ATOM     10  C   LIG    1        7.992   0.350  -4.240  0.00  0.00    +0.020 A 
ATOM     11  C   LIG    1        6.618   0.490  -4.186  0.00  0.00    +0.010 A 
ENDBRANCH   5   6
BRANCH   5  12
ATOM     12  C   LIG    1        3.744  -1.200  -3.610  0.00  0.00    +0.020 C 
BRANCH  12  14
ATOM     13  C   LIG    1        1.564  -2.275  -4.190  0.00  0.00    +0.000 C 
ATOM     14  C   LIG    1        2.228  -0.999  -3.667  0.00  0.00    +0.000 C 
ENDBRANCH  12  14
ENDBRANCH   5  12
ENDBRANCH   1   5
BRANCH   3  15
ATOM     15  C   LIG    1        2.417   1.195  -0.014  0.00  0.00    +0.360 C 
BRANCH  15  16
ATOM     16  N   LIG    1        1.140   1.912   0.001  0.00  0.00    -0.530 N 
ATOM     17  C   LIG    1       -0.014   1.214   0.009  0.00  0.00    +0.600 A 
ATOM     18  C   LIG    1       -1.242   1.911   0.018  0.00  0.00    -0.150 A 
ATOM     19  C   LIG    1       -1.231   3.300   0.031  0.00  0.00    +0.320 A 
ATOM     20  N   LIG    1       -0.012   3.959   0.023  0.00  0.00    -0.510 N 
ATOM     21  C   LIG    1        0.027   5.424   0.032  0.00  0.00    +0.350 C 
ATOM     22  N   LIG    1       -2.503   3.706   0.045  0.00  0.00    -0.500 NA
ATOM     23  C   LIG    1       -3.300   2.668   0.047  0.00  0.00    +0.500 A 
ATOM     24  N   LIG    1       -2.570   1.535   0.034  0.00  0.00    -0.410 N 
ATOM     25  C   LIG    1       -3.088   0.165   0.030  0.00  0.00    +0.360 C 
ATOM     26  O   LIG    1        0.002  -0.004   0.002  0.00  0.00    -0.510 OA
ATOM     27  C   LIG    1        1.136   3.256   0.009  0.00  0.00    +0.720 A 
ATOM     28  O   LIG    1        2.196   3.852   0.002  0.00  0.00    -0.530 OA
ENDBRANCH  15  16
ENDBRANCH   3  15
TORSDOF 6
