REMARK  Name = ZINCrg000000tRPg.0
REMARK                            x       y       z     vdW  Elec       q    Type
REMARK                         _______ _______ _______ _____ _____    ______ ____
ROOT
ATOM      1  N   LIG    1        6.845   0.587  -3.142  0.00  0.00    -0.690 N 
ATOM      2  H   LIG    1        7.428   1.146  -2.605  0.00  0.00    +0.410 HD
ATOM      3  C   LIG    1        5.526   0.529  -2.868  0.00  0.00    +0.710 C 
ATOM      4  N   LIG    1        5.003   1.316  -1.907  0.00  0.00    -0.620 N 
ATOM      5  C   LIG    1        5.871   2.156  -1.072  0.00  0.00    +0.270 C 
ATOM      6  C   LIG    1        5.576   1.858   0.402  0.00  0.00    +0.020 C 
ATOM      7  C   LIG    1        4.080   2.043   0.666  0.00  0.00    +0.040 C 
ATOM      8  C   LIG    1        3.283   1.060  -0.195  0.00  0.00    +0.000 C 
ATOM      9  C   LIG    1        3.552   1.349  -1.675  0.00  0.00    +0.320 C 
ATOM     10  O   LIG    1        4.809  -0.233  -3.488  0.00  0.00    -0.560 OA
ENDROOT
BRANCH   1  17
ATOM     11  O   LIG    1        9.007  -3.888  -8.928  0.00  0.00    -0.490 OA
ATOM     12  C   LIG    1        8.391  -3.364  -8.024  0.00  0.00    +0.540 C 
ATOM     13  C   LIG    1        7.008  -3.872  -7.718  0.00  0.00    -0.280 C 
ATOM     14  S   LIG    1        6.726  -3.741  -5.925  0.00  0.00    +2.510 S 
ATOM     15  C   LIG    1        7.381  -2.148  -5.540  0.00  0.00    -0.660 A 
ATOM     16  C   LIG    1        6.862  -1.419  -4.493  0.00  0.00    +0.170 A 
ATOM     17  C   LIG    1        7.373  -0.160  -4.203  0.00  0.00    +0.130 A 
ATOM     18  C   LIG    1        8.414   0.351  -4.966  0.00  0.00    +0.080 A 
ATOM     19  C   LIG    1        8.937  -0.383  -6.010  0.00  0.00    +0.010 A 
ATOM     20  C   LIG    1        8.425  -1.644  -6.307  0.00  0.00    +0.220 A 
ATOM     21  O   LIG    1        5.338  -3.636  -5.639  0.00  0.00    -0.900 OA
ATOM     22  O   LIG    1        7.558  -4.650  -5.217  0.00  0.00    -0.910 OA
ATOM     23  N   LIG    1        8.975  -2.372  -7.359  0.00  0.00    -0.660 N 
ATOM     24  H   LIG    1        9.873  -2.131  -7.633  0.00  0.00    +0.420 HD
ENDBRANCH   1  17
BRANCH   8  25
ATOM     25  C   LIG    1        1.790   1.223   0.094  0.00  0.00    +0.310 C 
ATOM     26  O   LIG    1        1.313   2.487  -0.417  0.00  0.00    -0.370 OA
ATOM     27  C   LIG    1       -0.110   2.305  -0.569  0.00  0.00    +0.200 C 
ATOM     28  C   LIG    1       -0.303   0.782  -0.708  0.00  0.00    +0.200 C 
ATOM     29  O   LIG    1        1.026   0.229  -0.623  0.00  0.00    -0.370 OA
ENDBRANCH   8  25
TORSDOF 2
