REMARK  Name = ZINCkj00000kIYRy.0
REMARK                            x       y       z     vdW  Elec       q    Type
REMARK                         _______ _______ _______ _____ _____    ______ ____
ROOT
ATOM      1  C   LIG    1       -0.419   3.027   1.624  0.00  0.00    +0.040 C 
ATOM      2  C   LIG    1       -1.242   4.160   0.981  0.00  0.00    +0.070 C 
ATOM      3  C   LIG    1       -1.663   3.844  -0.467  0.00  0.00    +0.020 C 
ATOM      4  C   LIG    1       -0.558   3.199  -1.260  0.00  0.00    +0.020 C 
ATOM      5  C   LIG    1       -0.728   1.668  -1.180  0.00  0.00    +0.040 C 
ATOM      6  C   LIG    1       -0.217   1.117   0.066  0.00  0.00    +0.060 C 
ATOM      7  C   LIG    1       -0.966   1.663   1.299  0.00  0.00    +0.190 C 
ENDROOT
BRANCH   7   8
ATOM      8  N   LIG    1       -0.758   0.764   2.442  0.00  0.00    -0.510 N 
ATOM      9  H   LIG    1       -1.166   1.172   3.269  0.00  0.00    +0.430 HD
ATOM     10  H   LIG    1        0.232   0.627   2.586  0.00  0.00    +0.430 HD
BRANCH   8  11
ATOM     11  C   LIG    1       -1.395  -0.531   2.168  0.00  0.00    +0.420 C 
BRANCH  11  12
ATOM     12  C   LIG    1       -1.182  -1.454   3.341  0.00  0.00    +0.070 A 
ATOM     13  N   LIG    1       -1.964  -1.580   4.378  0.00  0.00    -0.230 NA
ATOM     14  N   LIG    1       -1.476  -2.457   5.183  0.00  0.00    -0.280 NA
ATOM     15  C   LIG    1       -0.361  -2.929   4.696  0.00  0.00    +0.220 A 
ATOM     16  C   LIG    1        0.519  -3.974   5.331  0.00  0.00    +0.220 C 
ATOM     17  N   LIG    1       -0.145  -2.310   3.510  0.00  0.00    -0.460 N 
ATOM     18  C   LIG    1        0.982  -2.520   2.599  0.00  0.00    +0.350 C 
ENDBRANCH  11  12
ENDBRANCH   8  11
ENDBRANCH   7   8
BRANCH   1  19
ATOM     19  C   LIG    1       -0.422   3.211   3.120  0.00  0.00    +0.420 C 
ATOM     20  O   LIG    1       -1.410   3.632   3.675  0.00  0.00    -0.460 OA
BRANCH  19  22
ATOM     21  C   LIG    1        0.596   3.109   5.272  0.00  0.00    +0.300 C 
ATOM     22  O   LIG    1        0.671   2.907   3.837  0.00  0.00    -0.360 OA
ENDBRANCH  19  22
ENDBRANCH   1  19
TORSDOF 5
