REMARK  Name = ZINCrD00000hQ5nv.0
REMARK                            x       y       z     vdW  Elec       q    Type
REMARK                         _______ _______ _______ _____ _____    ______ ____
ROOT
ATOM      1  C   LIG    1       -5.664   2.988   1.903  0.00  0.00    +0.050 C 
ATOM      2  C   LIG    1       -4.760   3.801   0.975  0.00  0.00    +0.160 C 
ATOM      3  C   LIG    1       -5.366   3.833  -0.430  0.00  0.00    +0.160 C 
ATOM      4  N   LIG    1       -4.456   4.550  -1.335  0.00  0.00    -0.510 NA
ATOM      5  C   LIG    1       -3.137   3.900  -1.370  0.00  0.00    +0.170 C 
ATOM      6  C   LIG    1       -2.553   3.868   0.045  0.00  0.00    +0.210 C 
ATOM      7  O   LIG    1       -3.466   3.195   0.917  0.00  0.00    -0.370 OA
ENDROOT
BRANCH   6   8
ATOM      8  C   LIG    1       -1.238   3.133   0.030  0.00  0.00    -0.090 A 
ATOM      9  C   LIG    1       -1.218   1.751   0.017  0.00  0.00    +0.080 A 
ATOM     10  C   LIG    1       -0.013   1.076   0.008  0.00  0.00    -0.020 A 
ATOM     11  C   LIG    1        1.177   1.785   0.000  0.00  0.00    +0.100 A 
ATOM     12  C   LIG    1        1.157   3.169   0.008  0.00  0.00    -0.020 A 
ATOM     13  F   LIG    1        2.356   1.126  -0.013  0.00  0.00    -0.140 F 
ATOM     14  C   LIG    1       -0.051   3.842   0.022  0.00  0.00    +0.050 A 
ENDBRANCH   6   8
BRANCH   4  15
ATOM     15  C   LIG    1       -5.027   4.652  -2.684  0.00  0.00    +0.190 C 
ATOM     16  C   LIG    1       -6.366   5.390  -2.616  0.00  0.00    +0.060 C 
BRANCH  15  17
ATOM     17  C   LIG    1       -5.243   3.270  -3.245  0.00  0.00    +0.490 C 
ATOM     18  N   LIG    1       -5.762   3.117  -4.479  0.00  0.00    -0.720 N 
ATOM     19  H   LIG    1       -5.997   3.897  -5.007  0.00  0.00    +0.410 HD
ATOM     20  O   LIG    1       -4.949   2.296  -2.586  0.00  0.00    -0.520 OA
BRANCH  18  21
ATOM     21  C   LIG    1       -5.972   1.774  -5.024  0.00  0.00    +0.280 C 
ATOM     22  C   LIG    1       -4.633   1.037  -5.093  0.00  0.00    +0.040 C 
ATOM     23  C   LIG    1       -4.851  -0.367  -5.662  0.00  0.00    +0.020 C 
ATOM     24  C   LIG    1       -5.447  -0.260  -7.067  0.00  0.00    +0.020 C 
ATOM     25  C   LIG    1       -6.786   0.477  -6.999  0.00  0.00    +0.020 C 
ATOM     26  C   LIG    1       -6.567   1.881  -6.430  0.00  0.00    +0.050 C 
BRANCH  21  27
ATOM     27  C   LIG    1       -6.897   1.030  -4.154  0.00  0.00    +0.210 C 
ATOM     28  N   LIG    1       -7.612   0.456  -3.483  0.00  0.00    -0.410 NA
ENDBRANCH  21  27
ENDBRANCH  18  21
ENDBRANCH  15  17
ENDBRANCH   4  15
TORSDOF 5
