REMARK  Name = ZINCvU00000003Np.0
REMARK                            x       y       z     vdW  Elec       q    Type
REMARK                         _______ _______ _______ _____ _____    ______ ____
ROOT
ATOM      1  N   LIG    1        2.114  -2.866  -0.046  0.00  0.00    -0.620 N 
ATOM      2  H   LIG    1        3.027  -2.538  -0.044  0.00  0.00    +0.420 HD
ATOM      3  C   LIG    1        1.875  -4.193  -0.056  0.00  0.00    +0.520 C 
ATOM      4  O   LIG    1        0.734  -4.603  -0.058  0.00  0.00    -0.490 OA
ENDROOT
BRANCH   3   5
ATOM      5  C   LIG    1        3.026  -5.165  -0.065  0.00  0.00    +0.010 C 
ATOM      6  C   LIG    1        3.881  -4.932  -1.313  0.00  0.00    +0.030 C 
ATOM      7  C   LIG    1        5.069  -5.899  -1.302  0.00  0.00    +0.300 C 
ATOM      8  N   LIG    1        4.561  -7.271  -1.166  0.00  0.00    -0.580 N 
ATOM      9  C   LIG    1        3.657  -7.582  -0.051  0.00  0.00    +0.290 C 
ATOM     10  C   LIG    1        2.485  -6.596  -0.076  0.00  0.00    +0.050 C 
BRANCH   8  11
ATOM     11  C   LIG    1        4.921  -8.236  -2.058  0.00  0.00    +0.440 C 
ATOM     12  C   LIG    1        4.537  -9.521  -1.858  0.00  0.00    -0.280 C 
BRANCH  12  13
ATOM     13  C   LIG    1        4.992 -10.530  -2.718  0.00  0.00    +0.380 C 
ATOM     14  O   LIG    1        5.731 -10.254  -3.643  0.00  0.00    -0.450 OA
BRANCH  13  15
ATOM     15  C   LIG    1        4.565 -11.958  -2.496  0.00  0.00    +0.420 C 
ATOM     16  F   LIG    1        3.882 -12.422  -3.625  0.00  0.00    -0.170 F 
ATOM     17  F   LIG    1        3.723 -12.025  -1.381  0.00  0.00    -0.170 F 
ATOM     18  F   LIG    1        5.695 -12.754  -2.275  0.00  0.00    -0.170 F 
ENDBRANCH  13  15
ENDBRANCH  12  13
ENDBRANCH   8  11
ENDBRANCH   3   5
BRANCH   1  22
ATOM     19  C   LIG    1        0.038   0.023  -0.021  0.00  0.00    +0.130 A 
ATOM     20  C   LIG    1       -1.094  -0.704  -0.025  0.00  0.00    -0.110 A 
ATOM     21  S   LIG    1       -0.652  -2.410  -0.039  0.00  0.00    +0.200 S 
ATOM     22  C   LIG    1        1.053  -1.969  -0.037  0.00  0.00    +0.270 A 
ATOM     23  N   LIG    1        1.163  -0.677  -0.033  0.00  0.00    -0.500 NA
BRANCH  19  27
ATOM     24  C   LIG    1        0.008   4.274   0.012  0.00  0.00    -0.070 A 
ATOM     25  C   LIG    1        1.212   3.594   0.006  0.00  0.00    +0.000 A 
ATOM     26  C   LIG    1        1.228   2.214  -0.005  0.00  0.00    +0.050 A 
ATOM     27  C   LIG    1        0.028   1.506  -0.009  0.00  0.00    -0.030 A 
ATOM     28  C   LIG    1       -1.183   2.197  -0.009  0.00  0.00    +0.020 A 
ATOM     29  C   LIG    1       -1.187   3.577   0.008  0.00  0.00    +0.020 A 
BRANCH  24  31
ATOM     30  C   LIG    1       -0.729   6.296  -1.220  0.00  0.00    +0.030 C 
ATOM     31  C   LIG    1       -0.003   5.781   0.024  0.00  0.00    +0.020 C 
ATOM     32  C   LIG    1       -0.727   6.276   1.278  0.00  0.00    +0.030 C 
ENDBRANCH  24  31
ENDBRANCH  19  27
ENDBRANCH   1  22
TORSDOF 7
