REMARK  Name = ZINCvU00000007mW.0
REMARK                            x       y       z     vdW  Elec       q    Type
REMARK                         _______ _______ _______ _____ _____    ______ ____
ROOT
ATOM      1  N   LIG    1        7.563   0.795   1.889  0.00  0.00    -0.400 N 
ATOM      2  C   LIG    1        6.341   1.264   1.492  0.00  0.00    +0.150 A 
ATOM      3  N   LIG    1        6.549   2.381   0.831  0.00  0.00    -0.290 NA
ATOM      4  N   LIG    1        7.806   2.645   0.793  0.00  0.00    -0.240 NA
ATOM      5  C   LIG    1        8.481   1.709   1.421  0.00  0.00    +0.230 A 
ENDROOT
BRANCH   5   6
ATOM      6  C   LIG    1        9.947   1.649   1.594  0.00  0.00    -0.010 A 
ATOM      7  C   LIG    1       10.635   0.463   1.337  0.00  0.00    +0.050 A 
ATOM      8  C   LIG    1       12.005   0.415   1.495  0.00  0.00    +0.030 A 
ATOM      9  C   LIG    1       12.696   1.537   1.917  0.00  0.00    +0.050 A 
ATOM     10  C   LIG    1       12.021   2.715   2.178  0.00  0.00    +0.030 A 
ATOM     11  C   LIG    1       10.651   2.779   2.020  0.00  0.00    -0.000 A 
ATOM     12 CL   LIG    1        9.804   4.258   2.349  0.00  0.00    -0.040 Cl
ENDBRANCH   5   6
BRANCH   1  16
ATOM     13  C   LIG    1        8.348  -2.680   4.060  0.00  0.00    +0.160 A 
ATOM     14  C   LIG    1        7.841  -2.767   2.772  0.00  0.00    +0.010 A 
ATOM     15  C   LIG    1        7.581  -1.617   2.053  0.00  0.00    +0.080 A 
ATOM     16  C   LIG    1        7.827  -0.374   2.620  0.00  0.00    +0.060 A 
ATOM     17  C   LIG    1        8.338  -0.287   3.907  0.00  0.00    +0.080 A 
ATOM     18  C   LIG    1        8.594  -1.438   4.627  0.00  0.00    -0.060 A 
BRANCH  13  19
ATOM     19  O   LIG    1        8.604  -3.812   4.768  0.00  0.00    -0.310 OA
BRANCH  19  21
ATOM     20  C   LIG    1        9.348  -5.023   6.723  0.00  0.00    +0.070 C 
ATOM     21  C   LIG    1        9.125  -3.648   6.088  0.00  0.00    +0.190 C 
ENDBRANCH  19  21
ENDBRANCH  13  19
ENDBRANCH   1  16
BRANCH   2  22
ATOM     22  S   LIG    1        4.780   0.509   1.804  0.00  0.00    +0.100 S 
BRANCH  22  23
ATOM     23  C   LIG    1        3.687   1.697   0.985  0.00  0.00    +0.110 C 
BRANCH  23  24
ATOM     24  C   LIG    1        2.257   1.244   1.126  0.00  0.00    +0.530 C 
ATOM     25  N   LIG    1        1.261   1.978   0.590  0.00  0.00    -0.720 N 
ATOM     26  H   LIG    1        1.466   2.798   0.114  0.00  0.00    +0.400 HD
ATOM     27  O   LIG    1        2.001   0.219   1.721  0.00  0.00    -0.520 OA
BRANCH  25  28
ATOM     28  C   LIG    1       -0.129   1.538   0.727  0.00  0.00    +0.230 C 
ATOM     29  C   LIG    1       -0.723   2.066   2.049  0.00  0.00    +0.020 C 
ATOM     30  C   LIG    1       -1.461   3.366   1.641  0.00  0.00    +0.010 C 
ATOM     31  C   LIG    1       -2.068   2.997   0.265  0.00  0.00    +0.010 C 
ATOM     32  C   LIG    1       -0.984   2.130  -0.407  0.00  0.00    +0.020 C 
ENDBRANCH  25  28
ENDBRANCH  23  24
ENDBRANCH  22  23
ENDBRANCH   2  22
TORSDOF 8
