REMARK  Name = ZINCkj000018RF1Z.0
REMARK                            x       y       z     vdW  Elec       q    Type
REMARK                         _______ _______ _______ _____ _____    ______ ____
ROOT
ATOM      1  C   LIG    1        0.828  -1.376  10.104  0.00  0.00    +0.150 C 
ATOM      2  C   LIG    1        0.083  -2.584   9.521  0.00  0.00    +0.080 C 
ATOM      3  C   LIG    1       -1.295  -2.137   9.024  0.00  0.00    +0.050 C 
ATOM      4  C   LIG    1       -1.131  -1.247   7.786  0.00  0.00    +0.290 C 
ATOM      5  N   LIG    1       -0.152  -0.203   8.086  0.00  0.00    -0.460 N 
ATOM      6  C   LIG    1        0.077   0.953   7.434  0.00  0.00    +0.180 A 
ATOM      7  N   LIG    1        1.049   1.562   8.063  0.00  0.00    -0.290 NA
ATOM      8  N   LIG    1        1.437   0.847   9.063  0.00  0.00    -0.260 NA
ATOM      9  C   LIG    1        0.733  -0.243   9.114  0.00  0.00    +0.170 A 
ENDROOT
BRANCH   1  10
ATOM     10  C   LIG    1        2.275  -1.733  10.332  0.00  0.00    +0.480 C 
ATOM     11  O   LIG    1        2.669  -2.846  10.080  0.00  0.00    -0.500 OA
BRANCH  10  12
ATOM     12  O   LIG    1        3.124  -0.813  10.816  0.00  0.00    -0.330 OA
BRANCH  12  14
ATOM     13  C   LIG    1        5.314  -0.053  11.563  0.00  0.00    +0.070 C 
ATOM     14  C   LIG    1        4.503  -1.226  11.010  0.00  0.00    +0.200 C 
ENDBRANCH  12  14
ENDBRANCH  10  12
ENDBRANCH   1  10
BRANCH   6  15
ATOM     15  C   LIG    1       -0.651   1.452   6.213  0.00  0.00    +0.150 C 
BRANCH  15  16
ATOM     16  C   LIG    1        0.065   0.958   4.954  0.00  0.00    +0.030 C 
BRANCH  16  17
ATOM     17  C   LIG    1       -0.675   1.465   3.715  0.00  0.00    +0.040 C 
BRANCH  17  18
ATOM     18  C   LIG    1        0.041   0.972   2.456  0.00  0.00    +0.030 C 
BRANCH  18  19
ATOM     19  C   LIG    1       -0.699   1.479   1.216  0.00  0.00    +0.250 C 
BRANCH  19  20
ATOM     20  N   LIG    1       -0.012   1.005   0.008  0.00  0.00    -0.640 N 
ATOM     21  H   LIG    1       -0.500   1.339  -0.810  0.00  0.00    +0.440 HD
ATOM     22  H   LIG    1        0.935   1.354   0.000  0.00  0.00    +0.440 HD
ATOM     23  H   LIG    1        0.002  -0.004   0.002  0.00  0.00    +0.440 HD
ENDBRANCH  19  20
ENDBRANCH  18  19
ENDBRANCH  17  18
ENDBRANCH  16  17
ENDBRANCH  15  16
ENDBRANCH   6  15
TORSDOF 9
