REMARK  Name = ZINCqH0000002HWz.0
REMARK                            x       y       z     vdW  Elec       q    Type
REMARK                         _______ _______ _______ _____ _____    ______ ____
ROOT
ATOM      1  C   LIG    1        2.200   6.671   0.017  0.00  0.00    +0.480 C 
ATOM      2  O   LIG    1        3.411   6.733   0.116  0.00  0.00    -0.430 OA
ENDROOT
BRANCH   1   3
ATOM      3  C   LIG    1        1.403   7.911  -0.081  0.00  0.00    -0.160 A 
ATOM      4  C   LIG    1        2.045   9.149  -0.180  0.00  0.00    +0.110 A 
ATOM      5  C   LIG    1        1.302  10.306  -0.276  0.00  0.00    +0.030 A 
ATOM      6  C   LIG    1       -0.084  10.246  -0.263  0.00  0.00    +0.120 A 
ATOM      7  O   LIG    1       -0.824  11.382  -0.354  0.00  0.00    -0.300 OA
ATOM      8  C   LIG    1       -2.077  11.280  -1.035  0.00  0.00    +0.310 C 
ATOM      9  C   LIG    1       -2.821  10.063  -0.548  0.00  0.00    +0.490 C 
ATOM     10  N   LIG    1       -2.133   8.973  -0.145  0.00  0.00    -0.660 N 
ATOM     11  H   LIG    1       -2.601   8.175   0.148  0.00  0.00    +0.420 HD
ATOM     12  O   LIG    1       -4.034  10.063  -0.517  0.00  0.00    -0.500 OA
ATOM     13  C   LIG    1       -0.731   9.012  -0.158  0.00  0.00    +0.080 A 
ATOM     14  C   LIG    1        0.006   7.849  -0.067  0.00  0.00    +0.090 A 
ENDBRANCH   1   3
BRANCH   1  20
ATOM     15  C   LIG    1       -1.225   1.748  -0.084  0.00  0.00    +0.180 A 
ATOM     16  C   LIG    1       -0.005   1.074  -0.086  0.00  0.00    -0.080 A 
ATOM     17  C   LIG    1        1.169   1.769  -0.070  0.00  0.00    +0.130 A 
ATOM     18  C   LIG    1        1.150   3.168  -0.046  0.00  0.00    -0.180 A 
ATOM     19  C   LIG    1        2.160   4.161  -0.026  0.00  0.00    +0.090 A 
ATOM     20  C   LIG    1        1.531   5.367  -0.007  0.00  0.00    -0.070 A 
ATOM     21  O   LIG    1        0.193   5.175  -0.015  0.00  0.00    -0.170 OA
ATOM     22  C   LIG    1       -0.080   3.855  -0.038  0.00  0.00    +0.110 A 
ATOM     23  C   LIG    1       -1.264   3.131  -0.054  0.00  0.00    -0.020 A 
BRANCH  15  24
ATOM     24  O   LIG    1       -2.384   1.041  -0.105  0.00  0.00    -0.310 OA
BRANCH  24  25
ATOM     25  C   LIG    1       -2.276  -0.383  -0.130  0.00  0.00    +0.200 C 
BRANCH  25  27
ATOM     26  C   LIG    1       -3.559  -2.526  -0.177  0.00  0.00    +0.040 C 
ATOM     27  C   LIG    1       -3.675  -1.001  -0.152  0.00  0.00    +0.040 C 
ENDBRANCH  25  27
ENDBRANCH  24  25
ENDBRANCH  15  24
ENDBRANCH   1  20
TORSDOF 5
