REMARK  Name = ZINCpk00000KfKNO.0
REMARK                            x       y       z     vdW  Elec       q    Type
REMARK                         _______ _______ _______ _____ _____    ______ ____
ROOT
ATOM      1  C   LIG    1        5.485   8.454  -3.943  0.00  0.00    +0.650 C 
ATOM      2  N   LIG    1        4.406   7.884  -3.370  0.00  0.00    -0.600 N 
ATOM      3  C   LIG    1        3.209   8.680  -3.057  0.00  0.00    +0.310 C 
ATOM      4  C   LIG    1        2.828   8.430  -1.594  0.00  0.00    +0.200 C 
ATOM      5  N   LIG    1        2.691   6.985  -1.367  0.00  0.00    -0.550 NA
ATOM      6  C   LIG    1        3.966   6.288  -1.581  0.00  0.00    +0.190 C 
ATOM      7  C   LIG    1        4.394   6.450  -3.044  0.00  0.00    +0.300 C 
ATOM      8  O   LIG    1        5.478   9.640  -4.206  0.00  0.00    -0.570 OA
ENDROOT
BRANCH   1   9
ATOM      9  O   LIG    1        6.571   7.709  -4.222  0.00  0.00    -0.360 OA
BRANCH   9  11
ATOM     10  C   LIG    1        8.189   9.502  -3.912  0.00  0.00    +0.040 C 
ATOM     11  C   LIG    1        7.696   8.389  -4.839  0.00  0.00    +0.140 C 
ATOM     12  C   LIG    1        7.258   8.994  -6.174  0.00  0.00    +0.040 C 
ATOM     13  C   LIG    1        8.828   7.388  -5.079  0.00  0.00    +0.080 C 
ENDBRANCH   9  11
ENDBRANCH   1   9
BRANCH   5  14
ATOM     14  C   LIG    1        2.160   6.711  -0.025  0.00  0.00    +0.450 C 
BRANCH  14  15
ATOM     15  N   LIG    1        1.488   5.409  -0.022  0.00  0.00    -0.580 N 
ATOM     16  C   LIG    1        2.124   4.243   0.264  0.00  0.00    +0.540 C 
ATOM     17  C   LIG    1        1.049   3.217   0.461  0.00  0.00    +0.000 C 
ATOM     18  C   LIG    1        1.317   1.801  -0.001  0.00  0.00    +0.110 C 
ATOM     19  C   LIG    1       -0.013   1.076   0.008  0.00  0.00    -0.040 C 
ATOM     20  C   LIG    1       -1.169   1.666   0.017  0.00  0.00    -0.040 C 
ATOM     21  C   LIG    1       -1.363   3.168   0.005  0.00  0.00    +0.110 C 
ATOM     22  C   LIG    1       -0.063   3.773  -0.481  0.00  0.00    +0.000 C 
ATOM     23  O   LIG    1        3.321   4.067   0.342  0.00  0.00    -0.470 OA
ATOM     24  C   LIG    1        0.169   5.252  -0.304  0.00  0.00    +0.550 C 
ATOM     25  O   LIG    1       -0.668   6.126  -0.384  0.00  0.00    -0.460 OA
ENDBRANCH  14  15
ENDBRANCH   5  14
TORSDOF 4
