REMARK  Name = ZINCrD00000F5LIf.0
REMARK                            x       y       z     vdW  Elec       q    Type
REMARK                         _______ _______ _______ _____ _____    ______ ____
ROOT
ATOM      1  C   LIG    1        2.541   3.594  -0.303  0.00  0.00    -0.660 A 
ATOM      2  C   LIG    1        3.699   2.841  -0.247  0.00  0.00    +0.110 A 
ATOM      3  C   LIG    1        3.629   1.467  -0.107  0.00  0.00    -0.090 A 
ATOM      4  C   LIG    1        2.400   0.842  -0.022  0.00  0.00    -0.060 A 
ATOM      5  C   LIG    1        1.234   1.595  -0.078  0.00  0.00    +0.130 A 
ATOM      6  C   LIG    1        2.325  -0.655   0.131  0.00  0.00    +0.100 C 
ATOM      7  C   LIG    1        4.894   0.651  -0.046  0.00  0.00    +0.100 C 
ATOM      8  C   LIG    1        1.308   2.974  -0.224  0.00  0.00    +0.140 A 
ENDROOT
BRANCH   5   9
ATOM      9  N   LIG    1       -0.011   0.966   0.007  0.00  0.00    -0.670 N 
ATOM     10  H   LIG    1       -0.138   0.087  -0.383  0.00  0.00    +0.410 HD
ATOM     11  C   LIG    1       -1.037   1.583   0.626  0.00  0.00    +0.540 C 
ATOM     12  O   LIG    1       -0.902   2.718   1.044  0.00  0.00    -0.510 OA
BRANCH  11  13
ATOM     13  C   LIG    1       -2.316   0.886   0.797  0.00  0.00    -0.030 C 
ATOM     14  C   LIG    1       -3.341   1.503   1.416  0.00  0.00    +0.130 C 
BRANCH  14  15
ATOM     15  C   LIG    1       -4.626   0.802   1.588  0.00  0.00    +0.130 A 
ATOM     16  C   LIG    1       -5.686   1.446   2.231  0.00  0.00    +0.000 A 
ATOM     17  C   LIG    1       -6.887   0.775   2.384  0.00  0.00    +0.060 A 
ATOM     18  C   LIG    1       -6.990  -0.518   1.891  0.00  0.00    -0.020 A 
ATOM     19  C   LIG    1       -5.899  -1.097   1.264  0.00  0.00    +0.260 A 
ATOM     20  N   LIG    1       -4.770  -0.436   1.126  0.00  0.00    -0.470 NA
ENDBRANCH  14  15
ENDBRANCH  11  13
ENDBRANCH   5   9
BRANCH   1  21
ATOM     21  S   LIG    1        2.636   5.344  -0.483  0.00  0.00    +2.690 S 
ATOM     22  O   LIG    1        3.915   5.728   0.002  0.00  0.00    -0.950 OA
ATOM     23  O   LIG    1        1.419   5.867   0.032  0.00  0.00    -0.950 OA
BRANCH  21  24
ATOM     24  N   LIG    1        2.635   5.671  -2.107  0.00  0.00    -1.000 NA
BRANCH  24  26
ATOM     25  C   LIG    1        1.071   7.385  -2.879  0.00  0.00    +0.020 C 
ATOM     26  C   LIG    1        1.367   5.886  -2.809  0.00  0.00    +0.280 C 
ENDBRANCH  24  26
BRANCH  24  27
ATOM     27  C   LIG    1        3.901   5.745  -2.840  0.00  0.00    +0.290 C 
ATOM     28  C   LIG    1        4.197   4.389  -3.484  0.00  0.00    +0.010 C 
ENDBRANCH  24  27
ENDBRANCH  21  24
ENDBRANCH   1  21
TORSDOF 7
