REMARK  Name = ZINCb80000002pmo.0
REMARK                            x       y       z     vdW  Elec       q    Type
REMARK                         _______ _______ _______ _____ _____    ______ ____
ROOT
ATOM      1  C   LIG    1       -0.016  -2.681  -0.012  0.00  0.00    -0.030 A 
ATOM      2  C   LIG    1        1.172  -1.976  -0.020  0.00  0.00    +0.300 A 
ATOM      3  N   LIG    1        1.159  -0.654  -0.013  0.00  0.00    -0.510 NA
ATOM      4  C   LIG    1        0.002  -0.004   0.002  0.00  0.00    +0.360 A 
ATOM      5  C   LIG    1       -1.194  -0.719   0.015  0.00  0.00    +0.160 A 
ATOM      6  N   LIG    1       -1.171  -2.038   0.002  0.00  0.00    -0.390 NA
ENDROOT
BRANCH   1   8
ATOM      7  C   LIG    1       -1.430  -4.718  -0.010  0.00  0.00    +0.030 C 
ATOM      8  C   LIG    1        0.005  -4.188  -0.021  0.00  0.00    +0.190 C 
ATOM      9  C   LIG    1        0.722  -4.681  -1.279  0.00  0.00    +0.070 C 
BRANCH   8  10
ATOM     10  O   LIG    1        0.697  -4.661   1.137  0.00  0.00    -0.550 OA
ATOM     11  H   LIG    1        0.297  -4.386   1.974  0.00  0.00    +0.380 HD
ENDBRANCH   8  10
ENDBRANCH   1   8
BRANCH   4  12
ATOM     12  N   LIG    1       -0.017   1.386   0.010  0.00  0.00    -0.840 N 
ATOM     13  H   LIG    1       -0.863   1.859   0.016  0.00  0.00    +0.410 HD
ATOM     14  H   LIG    1        0.817   1.882   0.004  0.00  0.00    +0.410 HD
ENDBRANCH   4  12
TORSDOF 3
