REMARK  Name = ZINCvU0000000AAl.2
REMARK                            x       y       z     vdW  Elec       q    Type
REMARK                         _______ _______ _______ _____ _____    ______ ____
ROOT
ATOM      1  C   LIG    1        0.243  -2.006  -1.354  0.00  0.00    -0.070 A 
ATOM      2  C   LIG    1        1.233  -2.870  -0.924  0.00  0.00    +0.010 A 
ATOM      3  C   LIG    1        1.028  -4.236  -0.973  0.00  0.00    -0.100 A 
ATOM      4  C   LIG    1       -0.167  -4.740  -1.463  0.00  0.00    +0.090 A 
ATOM      5  C   LIG    1       -1.157  -3.871  -1.899  0.00  0.00    -0.100 A 
ATOM      6  C   LIG    1       -2.457  -4.415  -2.432  0.00  0.00    +0.100 C 
ATOM      7  C   LIG    1        2.106  -5.177  -0.498  0.00  0.00    +0.100 C 
ATOM      8  C   LIG    1       -0.950  -2.506  -1.843  0.00  0.00    +0.040 A 
ENDROOT
BRANCH   1   9
ATOM      9  C   LIG    1        0.466  -0.517  -1.294  0.00  0.00    +0.210 C 
BRANCH   9  10
ATOM     10  N   LIG    1        0.002  -0.004   0.002  0.00  0.00    -0.530 NA
ATOM     11  C   LIG    1        0.827  -0.525   1.100  0.00  0.00    +0.200 C 
BRANCH  10  12
ATOM     12  C   LIG    1       -0.018   1.465   0.010  0.00  0.00    +0.240 C 
BRANCH  12  18
ATOM     13  C   LIG    1       -0.046   1.987   2.462  0.00  0.00    +0.130 A 
ATOM     14  C   LIG    1       -0.691   2.432   3.603  0.00  0.00    -0.020 A 
ATOM     15  C   LIG    1       -2.022   2.845   3.531  0.00  0.00    +0.010 A 
ATOM     16  C   LIG    1       -2.695   2.805   2.308  0.00  0.00    +0.040 A 
ATOM     17  C   LIG    1       -2.040   2.365   1.175  0.00  0.00    +0.080 A 
ATOM     18  C   LIG    1       -0.723   1.951   1.250  0.00  0.00    -0.080 A 
BRANCH  13  20
ATOM     19  C   LIG    1        1.885   1.647   3.806  0.00  0.00    +0.240 C 
ATOM     20  O   LIG    1        1.250   1.584   2.528  0.00  0.00    -0.310 OA
ENDBRANCH  13  20
BRANCH  15  21
ATOM     21  C   LIG    1       -2.696   3.307   4.707  0.00  0.00    +0.250 C 
ATOM     22  N   LIG    1       -3.231   3.674   5.639  0.00  0.00    -0.410 NA
ENDBRANCH  15  21
ENDBRANCH  12  18
ENDBRANCH  10  12
ENDBRANCH   9  10
ENDBRANCH   1   9
BRANCH   4  23
ATOM     23  O   LIG    1       -0.369  -6.083  -1.517  0.00  0.00    -0.320 OA
BRANCH  23  24
ATOM     24  C   LIG    1        0.028  -6.751  -2.716  0.00  0.00    +0.230 C 
BRANCH  24  25
ATOM     25  C   LIG    1       -0.270  -8.223  -2.593  0.00  0.00    -0.090 A 
ATOM     26  C   LIG    1        0.685  -9.081  -2.080  0.00  0.00    +0.020 A 
ATOM     27  C   LIG    1        0.410 -10.431  -1.963  0.00  0.00    +0.000 A 
ATOM     28  C   LIG    1       -0.816 -10.924  -2.367  0.00  0.00    +0.010 A 
ATOM     29  C   LIG    1       -1.770 -10.067  -2.885  0.00  0.00    -0.090 A 
ATOM     30  C   LIG    1       -3.107 -10.604  -3.326  0.00  0.00    +0.090 C 
ATOM     31  C   LIG    1       -1.496  -8.717  -2.998  0.00  0.00    +0.020 A 
ENDBRANCH  24  25
ENDBRANCH  23  24
ENDBRANCH   4  23
TORSDOF 9
