REMARK  Name = ZINCnE000004wuLh.1
REMARK                            x       y       z     vdW  Elec       q    Type
REMARK                         _______ _______ _______ _____ _____    ______ ____
ROOT
ATOM      1  N   LIG    1       -1.191   1.870   0.018  0.00  0.00    -0.740 N 
ATOM      2  H   LIG    1       -1.204   2.840   0.023  0.00  0.00    +0.400 HD
ATOM      3  C   LIG    1       -0.014   1.212   0.009  0.00  0.00    +0.650 C 
ATOM      4  N   LIG    1        1.143   1.901   0.001  0.00  0.00    -0.680 NA
ATOM      5  O   LIG    1        0.002  -0.004   0.002  0.00  0.00    -0.650 OA
ENDROOT
BRANCH   4   6
ATOM      6  C   LIG    1        2.357   1.223  -0.014  0.00  0.00    +0.370 A 
ATOM      7  N   LIG    1        3.523   1.788  -0.027  0.00  0.00    -0.570 NA
ATOM      8  C   LIG    1        4.574   0.988  -0.036  0.00  0.00    +0.130 A 
ATOM      9  C   LIG    1        4.281  -0.313  -0.041  0.00  0.00    -0.240 A 
ATOM     10  S   LIG    1        2.527  -0.478  -0.025  0.00  0.00    +0.020 S 
BRANCH   8  11
ATOM     11  C   LIG    1        5.990   1.504  -0.047  0.00  0.00    +0.040 C 
ATOM     12  C   LIG    1        7.103   0.520   0.317  0.00  0.00    +0.000 C 
ATOM     13  C   LIG    1        6.708   1.625   1.299  0.00  0.00    +0.010 C 
ENDBRANCH   8  11
ENDBRANCH   4   6
BRANCH   1  14
ATOM     14  C   LIG    1       -2.449   1.120   0.020  0.00  0.00    +0.340 C 
BRANCH  14  18
ATOM     15  C   LIG    1       -5.740   3.857   0.050  0.00  0.00    -0.100 A 
ATOM     16  C   LIG    1       -5.204   3.414  -1.164  0.00  0.00    +0.180 A 
ATOM     17  C   LIG    1       -4.142   2.530  -1.165  0.00  0.00    +0.020 A 
ATOM     18  C   LIG    1       -3.608   2.083   0.030  0.00  0.00    -0.000 A 
ATOM     19  C   LIG    1       -4.134   2.512   1.236  0.00  0.00    +0.020 A 
ATOM     20  F   LIG    1       -5.725   3.848  -2.333  0.00  0.00    -0.120 F 
ATOM     21  C   LIG    1       -5.193   3.400   1.255  0.00  0.00    +0.180 A 
ATOM     22  F   LIG    1       -5.702   3.822   2.433  0.00  0.00    -0.120 F 
BRANCH  15  24
ATOM     23  N   LIG    1       -7.714   5.499   0.069  0.00  0.00    -0.390 NA
ATOM     24  C   LIG    1       -6.841   4.773   0.060  0.00  0.00    +0.250 C 
ENDBRANCH  15  24
ENDBRANCH  14  18
ENDBRANCH   1  14
TORSDOF 5
