REMARK  Name = ZINCrD0000074fHB.0
REMARK                            x       y       z     vdW  Elec       q    Type
REMARK                         _______ _______ _______ _____ _____    ______ ____
ROOT
ATOM      1  C   LIG    1       -4.026   3.122   2.906  0.00  0.00    +0.000 C 
ATOM      2  C   LIG    1       -3.015   3.539   3.975  0.00  0.00    +0.200 C 
ATOM      3  C   LIG    1       -1.626   3.031   3.588  0.00  0.00    +0.250 C 
ATOM      4  N   LIG    1       -1.176   3.759   2.392  0.00  0.00    -0.610 N 
ATOM      5  C   LIG    1       -1.258   5.229   2.405  0.00  0.00    +0.270 C 
ATOM      6  C   LIG    1       -2.670   5.630   2.848  0.00  0.00    +0.220 C 
ATOM      7  C   LIG    1       -0.708   3.100   1.313  0.00  0.00    +0.530 C 
ATOM      8  O   LIG    1       -0.307   3.720   0.351  0.00  0.00    -0.510 OA
ATOM      9  O   LIG    1       -2.986   4.965   4.074  0.00  0.00    -0.360 OA
ENDROOT
BRANCH   7  10
ATOM     10  C   LIG    1       -0.682   1.594   1.304  0.00  0.00    -0.030 C 
ATOM     11  C   LIG    1        0.188   1.089   2.459  0.00  0.00    +0.050 C 
ATOM     12  C   LIG    1        1.627   1.568   2.254  0.00  0.00    +0.210 C 
ATOM     13  O   LIG    1        2.108   1.100   0.992  0.00  0.00    -0.380 OA
ATOM     14  C   LIG    1        1.363   1.579  -0.130  0.00  0.00    +0.230 C 
ATOM     15  C   LIG    1       -0.087   1.100  -0.020  0.00  0.00    +0.040 C 
BRANCH  10  16
ATOM     16  C   LIG    1       -2.083   1.063   1.458  0.00  0.00    +0.110 A 
ATOM     17  N   LIG    1       -2.355   0.211   2.428  0.00  0.00    -0.450 NA
ATOM     18  C   LIG    1       -3.567  -0.279   2.601  0.00  0.00    +0.260 A 
ATOM     19  C   LIG    1       -4.605   0.085   1.764  0.00  0.00    +0.010 A 
ATOM     20  C   LIG    1       -4.360   0.978   0.733  0.00  0.00    +0.040 A 
ATOM     21  C   LIG    1       -3.073   1.478   0.584  0.00  0.00    +0.060 A 
ATOM     22  F   LIG    1       -2.790   2.355  -0.405  0.00  0.00    -0.120 F 
ENDBRANCH  10  16
ENDBRANCH   7  10
BRANCH   6  23
ATOM     23  C   LIG    1       -2.728   7.121   3.055  0.00  0.00    -0.110 A 
ATOM     24  C   LIG    1       -2.273   7.710   4.162  0.00  0.00    -0.010 A 
ATOM     25  S   LIG    1       -2.507   9.449   4.044  0.00  0.00    +0.110 S 
ATOM     26  C   LIG    1       -3.231   9.274   2.450  0.00  0.00    -0.040 A 
ATOM     27  C   LIG    1       -3.251   7.985   2.108  0.00  0.00    +0.010 A 
ENDBRANCH   6  23
TORSDOF 3
