REMARK  Name = ZINCqH0000031zDV.1
REMARK                            x       y       z     vdW  Elec       q    Type
REMARK                         _______ _______ _______ _____ _____    ______ ____
ROOT
ATOM      1  C   LIG    1       -9.017   5.593  -0.901  0.00  0.00    +0.090 C 
ENDROOT
BRANCH   1   2
ATOM      2  C   LIG    1       -9.399   6.446   0.310  0.00  0.00    +0.320 C 
ATOM      3  C   LIG    1      -10.691   7.171   0.030  0.00  0.00    -0.100 A 
ATOM      4  C   LIG    1      -10.687   8.401  -0.589  0.00  0.00    +0.030 A 
ATOM      5  C   LIG    1      -11.884   9.046  -0.853  0.00  0.00    +0.010 A 
ATOM      6  C   LIG    1      -13.087   8.460  -0.501  0.00  0.00    +0.020 A 
ATOM      7  C   LIG    1      -13.104   7.230   0.126  0.00  0.00    +0.020 A 
ATOM      8  C   LIG    1      -11.902   6.580   0.402  0.00  0.00    -0.030 A 
ATOM      9  C   LIG    1      -11.890   5.284   1.107  0.00  0.00    -0.040 C 
ATOM     10  C   LIG    1      -10.738   4.823   1.608  0.00  0.00    +0.240 C 
ATOM     11  N   LIG    1       -9.581   5.581   1.482  0.00  0.00    -0.560 N 
ATOM     12  C   LIG    1       -8.628   5.523   2.433  0.00  0.00    +0.510 C 
ATOM     13  O   LIG    1       -7.618   6.185   2.322  0.00  0.00    -0.480 OA
ATOM     14  C   LIG    1       -8.817   4.634   3.636  0.00  0.00    +0.100 C 
ENDBRANCH   1   2
BRANCH   1  17
ATOM     15  N   LIG    1       -7.123   4.167  -1.608  0.00  0.00    -0.630 N 
ATOM     16  H   LIG    1       -7.602   3.995  -2.434  0.00  0.00    +0.420 HD
ATOM     17  C   LIG    1       -7.666   4.966  -0.668  0.00  0.00    +0.490 C 
ATOM     18  O   LIG    1       -7.068   5.180   0.365  0.00  0.00    -0.430 OA
BRANCH  15  22
ATOM     19  C   LIG    1       -3.702   2.411  -1.337  0.00  0.00    -0.020 A 
ATOM     20  N   LIG    1       -4.028   3.132  -0.305  0.00  0.00    -0.240 NA
ATOM     21  N   LIG    1       -5.134   3.736  -0.337  0.00  0.00    -0.250 NA
ATOM     22  C   LIG    1       -5.875   3.587  -1.393  0.00  0.00    +0.250 A 
ATOM     23  S   LIG    1       -5.018   2.522  -2.508  0.00  0.00    +0.120 S 
BRANCH  19  24
ATOM     24  S   LIG    1       -2.216   1.484  -1.529  0.00  0.00    +0.020 S 
BRANCH  24  25
ATOM     25  C   LIG    1       -1.328   1.812   0.018  0.00  0.00    +0.130 C 
BRANCH  25  27
ATOM     26  C   LIG    1        1.113   1.746   0.001  0.00  0.00    +0.060 C 
ATOM     27  C   LIG    1       -0.013   1.076   0.008  0.00  0.00    -0.040 C 
ENDBRANCH  25  27
ENDBRANCH  24  25
ENDBRANCH  19  24
ENDBRANCH  15  22
ENDBRANCH   1  17
TORSDOF 6
