REMARK  Name = ZINCqH0000005Wgw.0
REMARK                            x       y       z     vdW  Elec       q    Type
REMARK                         _______ _______ _______ _____ _____    ______ ____
ROOT
ATOM      1  N   LIG    1        2.991   2.462  -2.617  0.00  0.00    -0.730 N 
ATOM      2  H   LIG    1        3.609   2.787  -1.944  0.00  0.00    +0.400 HD
ATOM      3  C   LIG    1        2.168   1.433  -2.335  0.00  0.00    +0.530 C 
ATOM      4  O   LIG    1        1.460   0.968  -3.203  0.00  0.00    -0.530 OA
ENDROOT
BRANCH   3   5
ATOM      5  C   LIG    1        2.126   0.862  -0.942  0.00  0.00    -0.040 C 
ATOM      6  C   LIG    1        1.785   1.971   0.075  0.00  0.00    +0.040 C 
ATOM      7  C   LIG    1        0.253   1.849   0.270  0.00  0.00    +0.010 C 
ATOM      8  C   LIG    1        0.026   0.317   0.240  0.00  0.00    +0.020 C 
ATOM      9  C   LIG    1        1.008  -0.190  -0.837  0.00  0.00    +0.050 C 
BRANCH   5  10
ATOM     10  C   LIG    1        3.454   0.238  -0.599  0.00  0.00    -0.080 A 
ATOM     11  C   LIG    1        4.431   0.117  -1.569  0.00  0.00    +0.040 A 
ATOM     12  C   LIG    1        5.652  -0.451  -1.255  0.00  0.00    -0.010 A 
ATOM     13  C   LIG    1        5.892  -0.907   0.030  0.00  0.00    +0.100 A 
ATOM     14  C   LIG    1        4.911  -0.790   1.000  0.00  0.00    -0.010 A 
ATOM     15  F   LIG    1        7.083  -1.466   0.337  0.00  0.00    -0.140 F 
ATOM     16  C   LIG    1        3.693  -0.217   0.684  0.00  0.00    +0.060 A 
ENDBRANCH   5  10
ENDBRANCH   3   5
BRANCH   1  17
ATOM     17  C   LIG    1        2.954   3.089  -3.941  0.00  0.00    +0.310 C 
BRANCH  17  21
ATOM     18  C   LIG    1        5.822   6.257  -4.100  0.00  0.00    -0.120 A 
ATOM     19  C   LIG    1        6.188   4.960  -4.466  0.00  0.00    +0.090 A 
ATOM     20  C   LIG    1        5.258   3.943  -4.412  0.00  0.00    +0.030 A 
ATOM     21  C   LIG    1        3.965   4.206  -3.997  0.00  0.00    -0.070 A 
ATOM     22  C   LIG    1        3.593   5.489  -3.638  0.00  0.00    +0.030 A 
ATOM     23  C   LIG    1        4.515   6.515  -3.681  0.00  0.00    +0.080 A 
BRANCH  18  24
ATOM     24  C   LIG    1        6.813   7.351  -4.156  0.00  0.00    +0.510 C 
ATOM     25  O   LIG    1        7.949   7.124  -4.521  0.00  0.00    -0.500 OA
BRANCH  24  27
ATOM     26  C   LIG    1        7.481   9.627  -3.881  0.00  0.00    +0.290 C 
ATOM     27  O   LIG    1        6.456   8.601  -3.802  0.00  0.00    -0.350 OA
ENDBRANCH  24  27
ENDBRANCH  18  24
ENDBRANCH  17  21
ENDBRANCH   1  17
TORSDOF 6
