REMARK  Name = ZINCkj00000y05dL.0
REMARK                            x       y       z     vdW  Elec       q    Type
REMARK                         _______ _______ _______ _____ _____    ______ ____
ROOT
ATOM      1  C   LIG    1       -3.203  -1.892   1.529  0.00  0.00    +0.320 C 
ATOM      2  N   LIG    1       -3.617  -0.553   1.089  0.00  0.00    -0.390 N 
ATOM      3  C   LIG    1       -4.488  -0.678  -0.084  0.00  0.00    +0.260 C 
ATOM      4  C   LIG    1       -3.754  -1.399  -1.220  0.00  0.00    +0.090 C 
ATOM      5  C   LIG    1       -2.503  -0.597  -1.574  0.00  0.00    +0.150 C 
ATOM      6  O   LIG    1       -1.744  -1.217  -2.607  0.00  0.00    -0.350 OA
ATOM      7  C   LIG    1       -0.615  -0.440  -3.023  0.00  0.00    +0.240 C 
ATOM      8  C   LIG    1        0.345  -0.235  -1.847  0.00  0.00    +0.280 C 
ATOM      9  N   LIG    1       -0.416   0.260  -0.685  0.00  0.00    -0.600 N 
ATOM     10  C   LIG    1       -0.016   1.344   0.009  0.00  0.00    +0.580 C 
ATOM     11  O   LIG    1       -0.716   1.789   0.897  0.00  0.00    -0.510 OA
ATOM     12  C   LIG    1       -1.625  -0.485  -0.315  0.00  0.00    +0.200 C 
ATOM     13  C   LIG    1       -2.423   0.242   0.765  0.00  0.00    +0.300 C 
ATOM     14  H   LIG    1       -4.125  -0.101   1.834  0.00  0.00    +0.440 HD
ENDROOT
BRANCH  10  15
ATOM     15  C   LIG    1        1.274   1.996  -0.314  0.00  0.00    -0.070 A 
ATOM     16  C   LIG    1        2.438   1.240  -0.484  0.00  0.00    +0.010 A 
ATOM     17  C   LIG    1        3.619   1.889  -0.790  0.00  0.00    +0.300 A 
ATOM     18  N   LIG    1        3.659   3.201  -0.911  0.00  0.00    -0.450 NA
ATOM     19  C   LIG    1        2.587   3.951  -0.754  0.00  0.00    +0.320 A 
ATOM     20  C   LIG    1        1.362   3.385  -0.452  0.00  0.00    -0.110 A 
ATOM     21 BR   LIG    1       -0.169   4.472  -0.228  0.00  0.00    -0.000 Br
ENDBRANCH  10  15
TORSDOF 1
