REMARK  Name = ZINCkj00000y05dL.1
REMARK                            x       y       z     vdW  Elec       q    Type
REMARK                         _______ _______ _______ _____ _____    ______ ____
ROOT
ATOM      1  C   LIG    1       -2.855   1.547  -2.435  0.00  0.00    +0.340 C 
ATOM      2  N   LIG    1       -2.176   1.069  -1.223  0.00  0.00    -0.390 N 
ATOM      3  C   LIG    1       -0.784   1.528  -1.235  0.00  0.00    +0.260 C 
ATOM      4  C   LIG    1       -0.039   1.009  -0.000  0.00  0.00    +0.090 C 
ATOM      5  C   LIG    1       -0.750   1.522   1.250  0.00  0.00    +0.150 C 
ATOM      6  O   LIG    1       -0.131   1.057   2.446  0.00  0.00    -0.350 OA
ATOM      7  C   LIG    1       -0.721   1.598   3.635  0.00  0.00    +0.250 C 
ATOM      8  C   LIG    1       -2.193   1.188   3.724  0.00  0.00    +0.280 C 
ATOM      9  N   LIG    1       -2.872   1.495   2.436  0.00  0.00    -0.600 N 
ATOM     10  C   LIG    1       -4.033   2.178   2.389  0.00  0.00    +0.580 C 
ATOM     11  O   LIG    1       -4.498   2.513   1.318  0.00  0.00    -0.510 OA
ATOM     12  C   LIG    1       -2.207   1.028   1.214  0.00  0.00    +0.200 C 
ATOM     13  C   LIG    1       -2.881   1.582  -0.039  0.00  0.00    +0.300 C 
ATOM     14  H   LIG    1       -2.193   0.060  -1.209  0.00  0.00    +0.420 HD
ENDROOT
BRANCH  10  15
ATOM     15  C   LIG    1       -4.742   2.519   3.644  0.00  0.00    -0.070 A 
ATOM     16  C   LIG    1       -5.066   1.531   4.578  0.00  0.00    +0.010 A 
ATOM     17  C   LIG    1       -5.722   1.895   5.738  0.00  0.00    +0.300 A 
ATOM     18  N   LIG    1       -6.051   3.151   5.965  0.00  0.00    -0.450 NA
ATOM     19  C   LIG    1       -5.770   4.113   5.109  0.00  0.00    +0.320 A 
ATOM     20  C   LIG    1       -5.110   3.840   3.926  0.00  0.00    -0.110 A 
ATOM     21 BR   LIG    1       -4.710   5.229   2.706  0.00  0.00    -0.010 Br
ENDBRANCH  10  15
TORSDOF 1
