REMARK  Name = ZINCfA000001uDUV.0
REMARK                            x       y       z     vdW  Elec       q    Type
REMARK                         _______ _______ _______ _____ _____    ______ ____
ROOT
ATOM      1  C   LIG    1        0.710  -1.985  -1.215  0.00  0.00    -0.120 C 
ATOM      2  C   LIG    1        0.224  -2.648  -2.254  0.00  0.00    +0.120 C 
ENDROOT
BRANCH   2   3
ATOM      3  C   LIG    1        0.244  -4.126  -2.263  0.00  0.00    -0.110 A 
ATOM      4  C   LIG    1        0.779  -4.825  -1.180  0.00  0.00    +0.070 A 
ATOM      5  C   LIG    1        0.792  -6.204  -1.191  0.00  0.00    -0.020 A 
ATOM      6  C   LIG    1        0.283  -6.896  -2.278  0.00  0.00    +0.130 A 
ATOM      7  C   LIG    1       -0.245  -6.207  -3.358  0.00  0.00    -0.010 A 
ATOM      8  F   LIG    1        0.302  -8.247  -2.286  0.00  0.00    -0.130 F 
ATOM      9  C   LIG    1       -0.267  -4.827  -3.356  0.00  0.00    +0.080 A 
ENDBRANCH   2   3
BRANCH   1  10
ATOM     10  C   LIG    1        0.690  -0.478  -1.207  0.00  0.00    +0.310 C 
BRANCH  10  11
ATOM     11  N   LIG    1        0.002  -0.004   0.002  0.00  0.00    -0.510 N 
ATOM     12  H   LIG    1       -0.945  -0.353   0.009  0.00  0.00    +0.430 HD
ATOM     13  H   LIG    1        0.490  -0.338   0.820  0.00  0.00    +0.430 HD
BRANCH  11  14
ATOM     14  C   LIG    1       -0.018   1.465   0.010  0.00  0.00    +0.310 C 
BRANCH  14  16
ATOM     15  C   LIG    1       -0.031   2.266   2.317  0.00  0.00    +0.120 C 
ATOM     16  C   LIG    1       -0.723   1.951   1.250  0.00  0.00    -0.200 C 
ATOM     17  C   LIG    1       -2.225   2.074   1.263  0.00  0.00    +0.090 C 
ENDBRANCH  14  16
ENDBRANCH  11  14
ENDBRANCH  10  11
ENDBRANCH   1  10
TORSDOF 5
