REMARK  Name = ZINCpk00000eavdN.0
REMARK                            x       y       z     vdW  Elec       q    Type
REMARK                         _______ _______ _______ _____ _____    ______ ____
ROOT
ATOM      1  C   LIG    1       -4.478  -4.041  -3.025  0.00  0.00    +0.230 C 
ENDROOT
BRANCH   1   4
ATOM      2  N   LIG    1       -2.894  -3.112  -1.368  0.00  0.00    -0.730 N 
ATOM      3  H   LIG    1       -2.360  -2.785  -2.109  0.00  0.00    +0.400 HD
ATOM      4  C   LIG    1       -4.034  -3.791  -1.607  0.00  0.00    +0.510 C 
ATOM      5  O   LIG    1       -4.701  -4.200  -0.681  0.00  0.00    -0.500 OA
BRANCH   2   6
ATOM      6  C   LIG    1       -2.462  -2.869   0.010  0.00  0.00    +0.320 C 
BRANCH   6  11
ATOM      7  C   LIG    1        0.002  -0.004   0.002  0.00  0.00    +0.130 A 
ATOM      8  C   LIG    1        1.212  -0.682  -0.019  0.00  0.00    -0.070 A 
ATOM      9  C   LIG    1        1.228  -2.064  -0.020  0.00  0.00    +0.050 A 
ATOM     10  C   LIG    1        0.040  -2.770  -0.013  0.00  0.00    -0.010 A 
ATOM     11  C   LIG    1       -1.168  -2.096   0.002  0.00  0.00    -0.070 A 
ATOM     12  C   LIG    1       -1.189  -0.715   0.010  0.00  0.00    +0.000 A 
BRANCH   7  14
ATOM     13  C   LIG    1        1.248   2.021   0.001  0.00  0.00    +0.250 C 
ATOM     14  O   LIG    1       -0.016   1.355   0.009  0.00  0.00    -0.320 OA
ENDBRANCH   7  14
ENDBRANCH   6  11
ENDBRANCH   2   6
ENDBRANCH   1   4
BRANCH   1  15
ATOM     15  O   LIG    1       -5.705  -4.774  -3.018  0.00  0.00    -0.250 OA
BRANCH  15  16
ATOM     16  C   LIG    1       -6.245  -5.084  -4.223  0.00  0.00    +0.230 A 
ATOM     17  C   LIG    1       -5.614  -4.687  -5.389  0.00  0.00    -0.120 A 
ATOM     18  C   LIG    1       -6.165  -5.010  -6.621  0.00  0.00    +0.200 A 
ATOM     19  C   LIG    1       -7.358  -5.722  -6.691  0.00  0.00    -0.110 A 
ATOM     20  C   LIG    1       -7.998  -6.117  -5.538  0.00  0.00    +0.130 A 
ATOM     21  C   LIG    1       -7.449  -5.802  -4.292  0.00  0.00    -0.210 A 
BRANCH  21  22
ATOM     22  C   LIG    1       -8.130  -6.223  -3.055  0.00  0.00    +0.560 C 
ATOM     23  O   LIG    1       -7.651  -5.947  -1.972  0.00  0.00    -0.510 OA
ATOM     24  N   LIG    1       -9.286  -6.912  -3.125  0.00  0.00    -0.860 N 
ATOM     25  H   LIG    1       -9.735  -7.189  -2.311  0.00  0.00    +0.400 HD
ATOM     26  H   LIG    1       -9.669  -7.132  -3.988  0.00  0.00    +0.400 HD
ENDBRANCH  21  22
BRANCH  18  27
ATOM     27  O   LIG    1       -5.541  -4.624  -7.762  0.00  0.00    -0.310 OA
ATOM     28  C   LIG    1       -6.165  -4.983  -8.996  0.00  0.00    +0.240 C 
ENDBRANCH  18  27
ENDBRANCH  15  16
ENDBRANCH   1  15
TORSDOF 8
