REMARK  Name = ZINCc70000002zKr.0
REMARK                            x       y       z     vdW  Elec       q    Type
REMARK                         _______ _______ _______ _____ _____    ______ ____
ROOT
ATOM      1  C   LIG    1        1.280   1.975   0.000  0.00  0.00    +0.170 C 
ATOM      2  O   LIG    1        2.308   1.562   0.904  0.00  0.00    -0.300 OA
ATOM      3  C   LIG    1        1.641   2.773   1.251  0.00  0.00    +0.010 C 
ATOM      4  C   LIG    1        2.400   4.091   1.069  0.00  0.00    +0.090 C 
ATOM      5  C   LIG    1        3.020   4.481   2.417  0.00  0.00    +0.010 C 
ATOM      6  C   LIG    1        1.925   4.493   3.486  0.00  0.00    +0.210 C 
ATOM      7  O   LIG    1        1.349   3.192   3.604  0.00  0.00    -0.370 OA
ATOM      8  C   LIG    1        0.664   2.747   2.429  0.00  0.00    +0.270 C 
ENDROOT
BRANCH   1   9
ATOM      9  C   LIG    1       -0.014   1.204   0.009  0.00  0.00    +0.470 C 
ATOM     10  O   LIG    1        0.002  -0.004   0.002  0.00  0.00    -0.480 OA
BRANCH   9  12
ATOM     11  C   LIG    1       -2.393   1.052   0.019  0.00  0.00    +0.280 C 
ATOM     12  O   LIG    1       -1.186   1.859   0.018  0.00  0.00    -0.350 OA
ENDBRANCH   9  12
ENDBRANCH   1   9
TORSDOF 2
