REMARK  Name = ZINCpk00000eaACm.0
REMARK                            x       y       z     vdW  Elec       q    Type
REMARK                         _______ _______ _______ _____ _____    ______ ____
ROOT
ATOM      1  C   LIG    1       -0.642  -4.174   1.549  0.00  0.00    +0.050 C 
ATOM      2  C   LIG    1       -1.747  -5.046   0.909  0.00  0.00    +0.100 C 
ATOM      3  C   LIG    1       -1.900  -6.211   1.862  0.00  0.00    +0.530 C 
ATOM      4  N   LIG    1       -1.329  -5.919   3.043  0.00  0.00    -0.580 N 
ATOM      5  O   LIG    1       -2.455  -7.256   1.598  0.00  0.00    -0.500 OA
ATOM      6  C   LIG    1       -0.752  -4.570   3.038  0.00  0.00    +0.320 C 
ENDROOT
BRANCH   4   7
ATOM      7  C   LIG    1       -1.290  -6.792   4.139  0.00  0.00    +0.090 A 
ATOM      8  C   LIG    1       -0.231  -7.676   4.286  0.00  0.00    +0.100 A 
ATOM      9  C   LIG    1       -0.191  -8.532   5.370  0.00  0.00    +0.000 A 
ATOM     10  C   LIG    1       -1.212  -8.516   6.304  0.00  0.00    +0.140 A 
ATOM     11  C   LIG    1       -2.274  -7.639   6.158  0.00  0.00    -0.030 A 
ATOM     12  F   LIG    1       -1.173  -9.358   7.361  0.00  0.00    -0.120 F 
ATOM     13  C   LIG    1       -2.316  -6.777   5.078  0.00  0.00    +0.140 A 
ATOM     14  F   LIG    1       -3.351  -5.921   4.935  0.00  0.00    -0.120 F 
ENDBRANCH   4   7
BRANCH   1  15
ATOM     15  C   LIG    1       -0.933  -2.708   1.357  0.00  0.00    +0.480 C 
ATOM     16  O   LIG    1       -1.097  -1.994   2.318  0.00  0.00    -0.490 OA
BRANCH  15  17
ATOM     17  O   LIG    1       -1.010  -2.195   0.119  0.00  0.00    -0.320 OA
BRANCH  17  18
ATOM     18  C   LIG    1       -1.293  -0.775   0.010  0.00  0.00    +0.200 C 
BRANCH  18  19
ATOM     19  C   LIG    1        0.002  -0.004   0.002  0.00  0.00    +0.510 C 
ATOM     20  O   LIG    1        1.060  -0.596  -0.011  0.00  0.00    -0.520 OA
ATOM     21  N   LIG    1       -0.016   1.344   0.009  0.00  0.00    -0.850 N 
ATOM     22  H   LIG    1       -0.863   1.817   0.016  0.00  0.00    +0.400 HD
ATOM     23  H   LIG    1        0.817   1.840   0.004  0.00  0.00    +0.410 HD
ENDBRANCH  18  19
BRANCH  18  24
ATOM     24  C   LIG    1       -2.055  -0.505  -1.288  0.00  0.00    +0.100 C 
BRANCH  24  25
ATOM     25  C   LIG    1       -3.423  -1.188  -1.228  0.00  0.00    +0.090 C 
BRANCH  25  27
ATOM     26  C   LIG    1       -5.896  -1.742  -2.509  0.00  0.00    +0.140 C 
ATOM     27  S   LIG    1       -4.327  -0.868  -2.767  0.00  0.00    -0.250 S 
ENDBRANCH  25  27
ENDBRANCH  24  25
ENDBRANCH  18  24
ENDBRANCH  17  18
ENDBRANCH  15  17
ENDBRANCH   1  15
TORSDOF 8
