REMARK  Name = ZINCrD000000AxNY.0
REMARK                            x       y       z     vdW  Elec       q    Type
REMARK                         _______ _______ _______ _____ _____    ______ ____
ROOT
ATOM      1  O   LIG    1       -7.004   3.746   1.572  0.00  0.00    -0.520 OA
ATOM      2  C   LIG    1       -6.090   4.532   1.707  0.00  0.00    +0.520 C 
ATOM      3  N   LIG    1       -5.003   4.444   0.916  0.00  0.00    -0.620 N 
ATOM      4  C   LIG    1       -4.904   3.401  -0.117  0.00  0.00    +0.290 C 
ATOM      5  C   LIG    1       -3.563   2.677   0.049  0.00  0.00    +0.210 C 
ATOM      6  N   LIG    1       -2.474   3.662   0.044  0.00  0.00    -0.470 N 
ATOM      7  C   LIG    1       -2.583   4.584   1.183  0.00  0.00    +0.200 C 
ATOM      8  C   LIG    1       -3.884   5.386   1.063  0.00  0.00    +0.290 C 
ENDROOT
BRANCH   6   9
ATOM      9  C   LIG    1       -1.234   3.034   0.029  0.00  0.00    +0.320 A 
ATOM     10  C   LIG    1       -0.073   3.800   0.022  0.00  0.00    -0.010 A 
ATOM     11  C   LIG    1        1.154   3.162   0.008  0.00  0.00    -0.100 A 
ATOM     12  C   LIG    1        1.179   1.774   0.000  0.00  0.00    -0.020 A 
ATOM     13  C   LIG    1       -0.013   1.076   0.008  0.00  0.00    +0.300 A 
ATOM     14  N   LIG    1       -1.169   1.711   0.017  0.00  0.00    -0.510 NA
BRANCH  11  15
ATOM     15  C   LIG    1        2.435   3.955  -0.001  0.00  0.00    +0.440 C 
ATOM     16  F   LIG    1        2.224   5.175  -0.652  0.00  0.00    -0.190 F 
ATOM     17  F   LIG    1        3.427   3.233  -0.674  0.00  0.00    -0.190 F 
ENDBRANCH  11  15
ENDBRANCH   6   9
BRANCH   2  18
ATOM     18  C   LIG    1       -6.171   5.608   2.759  0.00  0.00    +0.140 C 
BRANCH  18  19
ATOM     19  C   LIG    1       -7.478   5.489   3.501  0.00  0.00    -0.160 A 
ATOM     20  C   LIG    1       -8.608   6.164   3.240  0.00  0.00    +0.240 A 
ATOM     21  N   LIG    1       -9.588   5.790   4.119  0.00  0.00    -0.590 N 
ATOM     22  H   LIG    1      -10.493   6.140   4.126  0.00  0.00    +0.420 HD
ATOM     23  C   LIG    1       -9.097   4.849   4.995  0.00  0.00    +0.100 A 
ATOM     24  C   LIG    1       -9.652   4.155   6.065  0.00  0.00    -0.010 A 
ATOM     25  C   LIG    1       -8.883   3.253   6.768  0.00  0.00    +0.030 A 
ATOM     26  C   LIG    1       -7.558   3.029   6.420  0.00  0.00    -0.020 A 
ATOM     27  C   LIG    1       -6.993   3.700   5.372  0.00  0.00    +0.050 A 
ATOM     28  C   LIG    1       -7.753   4.619   4.646  0.00  0.00    -0.090 A 
ENDBRANCH  18  19
ENDBRANCH   2  18
TORSDOF 4
