REMARK  Name = ZINCvU0000000CoZ.0
REMARK                            x       y       z     vdW  Elec       q    Type
REMARK                         _______ _______ _______ _____ _____    ______ ____
ROOT
ATOM      1  C   LIG    1        3.747  -0.967   0.168  0.00  0.00    +0.050 C 
ENDROOT
BRANCH   1   2
ATOM      2  C   LIG    1        4.058  -1.079   1.639  0.00  0.00    -0.090 A 
ATOM      3  C   LIG    1        3.111  -1.586   2.509  0.00  0.00    +0.040 A 
ATOM      4  C   LIG    1        3.397  -1.692   3.857  0.00  0.00    +0.010 A 
ATOM      5  C   LIG    1        4.628  -1.283   4.336  0.00  0.00    +0.020 A 
ATOM      6  C   LIG    1        5.573  -0.772   3.467  0.00  0.00    +0.010 A 
ATOM      7  C   LIG    1        5.288  -0.669   2.118  0.00  0.00    +0.020 A 
ENDBRANCH   1   2
BRANCH   1   9
ATOM      8  O   LIG    1        1.421  -0.701  -0.131  0.00  0.00    -0.490 OA
ATOM      9  C   LIG    1        2.496  -0.149  -0.020  0.00  0.00    +0.540 C 
ATOM     10  N   LIG    1        2.571   1.196  -0.066  0.00  0.00    -0.660 N 
ATOM     11  H   LIG    1        3.436   1.635  -0.047  0.00  0.00    +0.420 HD
BRANCH  10  12
ATOM     12  C   LIG    1        1.400   1.960  -0.140  0.00  0.00    +0.150 A 
ATOM     13  C   LIG    1        1.327   3.186   0.508  0.00  0.00    +0.080 A 
ATOM     14  C   LIG    1        0.169   3.935   0.438  0.00  0.00    +0.070 A 
ATOM     15  C   LIG    1       -0.914   3.470  -0.287  0.00  0.00    -0.000 A 
ATOM     16  C   LIG    1       -0.845   2.248  -0.933  0.00  0.00    -0.020 A 
ATOM     17 CL   LIG    1       -2.366   4.417  -0.379  0.00  0.00    -0.000 Cl
ATOM     18  C   LIG    1        0.309   1.492  -0.861  0.00  0.00    +0.130 A 
BRANCH  16  19
ATOM     19  N   LIG    1       -2.008   1.750  -1.701  0.00  0.00    +0.020 N 
ATOM     20  O   LIG    1       -3.026   2.416  -1.765  0.00  0.00    -0.130 OA
ATOM     21  O   LIG    1       -1.947   0.675  -2.271  0.00  0.00    -0.150 OA
ENDBRANCH  16  19
ENDBRANCH  10  12
ENDBRANCH   1   9
BRANCH   1  22
ATOM     22  S   LIG    1        3.496  -2.625  -0.524  0.00  0.00    -0.040 S 
BRANCH  22  23
ATOM     23  C   LIG    1        5.089  -3.362  -0.376  0.00  0.00    -0.140 A 
ATOM     24  C   LIG    1        5.389  -4.155   0.724  0.00  0.00    +0.090 A 
ATOM     25  C   LIG    1        6.638  -4.732   0.841  0.00  0.00    +0.020 A 
ATOM     26  C   LIG    1        7.596  -4.524  -0.140  0.00  0.00    +0.080 A 
ATOM     27  O   LIG    1        8.824  -5.100  -0.006  0.00  0.00    -0.300 OA
ATOM     28  C   LIG    1        9.632  -5.175  -1.185  0.00  0.00    +0.230 C 
ATOM     29  C   LIG    1        9.588  -3.810  -1.886  0.00  0.00    +0.230 C 
ATOM     30  O   LIG    1        8.226  -3.521  -2.219  0.00  0.00    -0.300 OA
ATOM     31  C   LIG    1        7.299  -3.733  -1.244  0.00  0.00    +0.040 A 
ATOM     32  C   LIG    1        6.045  -3.156  -1.363  0.00  0.00    +0.080 A 
ENDBRANCH  22  23
ENDBRANCH   1  22
TORSDOF 6
