REMARK  Name = ZINCpe000000SU7Z.0
REMARK                            x       y       z     vdW  Elec       q    Type
REMARK                         _______ _______ _______ _____ _____    ______ ____
ROOT
ATOM      1  N   LIG    1       -6.795   0.135   6.299  0.00  0.00    -0.740 N 
ATOM      2  H   LIG    1       -7.326   0.939   6.188  0.00  0.00    +0.400 HD
ATOM      3  C   LIG    1       -5.608   0.018   5.672  0.00  0.00    +0.710 C 
ATOM      4  N   LIG    1       -5.158   1.019   4.890  0.00  0.00    -0.750 N 
ATOM      5  H   LIG    1       -5.688   1.823   4.778  0.00  0.00    +0.400 HD
ATOM      6  O   LIG    1       -4.943  -0.991   5.812  0.00  0.00    -0.590 OA
ENDROOT
BRANCH   1   7
ATOM      7  C   LIG    1       -7.285  -0.953   7.150  0.00  0.00    +0.260 C 
BRANCH   7   8
ATOM      8  C   LIG    1       -8.644  -0.569   7.737  0.00  0.00    +0.210 C 
BRANCH   8   9
ATOM      9  O   LIG    1       -9.603  -0.452   6.684  0.00  0.00    -0.550 OA
ATOM     10  H   LIG    1       -9.731  -1.265   6.177  0.00  0.00    +0.380 HD
ENDBRANCH   8   9
BRANCH   8  11
ATOM     11  C   LIG    1       -9.098  -1.649   8.722  0.00  0.00    +0.150 C 
BRANCH  11  12
ATOM     12  O   LIG    1      -10.309  -1.235   9.357  0.00  0.00    -0.380 OA
BRANCH  12  13
ATOM     13  C   LIG    1      -10.821  -2.178  10.302  0.00  0.00    +0.160 C 
BRANCH  13  15
ATOM     14  C   LIG    1      -13.186  -1.523   9.832  0.00  0.00    +0.010 C 
ATOM     15  C   LIG    1      -12.112  -1.634  10.916  0.00  0.00    -0.020 C 
ATOM     16  C   LIG    1      -12.593  -2.583  12.015  0.00  0.00    +0.030 C 
ENDBRANCH  13  15
ENDBRANCH  12  13
ENDBRANCH  11  12
ENDBRANCH   8  11
ENDBRANCH   7   8
ENDBRANCH   1   7
BRANCH   4  17
ATOM     17  C   LIG    1       -3.867   0.891   4.208  0.00  0.00    +0.300 C 
BRANCH  17  18
ATOM     18  C   LIG    1       -3.595   2.156   3.391  0.00  0.00    +0.160 C 
BRANCH  18  19
ATOM     19  C   LIG    1       -2.268   2.026   2.690  0.00  0.00    +0.170 A 
ATOM     20  N   LIG    1       -1.103   2.390   3.158  0.00  0.00    -0.280 NA
ATOM     21  N   LIG    1       -0.186   2.124   2.296  0.00  0.00    -0.290 NA
ATOM     22  C   LIG    1       -0.721   1.573   1.245  0.00  0.00    +0.190 A 
ATOM     23  C   LIG    1       -0.013   1.086   0.008  0.00  0.00    +0.150 C 
ATOM     24  C   LIG    1       -0.756   1.595  -1.230  0.00  0.00    +0.020 C 
ATOM     25  C   LIG    1       -1.846   0.599  -1.617  0.00  0.00    +0.020 C 
ATOM     26  C   LIG    1       -2.428  -0.068  -0.371  0.00  0.00    +0.030 C 
ATOM     27  C   LIG    1       -3.065   0.992   0.532  0.00  0.00    +0.290 C 
ATOM     28  N   LIG    1       -2.058   1.509   1.459  0.00  0.00    -0.470 N 
ENDBRANCH  18  19
ENDBRANCH  17  18
ENDBRANCH   4  17
TORSDOF 10
