REMARK  Name = ZINCrH000004tEdN.0
REMARK                            x       y       z     vdW  Elec       q    Type
REMARK                         _______ _______ _______ _____ _____    ______ ____
ROOT
ATOM      1  O   LIG    1        0.989   6.817   0.029  0.00  0.00    -0.530 OA
ATOM      2  C   LIG    1        2.200   6.751   0.017  0.00  0.00    +0.520 C 
ATOM      3  N   LIG    1        2.936   7.880   0.015  0.00  0.00    -0.730 N 
ATOM      4  H   LIG    1        3.904   7.827   0.005  0.00  0.00    +0.410 HD
ENDROOT
BRANCH   3   5
ATOM      5  C   LIG    1        2.273   9.187   0.029  0.00  0.00    +0.410 C 
BRANCH   5   6
ATOM      6  C   LIG    1        3.313  10.277   0.024  0.00  0.00    +0.130 A 
ATOM      7  N   LIG    1        3.853  10.835   1.077  0.00  0.00    -0.210 NA
ATOM      8  N   LIG    1        4.707  11.729   0.719  0.00  0.00    -0.270 NA
ATOM      9  C   LIG    1        4.751  11.795  -0.602  0.00  0.00    +0.210 A 
ATOM     10  C   LIG    1        5.486  12.581  -1.509  0.00  0.00    +0.110 A 
ATOM     11  C   LIG    1        5.299  12.405  -2.845  0.00  0.00    +0.100 A 
ATOM     12  C   LIG    1        4.378  11.445  -3.299  0.00  0.00    -0.190 A 
ATOM     13  C   LIG    1        3.680  10.699  -2.418  0.00  0.00    +0.330 A 
ATOM     14  N   LIG    1        3.858  10.865  -1.076  0.00  0.00    -0.390 N 
BRANCH  12  15
ATOM     15  C   LIG    1        4.169  11.249  -4.778  0.00  0.00    +0.520 C 
ATOM     16  F   LIG    1        3.700   9.952  -5.015  0.00  0.00    -0.170 F 
ATOM     17  F   LIG    1        5.382  11.436  -5.450  0.00  0.00    -0.160 F 
ATOM     18  F   LIG    1        3.230  12.176  -5.244  0.00  0.00    -0.170 F 
ENDBRANCH  12  15
ENDBRANCH   5   6
ENDBRANCH   3   5
BRANCH   2  19
ATOM     19  C   LIG    1        2.881   5.407   0.003  0.00  0.00    +0.080 C 
BRANCH  19  20
ATOM     20  C   LIG    1        1.825   4.300   0.007  0.00  0.00    +0.060 C 
BRANCH  20  21
ATOM     21  C   LIG    1        2.506   2.956  -0.006  0.00  0.00    +0.430 C 
ATOM     22  O   LIG    1        3.719   2.890  -0.019  0.00  0.00    -0.450 OA
BRANCH  21  23
ATOM     23  C   LIG    1        1.736   1.774  -0.005  0.00  0.00    -0.310 A 
ATOM     24  C   LIG    1        2.237   0.496  -0.017  0.00  0.00    +0.130 A 
ATOM     25  C   LIG    1        1.262  -0.468  -0.013  0.00  0.00    +0.010 A 
ATOM     26  C   LIG    1        0.002  -0.004   0.002  0.00  0.00    -0.160 A 
ATOM     27 CL   LIG    1       -1.415  -1.007   0.010  0.00  0.00    +0.000 Cl
ATOM     28  S   LIG    1       -0.021   1.702   0.011  0.00  0.00    +0.290 S 
ENDBRANCH  21  23
ENDBRANCH  20  21
ENDBRANCH  19  20
ENDBRANCH   2  19
TORSDOF 7
