REMARK  Name = ZINCpe00000MJKQe.0
REMARK                            x       y       z     vdW  Elec       q    Type
REMARK                         _______ _______ _______ _____ _____    ______ ____
ROOT
ATOM      1  N   LIG    1       -1.924   2.401  -3.517  0.00  0.00    -0.520 N 
ATOM      2  C   LIG    1       -0.699   1.839  -3.514  0.00  0.00    +0.580 A 
ATOM      3  N   LIG    1       -0.136   1.449  -2.405  0.00  0.00    -0.540 NA
ATOM      4  C   LIG    1       -0.740   1.584  -1.215  0.00  0.00    +0.160 A 
ATOM      5  C   LIG    1       -1.967   2.156  -1.149  0.00  0.00    -0.230 A 
ATOM      6  C   LIG    1       -2.711   2.373   0.139  0.00  0.00    +0.100 C 
ATOM      7  C   LIG    1       -2.166   1.464   1.242  0.00  0.00    +0.320 C 
ATOM      8  N   LIG    1       -0.698   1.558   1.216  0.00  0.00    -1.000 NA
ATOM      9  C   LIG    1       -0.013   1.086   0.008  0.00  0.00    +0.400 C 
ATOM     10  C   LIG    1       -2.583   2.573  -2.353  0.00  0.00    +0.520 A 
ATOM     11  O   LIG    1       -3.692   3.080  -2.338  0.00  0.00    -0.530 OA
ENDROOT
BRANCH   8  12
ATOM     12  S   LIG    1        0.147   2.171   2.502  0.00  0.00    +2.730 S 
ATOM     13  O   LIG    1        1.459   1.632   2.414  0.00  0.00    -0.950 OA
ATOM     14  O   LIG    1       -0.685   2.010   3.643  0.00  0.00    -0.930 OA
BRANCH  12  15
ATOM     15  C   LIG    1        0.305   3.907   2.242  0.00  0.00    -0.560 A 
ATOM     16  C   LIG    1        1.312   4.522   1.595  0.00  0.00    +0.260 A 
ATOM     17  N   LIG    1        1.040   5.863   1.620  0.00  0.00    -0.450 N 
ATOM     18  C   LIG    1       -0.122   6.022   2.291  0.00  0.00    +0.400 A 
ATOM     19  N   LIG    1       -0.555   4.848   2.660  0.00  0.00    -0.410 NA
BRANCH  17  20
ATOM     20  C   LIG    1        1.858   6.928   1.035  0.00  0.00    +0.300 C 
BRANCH  20  21
ATOM     21  C   LIG    1        2.874   7.418   2.070  0.00  0.00    -0.030 C 
ATOM     22  C   LIG    1        2.135   8.071   3.240  0.00  0.00    +0.020 C 
ATOM     23  C   LIG    1        3.809   8.440   1.422  0.00  0.00    +0.040 C 
ENDBRANCH  20  21
ENDBRANCH  17  20
ENDBRANCH  12  15
ENDBRANCH   8  12
BRANCH   1  25
ATOM     24  C   LIG    1       -2.152   4.274  -5.073  0.00  0.00    +0.030 C 
ATOM     25  C   LIG    1       -2.537   2.823  -4.779  0.00  0.00    +0.280 C 
ENDBRANCH   1  25
TORSDOF 5
