REMARK  Name = ZINCkj00000xZDsy.0
REMARK                            x       y       z     vdW  Elec       q    Type
REMARK                         _______ _______ _______ _____ _____    ______ ____
ROOT
ATOM      1  C   LIG    1       -4.911  -3.577  -1.399  0.00  0.00    +0.320 C 
ATOM      2  N   LIG    1       -3.713  -4.365  -1.719  0.00  0.00    -0.380 N 
ATOM      3  C   LIG    1       -3.608  -5.494  -0.786  0.00  0.00    +0.270 C 
ATOM      4  C   LIG    1       -3.596  -4.967   0.650  0.00  0.00    +0.100 C 
ATOM      5  C   LIG    1       -2.403  -4.032   0.842  0.00  0.00    +0.160 C 
ATOM      6  O   LIG    1       -1.183  -4.759   0.693  0.00  0.00    -0.370 OA
ATOM      7  C   LIG    1       -0.006  -3.979   0.918  0.00  0.00    +0.240 C 
ATOM      8  C   LIG    1        0.059  -2.851  -0.118  0.00  0.00    +0.260 C 
ATOM      9  N   LIG    1       -1.221  -2.125  -0.100  0.00  0.00    -0.610 N 
ATOM     10  C   LIG    1       -1.258  -0.782   0.009  0.00  0.00    +0.570 C 
ATOM     11  O   LIG    1       -2.324  -0.211   0.124  0.00  0.00    -0.480 OA
ATOM     12  C   LIG    1       -2.461  -2.914  -0.199  0.00  0.00    +0.240 C 
ATOM     13  C   LIG    1       -2.524  -3.514  -1.601  0.00  0.00    +0.250 C 
ATOM     14  H   LIG    1       -3.783  -4.715  -2.663  0.00  0.00    +0.430 HD
ENDROOT
BRANCH  10  15
ATOM     15  C   LIG    1        0.001  -0.003  -0.011  0.00  0.00    -0.070 A 
ATOM     16  C   LIG    1        0.988  -0.255  -0.969  0.00  0.00    +0.010 A 
ATOM     17  C   LIG    1        2.147   0.496  -0.951  0.00  0.00    +0.300 A 
ATOM     18  N   LIG    1        2.330   1.438  -0.048  0.00  0.00    -0.450 NA
ATOM     19  C   LIG    1        1.427   1.710   0.873  0.00  0.00    +0.320 A 
ATOM     20  C   LIG    1        0.237   1.007   0.929  0.00  0.00    -0.110 A 
ATOM     21 BR   LIG    1       -1.055   1.410   2.250  0.00  0.00    +0.000 Br
ENDBRANCH  10  15
TORSDOF 1
