REMARK  Name = ZINCkj00000xZDsy.1
REMARK                            x       y       z     vdW  Elec       q    Type
REMARK                         _______ _______ _______ _____ _____    ______ ____
ROOT
ATOM      1  C   LIG    1       -2.457   0.725   1.034  0.00  0.00    +0.320 C 
ATOM      2  N   LIG    1       -2.200   1.766   2.038  0.00  0.00    -0.380 N 
ATOM      3  C   LIG    1       -3.476   2.344   2.479  0.00  0.00    +0.270 C 
ATOM      4  C   LIG    1       -3.187   3.506   3.433  0.00  0.00    +0.100 C 
ATOM      5  C   LIG    1       -2.433   2.974   4.652  0.00  0.00    +0.170 C 
ATOM      6  O   LIG    1       -3.241   2.032   5.387  0.00  0.00    -0.370 OA
ATOM      7  C   LIG    1       -2.632   1.535   6.582  0.00  0.00    +0.240 C 
ATOM      8  C   LIG    1       -1.353   0.774   6.219  0.00  0.00    +0.260 C 
ATOM      9  N   LIG    1       -0.519   1.639   5.371  0.00  0.00    -0.610 N 
ATOM     10  C   LIG    1        0.781   1.850   5.657  0.00  0.00    +0.570 C 
ATOM     11  O   LIG    1        1.472   2.504   4.900  0.00  0.00    -0.490 OA
ATOM     12  C   LIG    1       -1.151   2.269   4.198  0.00  0.00    +0.230 C 
ATOM     13  C   LIG    1       -1.502   1.176   3.186  0.00  0.00    +0.250 C 
ATOM     14  H   LIG    1       -1.627   2.490   1.632  0.00  0.00    +0.430 HD
ENDROOT
BRANCH  10  15
ATOM     15  C   LIG    1        1.369   1.283   6.893  0.00  0.00    -0.070 A 
ATOM     16  C   LIG    1        1.248  -0.078   7.187  0.00  0.00    +0.000 A 
ATOM     17  C   LIG    1        1.815  -0.565   8.349  0.00  0.00    +0.300 A 
ATOM     18  N   LIG    1        2.453   0.236   9.179  0.00  0.00    -0.450 NA
ATOM     19  C   LIG    1        2.586   1.526   8.943  0.00  0.00    +0.320 A 
ATOM     20  C   LIG    1        2.054   2.097   7.801  0.00  0.00    -0.110 A 
ATOM     21 BR   LIG    1        2.251   3.949   7.473  0.00  0.00    -0.000 Br
ENDBRANCH  10  15
TORSDOF 1
