REMARK  Name = ZINCqH0000051zUs.0
REMARK                            x       y       z     vdW  Elec       q    Type
REMARK                         _______ _______ _______ _____ _____    ______ ____
ROOT
ATOM      1  C   LIG    1        1.015   5.589   0.023  0.00  0.00    +0.250 C 
ENDROOT
BRANCH   1   2
ATOM      2  C   LIG    1       -0.029   6.423  -0.672  0.00  0.00    -0.120 A 
ATOM      3  C   LIG    1       -1.371   6.155  -0.477  0.00  0.00    +0.090 A 
ATOM      4  C   LIG    1       -2.330   6.923  -1.110  0.00  0.00    -0.010 A 
ATOM      5  C   LIG    1       -1.946   7.956  -1.948  0.00  0.00    +0.120 A 
ATOM      6  C   LIG    1       -0.601   8.220  -2.148  0.00  0.00    -0.010 A 
ATOM      7  F   LIG    1       -2.882   8.704  -2.572  0.00  0.00    -0.130 F 
ATOM      8  C   LIG    1        0.355   7.454  -1.510  0.00  0.00    +0.070 A 
ENDBRANCH   1   2
BRANCH   1   9
ATOM      9  C   LIG    1        1.172   6.062   1.445  0.00  0.00    +0.510 C 
ATOM     10  N   LIG    1        1.550   7.332   1.694  0.00  0.00    -0.690 N 
ATOM     11  H   LIG    1        1.722   7.940   0.959  0.00  0.00    +0.400 HD
ATOM     12  O   LIG    1        0.957   5.302   2.365  0.00  0.00    -0.510 OA
BRANCH  10  13
ATOM     13  C   LIG    1        1.703   7.792   3.077  0.00  0.00    +0.220 C 
ATOM     14  C   LIG    1        1.138   9.170   3.428  0.00  0.00    +0.020 C 
ATOM     15  C   LIG    1        2.651   8.966   3.330  0.00  0.00    +0.020 C 
ENDBRANCH  10  13
ENDBRANCH   1   9
BRANCH   1  16
ATOM     16  O   LIG    1        0.603   4.196   0.019  0.00  0.00    -0.310 OA
BRANCH  16  18
ATOM     17  O   LIG    1        2.747   3.614  -0.005  0.00  0.00    -0.480 OA
ATOM     18  C   LIG    1        1.581   3.268   0.004  0.00  0.00    +0.560 C 
BRANCH  18  19
ATOM     19  C   LIG    1        1.238   1.841   0.000  0.00  0.00    -0.010 A 
ATOM     20  C   LIG    1        2.136   0.821  -0.014  0.00  0.00    +0.090 A 
ATOM     21  C   LIG    1        1.349  -0.411  -0.013  0.00  0.00    -0.150 A 
ATOM     22  C   LIG    1        1.670  -1.771  -0.024  0.00  0.00    +0.080 A 
ATOM     23  C   LIG    1        0.670  -2.703  -0.018  0.00  0.00    +0.000 A 
ATOM     24  C   LIG    1       -0.660  -2.306  -0.003  0.00  0.00    +0.070 A 
ATOM     25  C   LIG    1       -0.997  -0.970   0.007  0.00  0.00    +0.030 A 
ATOM     26  C   LIG    1        0.002  -0.004   0.002  0.00  0.00    +0.080 A 
ATOM     27  O   LIG    1       -0.016   1.343   0.009  0.00  0.00    -0.170 OA
ENDBRANCH  18  19
ENDBRANCH  16  18
ENDBRANCH   1  16
TORSDOF 6
