REMARK  Name = ZINCvU0000000Iuc.0
REMARK                            x       y       z     vdW  Elec       q    Type
REMARK                         _______ _______ _______ _____ _____    ______ ____
ROOT
ATOM      1  N   LIG    1        1.532   0.020  -4.135  0.00  0.00    -0.490 NA
ATOM      2  C   LIG    1        0.804   0.518  -5.105  0.00  0.00    +0.400 C 
ATOM      3  S   LIG    1        1.115   0.301  -6.831  0.00  0.00    -0.110 S 
ATOM      4  C   LIG    1       -0.306   1.278  -7.411  0.00  0.00    +0.120 C 
ATOM      5  C   LIG    1       -0.997   1.748  -6.127  0.00  0.00    +0.240 C 
ATOM      6  C   LIG    1       -2.433   1.221  -6.109  0.00  0.00    +0.060 C 
ATOM      7  N   LIG    1       -0.312   1.286  -4.941  0.00  0.00    -0.540 N 
ATOM      8  C   LIG    1       -0.765   1.598  -3.711  0.00  0.00    +0.530 C 
ATOM      9  O   LIG    1       -1.760   2.281  -3.587  0.00  0.00    -0.500 OA
ENDROOT
BRANCH   1  13
ATOM     10  C   LIG    1        4.867  -2.274  -5.013  0.00  0.00    +0.130 A 
ATOM     11  C   LIG    1        4.941  -1.291  -4.037  0.00  0.00    +0.000 A 
ATOM     12  C   LIG    1        3.833  -0.525  -3.741  0.00  0.00    +0.080 A 
ATOM     13  C   LIG    1        2.635  -0.739  -4.425  0.00  0.00    +0.060 A 
ATOM     14  C   LIG    1        2.563  -1.733  -5.403  0.00  0.00    +0.030 A 
ATOM     15  C   LIG    1        3.678  -2.491  -5.696  0.00  0.00    -0.060 A 
BRANCH  10  16
ATOM     16  O   LIG    1        5.962  -3.027  -5.302  0.00  0.00    -0.310 OA
BRANCH  16  18
ATOM     17  C   LIG    1        7.142  -4.761  -6.502  0.00  0.00    +0.070 C 
ATOM     18  C   LIG    1        5.816  -4.021  -6.318  0.00  0.00    +0.170 C 
ENDBRANCH  16  18
ENDBRANCH  10  16
ENDBRANCH   1  13
BRANCH   8  19
ATOM     19  C   LIG    1       -0.037   1.099  -2.490  0.00  0.00    +0.100 C 
BRANCH  19  20
ATOM     20  C   LIG    1       -0.753   1.593  -1.232  0.00  0.00    +0.050 C 
BRANCH  20  21
ATOM     21  C   LIG    1       -0.013   1.086   0.008  0.00  0.00    +0.180 C 
BRANCH  21  22
ATOM     22  O   LIG    1       -0.682   1.547   1.184  0.00  0.00    -0.310 OA
BRANCH  22  23
ATOM     23  C   LIG    1       -0.148   1.182   2.380  0.00  0.00    +0.100 A 
ATOM     24  C   LIG    1        0.991   0.392   2.420  0.00  0.00    -0.040 A 
ATOM     25  C   LIG    1        1.536   0.026   3.635  0.00  0.00    -0.040 A 
ATOM     26  C   LIG    1        0.936   0.439   4.816  0.00  0.00    +0.090 A 
ATOM     27  C   LIG    1       -0.206   1.224   4.777  0.00  0.00    +0.030 A 
ATOM     28  C   LIG    1       -0.748   1.595   3.561  0.00  0.00    +0.030 A 
BRANCH  26  29
ATOM     29  O   LIG    1        1.469   0.073   6.013  0.00  0.00    -0.320 OA
BRANCH  29  30
ATOM     30  C   LIG    1        2.647  -0.736   5.979  0.00  0.00    +0.170 C 
ATOM     31  C   LIG    1        3.095  -1.043   7.409  0.00  0.00    +0.070 C 
ENDBRANCH  29  30
ENDBRANCH  26  29
ENDBRANCH  22  23
ENDBRANCH  21  22
ENDBRANCH  20  21
ENDBRANCH  19  20
ENDBRANCH   8  19
TORSDOF 10
