REMARK  Name = ZINCpe000000Xr7x.0
REMARK                            x       y       z     vdW  Elec       q    Type
REMARK                         _______ _______ _______ _____ _____    ______ ____
ROOT
ATOM      1  N   LIG    1       -2.201   4.103  -4.947  0.00  0.00    -0.730 N 
ATOM      2  H   LIG    1       -3.137   3.923  -4.766  0.00  0.00    +0.400 HD
ATOM      3  C   LIG    1       -1.264   3.775  -4.035  0.00  0.00    +0.530 C 
ATOM      4  O   LIG    1       -0.094   4.000  -4.261  0.00  0.00    -0.530 OA
ENDROOT
BRANCH   3   5
ATOM      5  C   LIG    1       -1.670   3.129  -2.736  0.00  0.00    +0.000 C 
ATOM      6  C   LIG    1       -2.222   1.705  -2.975  0.00  0.00    +0.080 C 
ATOM      7  C   LIG    1       -1.713   0.905  -1.796  0.00  0.00    +0.520 C 
ATOM      8  N   LIG    1       -0.721   1.571  -1.179  0.00  0.00    -0.620 N 
ATOM      9  O   LIG    1       -2.139  -0.178  -1.455  0.00  0.00    -0.520 OA
ATOM     10  C   LIG    1       -0.436   2.844  -1.851  0.00  0.00    +0.310 C 
BRANCH   8  11
ATOM     11  C   LIG    1       -0.013   1.086   0.008  0.00  0.00    +0.430 C 
BRANCH  11  12
ATOM     12  C   LIG    1       -0.718   1.572   1.248  0.00  0.00    -0.050 A 
ATOM     13  C   LIG    1       -1.704   0.926   1.896  0.00  0.00    -0.030 A 
ATOM     14  C   LIG    1       -2.070   1.736   2.996  0.00  0.00    -0.070 A 
ATOM     15  C   LIG    1       -1.286   2.828   2.954  0.00  0.00    +0.170 A 
ATOM     16  O   LIG    1       -0.465   2.720   1.896  0.00  0.00    -0.170 OA
ENDBRANCH  11  12
ENDBRANCH   8  11
ENDBRANCH   3   5
BRANCH   1  17
ATOM     17  C   LIG    1       -1.807   4.731  -6.210  0.00  0.00    +0.270 C 
BRANCH  17  18
ATOM     18  C   LIG    1       -3.052   4.997  -7.058  0.00  0.00    +0.160 C 
BRANCH  18  22
ATOM     19  C   LIG    1       -1.148   8.993  -9.212  0.00  0.00    +0.050 C 
ATOM     20  C   LIG    1       -1.651   7.564  -9.431  0.00  0.00    +0.160 C 
ATOM     21  C   LIG    1       -2.104   6.970  -8.095  0.00  0.00    +0.160 C 
ATOM     22  N   LIG    1       -2.657   5.627  -8.325  0.00  0.00    -0.530 NA
ATOM     23  C   LIG    1       -3.788   5.683  -9.261  0.00  0.00    +0.160 C 
ATOM     24  C   LIG    1       -3.318   6.290 -10.586  0.00  0.00    +0.160 C 
ATOM     25  C   LIG    1       -4.509   6.425 -11.537  0.00  0.00    +0.050 C 
ATOM     26  O   LIG    1       -2.756   7.582 -10.339  0.00  0.00    -0.380 OA
ENDBRANCH  18  22
ENDBRANCH  17  18
ENDBRANCH   1  17
TORSDOF 6
