REMARK  Name = ZINCtV00001bB3jD.0
REMARK                            x       y       z     vdW  Elec       q    Type
REMARK                         _______ _______ _______ _____ _____    ______ ____
ROOT
ATOM      1  C   LIG    1       -2.713  -0.078   2.230  0.00  0.00    +0.300 C 
ATOM      2  C   LIG    1       -3.932  -0.961   2.454  0.00  0.00    +0.020 C 
ATOM      3  C   LIG    1       -3.842  -1.673   3.796  0.00  0.00    +0.120 C 
ATOM      4  O   LIG    1       -3.734  -0.723   4.850  0.00  0.00    -0.290 OA
ATOM      5  C   LIG    1       -2.715   0.175   4.746  0.00  0.00    +0.140 A 
ATOM      6  C   LIG    1       -2.204   0.748   5.903  0.00  0.00    +0.010 A 
ATOM      7  C   LIG    1       -1.165   1.654   5.826  0.00  0.00    +0.070 A 
ATOM      8  C   LIG    1       -0.635   1.988   4.592  0.00  0.00    -0.060 A 
ATOM      9  C   LIG    1       -1.145   1.419   3.441  0.00  0.00    +0.080 A 
ATOM     10 CL   LIG    1        0.673   3.124   4.490  0.00  0.00    -0.060 Cl
ATOM     11  C   LIG    1       -5.082  -2.567   4.010  0.00  0.00    +0.060 C 
ATOM     12  C   LIG    1       -4.571  -3.624   5.021  0.00  0.00    +0.020 C 
ATOM     13  C   LIG    1       -3.114  -3.890   4.589  0.00  0.00    +0.020 C 
ATOM     14  C   LIG    1       -2.650  -2.642   3.816  0.00  0.00    +0.010 C 
ATOM     15  C   LIG    1       -2.190   0.509   3.510  0.00  0.00    -0.180 A 
ENDROOT
BRANCH   1  16
ATOM     16  N   LIG    1       -3.077   1.012   1.321  0.00  0.00    -0.600 N 
ATOM     17  C   LIG    1       -3.911   1.986   1.737  0.00  0.00    +0.500 C 
ATOM     18  O   LIG    1       -4.174   2.913   1.001  0.00  0.00    -0.480 OA
BRANCH  17  19
ATOM     19  C   LIG    1       -4.515   1.923   3.116  0.00  0.00    +0.170 C 
ATOM     20 CL   LIG    1       -5.686   3.278   3.321  0.00  0.00    -0.130 Cl
ENDBRANCH  17  19
BRANCH  16  21
ATOM     21  C   LIG    1       -2.535   1.043  -0.040  0.00  0.00    +0.350 C 
BRANCH  21  27
ATOM     22  C   LIG    1        2.464   1.098  -0.270  0.00  0.00    +0.100 C 
ATOM     23  C   LIG    1        1.155   1.836  -0.156  0.00  0.00    -0.100 A 
ATOM     24  C   LIG    1        1.145   3.215  -0.063  0.00  0.00    +0.050 A 
ATOM     25  C   LIG    1       -0.054   3.893   0.043  0.00  0.00    -0.020 A 
ATOM     26  C   LIG    1       -1.247   3.190   0.054  0.00  0.00    +0.110 A 
ATOM     27  C   LIG    1       -1.237   1.809  -0.046  0.00  0.00    -0.150 A 
ATOM     28  F   LIG    1       -2.421   3.852   0.156  0.00  0.00    -0.110 F 
ATOM     29  C   LIG    1       -0.036   1.133  -0.145  0.00  0.00    +0.050 A 
ENDBRANCH  21  27
ENDBRANCH  16  21
ENDBRANCH   1  16
TORSDOF 4
