REMARK  Name = ZINCrg00000X2Jk0.0
REMARK                            x       y       z     vdW  Elec       q    Type
REMARK                         _______ _______ _______ _____ _____    ______ ____
ROOT
ATOM      1  C   LIG    1        1.711   6.918   1.705  0.00  0.00    +0.340 A 
ATOM      2  C   LIG    1        0.520   7.637   1.676  0.00  0.00    -0.060 A 
ATOM      3  C   LIG    1        0.553   9.004   1.885  0.00  0.00    +0.100 A 
ATOM      4  C   LIG    1        1.781   9.608   2.117  0.00  0.00    -0.070 A 
ATOM      5  C   LIG    1        2.925   8.834   2.132  0.00  0.00    +0.110 A 
ATOM      6  N   LIG    1        2.862   7.531   1.934  0.00  0.00    -0.490 NA
ENDROOT
BRANCH   5   7
ATOM      7  C   LIG    1        4.260   9.485   2.384  0.00  0.00    +0.180 C 
ATOM      8  C   LIG    1        4.536  10.526   1.295  0.00  0.00    +0.050 C 
ATOM      9  C   LIG    1        5.927  11.126   1.511  0.00  0.00    +0.270 C 
ATOM     10  N   LIG    1        6.938  10.064   1.442  0.00  0.00    -0.510 N 
ATOM     11  C   LIG    1        6.723   9.100   2.527  0.00  0.00    +0.270 C 
ATOM     12  H   LIG    1        6.866   9.590   0.553  0.00  0.00    +0.430 HD
ATOM     13  H   LIG    1        7.857  10.470   1.531  0.00  0.00    +0.430 HD
ATOM     14  C   LIG    1        5.362   8.422   2.350  0.00  0.00    +0.120 C 
BRANCH   7  15
ATOM     15  O   LIG    1        4.248  10.121   3.663  0.00  0.00    -0.550 OA
ATOM     16  H   LIG    1        3.575  10.809   3.754  0.00  0.00    +0.390 HD
ENDBRANCH   7  15
ENDBRANCH   5   7
BRANCH   1  20
ATOM     17  C   LIG    1        1.236   3.090   0.044  0.00  0.00    +0.030 C 
ATOM     18  C   LIG    1        2.644   3.642   0.282  0.00  0.00    +0.050 C 
ATOM     19  C   LIG    1        2.578   5.167   0.388  0.00  0.00    +0.200 C 
ATOM     20  N   LIG    1        1.691   5.544   1.497  0.00  0.00    -0.470 N 
ATOM     21  C   LIG    1        0.322   5.066   1.268  0.00  0.00    +0.190 C 
ATOM     22  C   LIG    1        0.321   3.537   1.188  0.00  0.00    +0.050 C 
BRANCH  17  25
ATOM     23  C   LIG    1        0.563   1.030  -1.921  0.00  0.00    -0.100 C 
ATOM     24  C   LIG    1       -0.017   0.917  -0.501  0.00  0.00    +0.010 C 
ATOM     25  C   LIG    1        1.286   1.562  -0.002  0.00  0.00    +0.120 C 
ATOM     26  C   LIG    1        1.956   1.004  -1.269  0.00  0.00    +0.010 C 
BRANCH  23  28
ATOM     27  O   LIG    1       -0.014  -0.017  -3.962  0.00  0.00    -0.700 OA
ATOM     28  C   LIG    1        0.277  -0.169  -2.788  0.00  0.00    +0.500 C 
ATOM     29  O   LIG    1        0.337  -1.291  -2.314  0.00  0.00    -0.700 OA
ENDBRANCH  23  28
BRANCH  25  30
ATOM     30  O   LIG    1        1.783   0.986   1.208  0.00  0.00    -0.560 OA
ATOM     31  H   LIG    1        1.844   0.021   1.189  0.00  0.00    +0.380 HD
ENDBRANCH  25  30
ENDBRANCH  17  25
ENDBRANCH   1  20
TORSDOF 6
