REMARK  Name = ZINCpk00000y6tHB.0
REMARK                            x       y       z     vdW  Elec       q    Type
REMARK                         _______ _______ _______ _____ _____    ______ ____
ROOT
ATOM      1  S   LIG    1       -2.496   4.067   0.910  0.00  0.00    +2.710 S 
ATOM      2  O   LIG    1       -1.447   3.541   1.712  0.00  0.00    -0.940 OA
ATOM      3  O   LIG    1       -3.177   5.276   1.215  0.00  0.00    -0.940 OA
ENDROOT
BRANCH   1  10
ATOM      4  C   LIG    1       -0.972   1.918  -0.576  0.00  0.00    +0.110 C 
ATOM      5  C   LIG    1       -1.149   3.223  -1.309  0.00  0.00    +0.070 A 
ATOM      6  C   LIG    1       -0.628   3.378  -2.580  0.00  0.00    -0.020 A 
ATOM      7  C   LIG    1       -0.791   4.575  -3.252  0.00  0.00    +0.190 A 
ATOM      8  C   LIG    1       -1.475   5.616  -2.654  0.00  0.00    -0.690 A 
ATOM      9  C   LIG    1       -1.999   5.460  -1.384  0.00  0.00    +0.240 A 
ATOM     10  C   LIG    1       -1.832   4.264  -0.710  0.00  0.00    -0.700 A 
BRANCH   8  11
ATOM     11  S   LIG    1       -1.681   7.142  -3.510  0.00  0.00    +2.500 S 
ATOM     12  O   LIG    1       -0.582   7.191  -4.409  0.00  0.00    -0.930 OA
ATOM     13  O   LIG    1       -1.827   8.107  -2.477  0.00  0.00    -0.930 OA
ATOM     14  C   LIG    1       -3.238   6.943  -4.420  0.00  0.00    -0.240 C 
ENDBRANCH   8  11
ENDBRANCH   1  10
BRANCH   1  15
ATOM     15  N   LIG    1       -3.655   2.887   0.825  0.00  0.00    -1.010 NA
ATOM     16  C   LIG    1       -3.469   1.465   1.180  0.00  0.00    +0.280 C 
ATOM     17  C   LIG    1       -4.554   0.709   0.372  0.00  0.00    +0.040 C 
ATOM     18  C   LIG    1       -5.742   1.705   0.438  0.00  0.00    +0.040 C 
ATOM     19  C   LIG    1       -5.043   3.080   0.381  0.00  0.00    +0.230 C 
BRANCH  19  20
ATOM     20  C   LIG    1       -5.755   4.064   1.312  0.00  0.00    +0.320 C 
BRANCH  20  21
ATOM     21  N   LIG    1       -7.132   4.261   0.854  0.00  0.00    -0.370 N 
ATOM     22  C   LIG    1       -8.248   4.085   1.593  0.00  0.00    +0.230 A 
ATOM     23  C   LIG    1       -9.312   4.373   0.809  0.00  0.00    -0.120 A 
ATOM     24  C   LIG    1       -8.831   4.732  -0.455  0.00  0.00    +0.230 A 
ATOM     25  N   LIG    1       -7.524   4.663  -0.429  0.00  0.00    -0.300 NA
ENDBRANCH  20  21
ENDBRANCH  19  20
ENDBRANCH   1  15
TORSDOF 5
