REMARK  Name = ZINCvU0000000733.0
REMARK                            x       y       z     vdW  Elec       q    Type
REMARK                         _______ _______ _______ _____ _____    ______ ____
ROOT
ATOM      1  C   LIG    1        0.674   2.357  -1.210  0.00  0.00    +0.110 C 
ENDROOT
BRANCH   1   2
ATOM      2  C   LIG    1        1.849   2.873  -0.420  0.00  0.00    -0.080 A 
ATOM      3  C   LIG    1        2.096   2.387   0.849  0.00  0.00    +0.030 A 
ATOM      4  C   LIG    1        3.175   2.860   1.574  0.00  0.00    +0.000 A 
ATOM      5  C   LIG    1        4.010   3.819   1.031  0.00  0.00    +0.010 A 
ATOM      6  C   LIG    1        3.769   4.309  -0.238  0.00  0.00    +0.000 A 
ATOM      7  C   LIG    1        2.689   3.833  -0.971  0.00  0.00    +0.180 A 
BRANCH   7   8
ATOM      8  N   LIG    1        2.446   4.322  -2.256  0.00  0.00    -0.690 N 
ATOM      9  H   LIG    1        3.066   4.123  -2.976  0.00  0.00    +0.420 HD
BRANCH   8  10
ATOM     10  C   LIG    1        1.309   5.096  -2.506  0.00  0.00    +0.220 A 
ATOM     11  C   LIG    1        0.741   5.849  -1.486  0.00  0.00    -0.090 A 
ATOM     12  C   LIG    1       -0.379   6.618  -1.738  0.00  0.00    +0.070 A 
ATOM     13  C   LIG    1       -0.941   6.631  -3.001  0.00  0.00    +0.000 A 
ATOM     14  C   LIG    1       -0.382   5.879  -4.018  0.00  0.00    +0.070 A 
ATOM     15 CL   LIG    1        1.441   5.828   0.103  0.00  0.00    -0.040 Cl
ATOM     16  C   LIG    1        0.741   5.112  -3.775  0.00  0.00    -0.090 A 
ATOM     17 CL   LIG    1        1.443   4.168  -5.052  0.00  0.00    -0.050 Cl
ENDBRANCH   8  10
ENDBRANCH   7   8
ENDBRANCH   1   2
BRANCH   1  20
ATOM     18  N   LIG    1        0.280   0.826  -3.113  0.00  0.00    -0.670 N 
ATOM     19  H   LIG    1       -0.660   1.057  -3.065  0.00  0.00    +0.410 HD
ATOM     20  C   LIG    1        1.162   1.413  -2.279  0.00  0.00    +0.520 C 
ATOM     21  O   LIG    1        2.347   1.183  -2.389  0.00  0.00    -0.500 OA
BRANCH  18  29
ATOM     22  C   LIG    1        1.123  -3.871  -7.456  0.00  0.00    +0.320 C 
ATOM     23  N   LIG    1        2.049  -2.908  -6.853  0.00  0.00    -0.550 N 
ATOM     24  C   LIG    1        3.355  -2.905  -7.199  0.00  0.00    +0.490 C 
ATOM     25  C   LIG    1        4.300  -1.932  -6.541  0.00  0.00    +0.300 C 
ATOM     26  O   LIG    1        3.599  -0.732  -6.207  0.00  0.00    -0.300 OA
ATOM     27  C   LIG    1        2.394  -0.877  -5.595  0.00  0.00    +0.100 A 
ATOM     28  C   LIG    1        1.956   0.055  -4.672  0.00  0.00    +0.040 A 
ATOM     29  C   LIG    1        0.724  -0.113  -4.052  0.00  0.00    +0.160 A 
ATOM     30  C   LIG    1       -0.070  -1.208  -4.366  0.00  0.00    +0.010 A 
ATOM     31  C   LIG    1        0.364  -2.137  -5.293  0.00  0.00    +0.030 A 
ATOM     32  O   LIG    1        3.766  -3.682  -8.035  0.00  0.00    -0.510 OA
ATOM     33  C   LIG    1        1.593  -1.975  -5.909  0.00  0.00    +0.080 A 
ENDBRANCH  18  29
ENDBRANCH   1  20
TORSDOF 5
