REMARK  Name = ZINCpk00000xHZW4.0
REMARK                            x       y       z     vdW  Elec       q    Type
REMARK                         _______ _______ _______ _____ _____    ______ ____
ROOT
ATOM      1  N   LIG    1       -0.364   3.721   5.453  0.00  0.00    -0.730 N 
ATOM      2  H   LIG    1       -1.275   4.014   5.295  0.00  0.00    +0.400 HD
ATOM      3  C   LIG    1        0.440   4.430   6.270  0.00  0.00    +0.520 C 
ATOM      4  O   LIG    1        1.579   4.063   6.467  0.00  0.00    -0.520 OA
ENDROOT
BRANCH   1   5
ATOM      5  C   LIG    1        0.137   2.507   4.804  0.00  0.00    +0.290 C 
ATOM      6  C   LIG    1       -0.023   1.318   5.753  0.00  0.00    +0.030 C 
BRANCH   5  11
ATOM      7  C   LIG    1       -2.866   1.540  -0.037  0.00  0.00    +0.090 C 
ATOM      8  C   LIG    1       -2.083   1.789   1.226  0.00  0.00    -0.080 A 
ATOM      9  C   LIG    1       -2.731   2.230   2.365  0.00  0.00    +0.010 A 
ATOM     10  C   LIG    1       -2.012   2.464   3.522  0.00  0.00    +0.000 A 
ATOM     11  C   LIG    1       -0.646   2.252   3.542  0.00  0.00    -0.100 A 
ATOM     12  C   LIG    1        0.001   1.806   2.405  0.00  0.00    +0.020 A 
ATOM     13  C   LIG    1       -0.718   1.572   1.248  0.00  0.00    -0.080 A 
ATOM     14  C   LIG    1       -0.013   1.086   0.008  0.00  0.00    +0.090 C 
ENDBRANCH   5  11
ENDBRANCH   1   5
BRANCH   3  15
ATOM     15  C   LIG    1       -0.075   5.679   6.937  0.00  0.00    +0.220 C 
BRANCH  15  16
ATOM     16  N   LIG    1        0.985   6.263   7.769  0.00  0.00    -0.520 NA
ATOM     17  C   LIG    1        1.325   5.377   8.889  0.00  0.00    +0.180 C 
ATOM     18  C   LIG    1        2.527   5.946   9.646  0.00  0.00    +0.020 C 
ATOM     19  C   LIG    1        2.182   7.345  10.164  0.00  0.00    +0.230 C 
ATOM     20  C   LIG    1        1.785   8.235   8.983  0.00  0.00    +0.040 C 
ATOM     21  C   LIG    1        0.604   7.599   8.245  0.00  0.00    +0.180 C 
BRANCH  19  22
ATOM     22  N   LIG    1        3.347   7.919  10.840  0.00  0.00    -1.110 NA
ATOM     23  H   LIG    1        4.030   8.377  10.325  0.00  0.00    +0.420 HD
BRANCH  22  24
ATOM     24  S   LIG    1        3.499   7.787  12.484  0.00  0.00    +2.610 S 
ATOM     25  O   LIG    1        2.256   8.252  12.989  0.00  0.00    -0.960 OA
ATOM     26  O   LIG    1        4.711   8.469  12.780  0.00  0.00    -0.960 OA
ATOM     27  C   LIG    1        3.681   6.007  12.780  0.00  0.00    -0.290 C 
ENDBRANCH  22  24
ENDBRANCH  19  22
ENDBRANCH  15  16
ENDBRANCH   3  15
TORSDOF 6
