REMARK  Name = ZINCrH000004pYiM.0
REMARK                            x       y       z     vdW  Elec       q    Type
REMARK                         _______ _______ _______ _____ _____    ______ ____
ROOT
ATOM      1  C   LIG    1        2.376   3.533   3.250  0.00  0.00    +0.500 C 
ATOM      2  N   LIG    1        1.497   2.578   2.886  0.00  0.00    -0.690 N 
ATOM      3  H   LIG    1        1.474   2.265   1.968  0.00  0.00    +0.400 HD
ATOM      4  O   LIG    1        2.406   3.924   4.398  0.00  0.00    -0.510 OA
ENDROOT
BRANCH   2   5
ATOM      5  C   LIG    1        0.578   2.013   3.877  0.00  0.00    +0.240 C 
ATOM      6  C   LIG    1        0.021   0.582   3.623  0.00  0.00    -0.030 C 
ATOM      7  C   LIG    1        0.439  -0.122   2.323  0.00  0.00    +0.050 C 
ATOM      8  C   LIG    1       -0.786  -0.192   1.401  0.00  0.00    +0.080 C 
ATOM      9  C   LIG    1       -1.204   1.215   1.049  0.00  0.00    -0.080 A 
ATOM     10  C   LIG    1       -1.539   1.539  -0.251  0.00  0.00    +0.000 A 
ATOM     11  C   LIG    1       -1.921   2.832  -0.562  0.00  0.00    +0.000 A 
ATOM     12  C   LIG    1       -1.967   3.797   0.426  0.00  0.00    +0.000 A 
ATOM     13  C   LIG    1       -1.632   3.472   1.727  0.00  0.00    +0.020 A 
ATOM     14  C   LIG    1       -1.250   2.182   2.038  0.00  0.00    -0.050 A 
ATOM     15  C   LIG    1       -0.879   1.816   3.455  0.00  0.00    +0.000 C 
ENDBRANCH   2   5
BRANCH   1  17
ATOM     16  C   LIG    1        2.630   5.256   1.485  0.00  0.00    +0.100 C 
ATOM     17  C   LIG    1        3.322   4.114   2.231  0.00  0.00    +0.150 C 
BRANCH  17  18
ATOM     18  C   LIG    1        4.550   4.642   2.929  0.00  0.00    -0.040 A 
ATOM     19  C   LIG    1        4.754   6.005   3.032  0.00  0.00    +0.040 A 
ATOM     20  C   LIG    1        5.877   6.489   3.676  0.00  0.00    +0.060 A 
ATOM     21  C   LIG    1        6.801   5.609   4.208  0.00  0.00    +0.030 A 
ATOM     22  C   LIG    1        6.600   4.246   4.100  0.00  0.00    +0.070 A 
ATOM     23  C   LIG    1        5.474   3.762   3.461  0.00  0.00    -0.170 A 
BRANCH  23  24
ATOM     24  C   LIG    1        5.254   2.276   3.344  0.00  0.00    +0.500 C 
ATOM     25  F   LIG    1        5.386   1.889   2.005  0.00  0.00    -0.160 F 
ATOM     26  F   LIG    1        3.970   1.957   3.797  0.00  0.00    -0.170 F 
ATOM     27  F   LIG    1        6.203   1.601   4.119  0.00  0.00    -0.170 F 
ENDBRANCH  23  24
ENDBRANCH  17  18
BRANCH  17  28
ATOM     28  O   LIG    1        3.703   3.099   1.301  0.00  0.00    -0.540 OA
ATOM     29  H   LIG    1        3.670   2.202   1.662  0.00  0.00    +0.380 HD
ENDBRANCH  17  28
ENDBRANCH   1  17
TORSDOF 5
