REMARK  Name = ZINCnE00000rhmlY.0
REMARK                            x       y       z     vdW  Elec       q    Type
REMARK                         _______ _______ _______ _____ _____    ______ ____
ROOT
ATOM      1  N   LIG    1        1.781  -1.655  -1.704  0.00  0.00    -0.720 N 
ATOM      2  H   LIG    1        0.931  -2.092  -1.872  0.00  0.00    +0.400 HD
ENDROOT
BRANCH   1   6
ATOM      3  C   LIG    1        3.728   0.369  -4.784  0.00  0.00    +0.050 A 
ATOM      4  C   LIG    1        4.295   0.320  -3.520  0.00  0.00    -0.030 A 
ATOM      5  C   LIG    1        3.647  -0.345  -2.497  0.00  0.00    -0.050 A 
ATOM      6  C   LIG    1        2.434  -0.975  -2.739  0.00  0.00    +0.210 A 
ATOM      7  C   LIG    1        1.867  -0.926  -4.005  0.00  0.00    -0.050 A 
ATOM      8  C   LIG    1        2.513  -0.255  -5.025  0.00  0.00    -0.070 A 
ATOM      9  C   LIG    1        1.897  -0.201  -6.399  0.00  0.00    +0.100 C 
BRANCH   3  10
ATOM     10  O   LIG    1        4.363   1.030  -5.789  0.00  0.00    -0.320 OA
BRANCH  10  11
ATOM     11  C   LIG    1        5.610   1.650  -5.471  0.00  0.00    +0.180 C 
BRANCH  11  13
ATOM     12  C   LIG    1        7.506   3.003  -6.377  0.00  0.00    +0.030 C 
ATOM     13  C   LIG    1        6.170   2.339  -6.718  0.00  0.00    +0.020 C 
ENDBRANCH  11  13
ENDBRANCH  10  11
ENDBRANCH   3  10
ENDBRANCH   1   6
BRANCH   1  14
ATOM     14  C   LIG    1        2.379  -1.706  -0.368  0.00  0.00    +0.240 C 
ATOM     15  C   LIG    1        3.268  -2.966  -0.213  0.00  0.00    -0.010 C 
ATOM     16  C   LIG    1        3.311  -3.213   1.309  0.00  0.00    +0.000 C 
ATOM     17  C   LIG    1        2.054  -2.549   1.897  0.00  0.00    +0.050 C 
ATOM     18  C   LIG    1        1.291  -1.921   0.713  0.00  0.00    +0.010 C 
BRANCH  18  19
ATOM     19  C   LIG    1        0.673  -0.582   1.123  0.00  0.00    +0.080 C 
BRANCH  19  20
ATOM     20  C   LIG    1       -0.314  -0.806   2.239  0.00  0.00    +0.480 C 
ATOM     21  O   LIG    1        0.072  -1.209   3.323  0.00  0.00    -0.700 OA
ATOM     22  O   LIG    1       -1.499  -0.585   2.058  0.00  0.00    -0.680 OA
ENDBRANCH  19  20
BRANCH  19  23
ATOM     23  O   LIG    1        0.002  -0.004   0.002  0.00  0.00    -0.370 OA
ATOM     24  C   LIG    1       -0.017   1.425   0.010  0.00  0.00    +0.180 C 
ENDBRANCH  19  23
ENDBRANCH  18  19
ENDBRANCH   1  14
TORSDOF 8
