REMARK  Name = ZINCah0000002hs0.0
REMARK                            x       y       z     vdW  Elec       q    Type
REMARK                         _______ _______ _______ _____ _____    ______ ____
ROOT
ATOM      1  C   LIG    1       -0.186  -2.429  -0.375  0.00  0.00    +0.210 A 
ATOM      2  N   LIG    1        0.454  -2.079   0.689  0.00  0.00    -0.470 NA
ATOM      3  C   LIG    1        0.573  -0.788   0.922  0.00  0.00    +0.240 A 
ATOM      4  C   LIG    1        0.002  -0.004   0.002  0.00  0.00    -0.260 A 
ATOM      5  S   LIG    1       -0.729  -1.044  -1.218  0.00  0.00    +0.180 S 
ENDROOT
BRANCH   4   6
ATOM      6  C   LIG    1       -0.018   1.503   0.010  0.00  0.00    +0.430 C 
ATOM      7  O   LIG    1       -0.699   1.970   1.187  0.00  0.00    -0.370 OA
ATOM      8  C   LIG    1       -1.407   3.156   0.761  0.00  0.00    +0.210 C 
ATOM      9  C   LIG    1       -1.833   2.767  -0.676  0.00  0.00    +0.210 C 
ATOM     10  O   LIG    1       -0.719   1.981  -1.145  0.00  0.00    -0.380 OA
ENDBRANCH   4   6
TORSDOF 1
