REMARK  Name = ZINCvU0000000IRX.0
REMARK                            x       y       z     vdW  Elec       q    Type
REMARK                         _______ _______ _______ _____ _____    ______ ____
ROOT
ATOM      1  C   LIG    1        0.335   8.149  -0.514  0.00  0.00    +0.540 C 
ATOM      2  N   LIG    1       -0.860   7.558  -0.314  0.00  0.00    -0.660 N 
ATOM      3  H   LIG    1       -1.661   8.100  -0.236  0.00  0.00    +0.420 HD
ATOM      4  O   LIG    1        1.347   7.479  -0.531  0.00  0.00    -0.510 OA
ENDROOT
BRANCH   2   5
ATOM      5  C   LIG    1       -0.945   6.163  -0.219  0.00  0.00    +0.110 A 
ATOM      6  C   LIG    1        0.080   5.444   0.382  0.00  0.00    +0.070 A 
ATOM      7  C   LIG    1       -0.005   4.069   0.475  0.00  0.00    +0.020 A 
ATOM      8  C   LIG    1       -1.113   3.406  -0.033  0.00  0.00    +0.120 A 
ATOM      9  C   LIG    1       -2.134   4.123  -0.638  0.00  0.00    -0.040 A 
ATOM     10  C   LIG    1       -2.054   5.499  -0.727  0.00  0.00    +0.030 A 
BRANCH   8  11
ATOM     11  O   LIG    1       -1.194   2.052   0.059  0.00  0.00    -0.250 OA
BRANCH  11  12
ATOM     12  C   LIG    1       -2.243   1.434  -0.546  0.00  0.00    +0.090 A 
ATOM     13  C   LIG    1       -3.345   1.045   0.202  0.00  0.00    +0.030 A 
ATOM     14  C   LIG    1       -4.408   0.412  -0.414  0.00  0.00    +0.040 A 
ATOM     15  C   LIG    1       -4.374   0.166  -1.774  0.00  0.00    +0.040 A 
ATOM     16  C   LIG    1       -3.277   0.552  -2.522  0.00  0.00    +0.040 A 
ATOM     17  C   LIG    1       -2.212   1.186  -1.912  0.00  0.00    -0.050 A 
ATOM     18 CL   LIG    1       -0.835   1.672  -2.852  0.00  0.00    -0.050 Cl
ENDBRANCH  11  12
ENDBRANCH   8  11
ENDBRANCH   2   5
BRANCH   1  19
ATOM     19  C   LIG    1        0.414   9.640  -0.717  0.00  0.00    +0.110 C 
BRANCH  19  20
ATOM     20  S   LIG    1        2.142  10.125  -0.958  0.00  0.00    +0.090 S 
BRANCH  20  26
ATOM     21  C   LIG    1        4.375  12.503  -1.497  0.00  0.00    +0.360 C 
ATOM     22  N   LIG    1        2.940  12.772  -1.385  0.00  0.00    -0.460 N 
ATOM     23  C   LIG    1        2.318  13.987  -1.480  0.00  0.00    +0.190 A 
ATOM     24  N   LIG    1        1.041  13.781  -1.323  0.00  0.00    -0.270 NA
ATOM     25  N   LIG    1        0.814  12.530  -1.141  0.00  0.00    -0.290 NA
ATOM     26  C   LIG    1        1.945  11.864  -1.165  0.00  0.00    +0.140 A 
BRANCH  23  27
ATOM     27  C   LIG    1        2.986  15.316  -1.723  0.00  0.00    +0.260 C 
BRANCH  27  28
ATOM     28  C   LIG    1        3.064  15.575  -3.205  0.00  0.00    -0.190 A 
ATOM     29  C   LIG    1        2.131  16.197  -3.928  0.00  0.00    +0.040 A 
ATOM     30  C   LIG    1        2.425  16.323  -5.275  0.00  0.00    +0.000 A 
ATOM     31  C   LIG    1        3.592  15.796  -5.648  0.00  0.00    -0.030 A 
ATOM     32  S   LIG    1        4.397  15.098  -4.249  0.00  0.00    +0.090 S 
ENDBRANCH  27  28
ENDBRANCH  23  27
ENDBRANCH  20  26
ENDBRANCH  19  20
ENDBRANCH   1  19
TORSDOF 8
