REMARK  Name = ZINCrD0000073JY0.0
REMARK                            x       y       z     vdW  Elec       q    Type
REMARK                         _______ _______ _______ _____ _____    ______ ____
ROOT
ATOM      1  N   LIG    1        2.273  -6.845  -2.816  0.00  0.00    -0.610 N 
ATOM      2  C   LIG    1        2.004  -5.613  -2.341  0.00  0.00    +0.520 C 
ATOM      3  O   LIG    1        1.281  -4.866  -2.966  0.00  0.00    -0.520 OA
ATOM      4  C   LIG    1        3.146  -7.747  -2.060  0.00  0.00    +0.280 C 
ENDROOT
BRANCH   1   5
ATOM      5  C   LIG    1        1.693  -7.283  -4.088  0.00  0.00    +0.300 C 
ATOM      6  C   LIG    1        2.809  -7.488  -5.114  0.00  0.00    +0.030 C 
BRANCH   5  12
ATOM      7  C   LIG    1       -0.286  -8.582  -3.261  0.00  0.00    +0.150 A 
ATOM      8  C   LIG    1       -0.964  -9.778  -3.074  0.00  0.00    -0.080 A 
ATOM      9  C   LIG    1       -0.403 -10.964  -3.508  0.00  0.00    +0.050 A 
ATOM     10  C   LIG    1        0.833 -10.959  -4.128  0.00  0.00    -0.040 A 
ATOM     11  C   LIG    1        1.508  -9.768  -4.320  0.00  0.00    +0.060 A 
ATOM     12  C   LIG    1        0.954  -8.580  -3.883  0.00  0.00    -0.140 A 
BRANCH   7  14
ATOM     13  C   LIG    1       -2.115  -7.492  -2.204  0.00  0.00    +0.230 C 
ATOM     14  O   LIG    1       -0.836  -7.414  -2.836  0.00  0.00    -0.300 OA
ENDBRANCH   7  14
ENDBRANCH   5  12
ENDBRANCH   1   5
BRANCH   2  15
ATOM     15  C   LIG    1        2.601  -5.163  -1.032  0.00  0.00    +0.170 C 
BRANCH  15  16
ATOM     16  C   LIG    1        2.147  -3.758  -0.730  0.00  0.00    +0.000 A 
ATOM     17  C   LIG    1        2.763  -2.611  -1.101  0.00  0.00    +0.000 A 
ATOM     18  N   LIG    1        2.001  -1.597  -0.606  0.00  0.00    -0.240 N 
ATOM     19  N   LIG    1        0.996  -2.116   0.009  0.00  0.00    -0.080 NA
ATOM     20  C   LIG    1        4.036  -2.482  -1.897  0.00  0.00    +0.160 C 
ATOM     21  N   LIG    1        1.054  -3.400  -0.047  0.00  0.00    -0.250 NA
BRANCH  18  22
ATOM     22  C   LIG    1        2.262  -0.227  -0.747  0.00  0.00    +0.120 A 
ATOM     23  C   LIG    1        1.212   0.670  -0.893  0.00  0.00    +0.040 A 
ATOM     24  C   LIG    1        1.472   2.019  -1.031  0.00  0.00    +0.040 A 
ATOM     25  C   LIG    1        2.776   2.478  -1.024  0.00  0.00    +0.020 A 
ATOM     26  C   LIG    1        3.824   1.587  -0.879  0.00  0.00    +0.040 A 
ATOM     27  C   LIG    1        3.570   0.236  -0.740  0.00  0.00    +0.030 A 
ENDBRANCH  18  22
ENDBRANCH  15  16
ENDBRANCH   2  15
TORSDOF 6
