REMARK  Name = ZINCqH0000002obD.0
REMARK                            x       y       z     vdW  Elec       q    Type
REMARK                         _______ _______ _______ _____ _____    ______ ____
ROOT
ATOM      1  C   LIG    1        2.477   1.075  -0.016  0.00  0.00    +0.520 C 
ATOM      2  O   LIG    1        2.496  -0.139  -0.024  0.00  0.00    -0.510 OA
ENDROOT
BRANCH   1   6
ATOM      3  C   LIG    1       -1.234   3.139   0.031  0.00  0.00    +0.170 A 
ATOM      4  C   LIG    1       -1.214   1.749   0.017  0.00  0.00    -0.080 A 
ATOM      5  C   LIG    1       -0.013   1.076   0.008  0.00  0.00    +0.130 A 
ATOM      6  C   LIG    1        1.188   1.792   0.000  0.00  0.00    -0.170 A 
ATOM      7  C   LIG    1        1.163   3.190   0.008  0.00  0.00    +0.130 A 
ATOM      8  C   LIG    1       -0.042   3.855   0.023  0.00  0.00    -0.030 A 
BRANCH   3   9
ATOM      9  O   LIG    1       -2.419   3.798   0.045  0.00  0.00    -0.310 OA
BRANCH   9  10
ATOM     10  C   LIG    1       -3.605   3.001   0.052  0.00  0.00    +0.190 C 
BRANCH  10  11
ATOM     11  C   LIG    1       -4.833   3.913   0.068  0.00  0.00    +0.040 C 
BRANCH  11  12
ATOM     12  C   LIG    1       -6.103   3.060   0.076  0.00  0.00    +0.020 C 
BRANCH  12  14
ATOM     13  C   LIG    1       -8.601   3.118   0.100  0.00  0.00    +0.010 C 
ATOM     14  C   LIG    1       -7.331   3.972   0.092  0.00  0.00    +0.000 C 
ENDBRANCH  12  14
ENDBRANCH  11  12
ENDBRANCH  10  11
ENDBRANCH   9  10
ENDBRANCH   3   9
ENDBRANCH   1   6
BRANCH   1  15
ATOM     15  O   LIG    1        3.632   1.768  -0.024  0.00  0.00    -0.330 OA
BRANCH  15  16
ATOM     16  C   LIG    1        4.863   0.997  -0.040  0.00  0.00    +0.250 C 
BRANCH  16  17
ATOM     17  C   LIG    1        6.043   1.934  -0.046  0.00  0.00    +0.520 C 
ATOM     18  N   LIG    1        7.296   1.439  -0.061  0.00  0.00    -0.720 N 
ATOM     19  H   LIG    1        7.439   0.479  -0.068  0.00  0.00    +0.400 HD
ATOM     20  O   LIG    1        5.865   3.133  -0.038  0.00  0.00    -0.510 OA
BRANCH  18  21
ATOM     21  C   LIG    1        8.444   2.349  -0.067  0.00  0.00    +0.320 C 
BRANCH  21  22
ATOM     22  C   LIG    1        9.720   1.549  -0.084  0.00  0.00    -0.110 A 
ATOM     23  C   LIG    1       10.321   1.180   1.105  0.00  0.00    +0.020 A 
ATOM     24  C   LIG    1       11.489   0.442   1.089  0.00  0.00    +0.010 A 
ATOM     25  C   LIG    1       12.063   0.082  -0.116  0.00  0.00    +0.010 A 
ATOM     26  C   LIG    1       11.466   0.455  -1.305  0.00  0.00    +0.010 A 
ATOM     27  C   LIG    1       10.294   1.189  -1.289  0.00  0.00    +0.020 A 
ENDBRANCH  21  22
ENDBRANCH  18  21
ENDBRANCH  16  17
ENDBRANCH  15  16
ENDBRANCH   1  15
TORSDOF 11
