REMARK  Name = ZINCvU0000000FyM.0
REMARK                            x       y       z     vdW  Elec       q    Type
REMARK                         _______ _______ _______ _____ _____    ______ ____
ROOT
ATOM      1  N   LIG    1        1.133   3.323   0.092  0.00  0.00    -0.660 N 
ATOM      2  H   LIG    1        1.999   3.758   0.064  0.00  0.00    +0.420 HD
ATOM      3  C   LIG    1        0.009   4.064   0.162  0.00  0.00    +0.510 C 
ATOM      4  O   LIG    1       -1.066   3.523   0.310  0.00  0.00    -0.490 OA
ENDROOT
BRANCH   1  10
ATOM      5  C   LIG    1        2.044   1.151   0.655  0.00  0.00    +0.060 A 
ATOM      6  C   LIG    1        1.955  -0.231   0.620  0.00  0.00    +0.040 A 
ATOM      7  C   LIG    1        0.882  -0.840  -0.005  0.00  0.00    +0.010 A 
ATOM      8  C   LIG    1       -0.104  -0.073  -0.596  0.00  0.00    +0.030 A 
ATOM      9  C   LIG    1       -0.024   1.307  -0.565  0.00  0.00    +0.030 A 
ATOM     10  C   LIG    1        1.049   1.925   0.060  0.00  0.00    +0.140 A 
BRANCH   5  11
ATOM     11  O   LIG    1        3.098   1.752   1.269  0.00  0.00    -0.260 OA
BRANCH  11  16
ATOM     12  C   LIG    1        2.351   3.699   6.501  0.00  0.00    +0.100 C 
ATOM     13  C   LIG    1        2.551   3.178   5.101  0.00  0.00    -0.110 A 
ATOM     14  C   LIG    1        3.741   3.416   4.439  0.00  0.00    +0.040 A 
ATOM     15  C   LIG    1        3.927   2.939   3.156  0.00  0.00    -0.010 A 
ATOM     16  C   LIG    1        2.918   2.221   2.531  0.00  0.00    +0.110 A 
ATOM     17  C   LIG    1        1.722   1.988   3.195  0.00  0.00    -0.060 A 
ATOM     18  C   LIG    1        1.543   2.462   4.480  0.00  0.00    +0.040 A 
ENDBRANCH  11  16
ENDBRANCH   5  11
ENDBRANCH   1  10
BRANCH   3  19
ATOM     19  C   LIG    1        0.088   5.565   0.057  0.00  0.00    +0.380 C 
BRANCH  19  20
ATOM     20  N   LIG    1       -1.258   6.134   0.161  0.00  0.00    -0.480 N 
ATOM     21  C   LIG    1       -1.912   6.409   1.307  0.00  0.00    +0.480 A 
ATOM     22  N   LIG    1       -3.116   6.920   0.978  0.00  0.00    -0.470 N 
ATOM     23  H   LIG    1       -3.804   7.210   1.597  0.00  0.00    +0.470 HD
ATOM     24  N   LIG    1       -3.191   6.954  -0.421  0.00  0.00    -0.260 NA
ATOM     25  S   LIG    1       -1.321   6.156   2.894  0.00  0.00    -0.550 S 
ATOM     26  C   LIG    1       -2.071   6.486  -0.897  0.00  0.00    +0.330 A 
BRANCH  26  27
ATOM     27  C   LIG    1       -1.731   6.351  -2.331  0.00  0.00    -0.040 A 
ATOM     28  C   LIG    1       -0.907   5.311  -2.760  0.00  0.00    +0.020 A 
ATOM     29  C   LIG    1       -0.594   5.191  -4.099  0.00  0.00    +0.030 A 
ATOM     30  C   LIG    1       -1.096   6.099  -5.014  0.00  0.00    +0.040 A 
ATOM     31  C   LIG    1       -1.914   7.133  -4.594  0.00  0.00    -0.080 A 
ATOM     32  C   LIG    1       -2.458   8.116  -5.598  0.00  0.00    +0.100 C 
ATOM     33  C   LIG    1       -2.238   7.261  -3.260  0.00  0.00    +0.070 A 
ENDBRANCH  26  27
ENDBRANCH  19  20
ENDBRANCH   3  19
TORSDOF 6
