REMARK  Name = ZINCrg00000WDhKj.1
REMARK                            x       y       z     vdW  Elec       q    Type
REMARK                         _______ _______ _______ _____ _____    ______ ____
ROOT
ATOM      1  C   LIG    1       -1.322   4.886   0.036  0.00  0.00    +0.610 C 
ATOM      2  N   LIG    1       -2.666   4.856  -0.053  0.00  0.00    -0.640 N 
ATOM      3  C   LIG    1       -3.702   3.813  -0.088  0.00  0.00    +0.290 C 
ATOM      4  C   LIG    1       -4.582   4.786  -0.881  0.00  0.00    -0.020 C 
ATOM      5  C   LIG    1       -3.742   5.853  -0.164  0.00  0.00    +0.300 C 
ATOM      6  O   LIG    1       -0.740   5.952   0.111  0.00  0.00    -0.530 OA
ENDROOT
BRANCH   1   9
ATOM      7  C   LIG    1        1.758   4.657  -0.011  0.00  0.00    +0.320 C 
ATOM      8  N   LIG    1        0.822   3.531   0.020  0.00  0.00    -0.450 N 
ATOM      9  C   LIG    1       -0.558   3.631   0.042  0.00  0.00    +0.020 A 
ATOM     10  C   LIG    1       -1.094   2.382   0.074  0.00  0.00    +0.020 A 
ATOM     11  C   LIG    1       -0.026   1.454   0.067  0.00  0.00    -0.130 A 
ATOM     12  C   LIG    1        0.030   0.053   0.090  0.00  0.00    +0.090 A 
ATOM     13  C   LIG    1        1.237  -0.579   0.075  0.00  0.00    -0.040 A 
ATOM     14  C   LIG    1        2.422   0.155   0.038  0.00  0.00    +0.140 A 
ATOM     15  C   LIG    1        2.391   1.537   0.015  0.00  0.00    -0.030 A 
ATOM     16  C   LIG    1        1.169   2.201   0.030  0.00  0.00    +0.130 A 
BRANCH  14  17
ATOM     17  O   LIG    1        3.616  -0.492   0.024  0.00  0.00    -0.500 OA
ATOM     18  H   LIG    1        3.980  -0.665   0.903  0.00  0.00    +0.390 HD
ENDBRANCH  14  17
ENDBRANCH   1   9
BRANCH   4  19
ATOM     19  C   LIG    1       -6.059   4.777  -0.481  0.00  0.00    +0.290 C 
BRANCH  19  20
ATOM     20  N   LIG    1       -6.782   3.808  -1.308  0.00  0.00    -0.730 N 
ATOM     21  H   LIG    1       -6.309   3.296  -1.982  0.00  0.00    +0.400 HD
ATOM     22  C   LIG    1       -8.106   3.627  -1.131  0.00  0.00    +0.510 C 
ATOM     23  O   LIG    1       -8.698   4.267  -0.288  0.00  0.00    -0.520 OA
BRANCH  22  24
ATOM     24  C   LIG    1       -8.851   2.630  -1.981  0.00  0.00    +0.160 C 
BRANCH  24  25
ATOM     25  C   LIG    1      -10.305   2.621  -1.587  0.00  0.00    -0.020 A 
ATOM     26  C   LIG    1      -10.862   1.908  -0.590  0.00  0.00    +0.170 A 
ATOM     27  N   LIG    1      -12.175   2.182  -0.566  0.00  0.00    -0.490 NA
ATOM     28  C   LIG    1      -12.454   3.031  -1.517  0.00  0.00    +0.400 A 
ATOM     29  N   LIG    1      -11.315   3.332  -2.178  0.00  0.00    -0.560 N 
ATOM     30  H   LIG    1      -11.229   3.937  -2.930  0.00  0.00    +0.420 HD
ENDBRANCH  24  25
ENDBRANCH  22  24
ENDBRANCH  19  20
ENDBRANCH   4  19
TORSDOF 6
