REMARK  Name = ZINCrg00000WDhKj.0
REMARK                            x       y       z     vdW  Elec       q    Type
REMARK                         _______ _______ _______ _____ _____    ______ ____
ROOT
ATOM      1  C   LIG    1       -3.336   1.585   0.037  0.00  0.00    +0.610 C 
ATOM      2  N   LIG    1       -1.988   1.600   0.024  0.00  0.00    -0.630 N 
ATOM      3  C   LIG    1       -0.965   1.633  -1.038  0.00  0.00    +0.300 C 
ATOM      4  C   LIG    1       -0.025   0.981  -0.008  0.00  0.00    -0.030 C 
ATOM      5  C   LIG    1       -0.941   1.589   1.069  0.00  0.00    +0.290 C 
ATOM      6  O   LIG    1       -3.955   1.681  -1.005  0.00  0.00    -0.540 OA
ENDROOT
BRANCH   1   9
ATOM      7  C   LIG    1       -6.392   1.265   0.346  0.00  0.00    +0.330 C 
ATOM      8  N   LIG    1       -5.426   1.311   1.446  0.00  0.00    -0.450 N 
ATOM      9  C   LIG    1       -4.057   1.454   1.311  0.00  0.00    +0.020 A 
ATOM     10  C   LIG    1       -3.485   1.459   2.544  0.00  0.00    +0.020 A 
ATOM     11  C   LIG    1       -4.519   1.310   3.499  0.00  0.00    -0.130 A 
ATOM     12  C   LIG    1       -4.531   1.247   4.899  0.00  0.00    +0.090 A 
ATOM     13  C   LIG    1       -5.713   1.095   5.562  0.00  0.00    -0.040 A 
ATOM     14  C   LIG    1       -6.913   1.001   4.860  0.00  0.00    +0.140 A 
ATOM     15  C   LIG    1       -6.925   1.060   3.478  0.00  0.00    -0.030 A 
ATOM     16  C   LIG    1       -5.730   1.215   2.784  0.00  0.00    +0.120 A 
BRANCH  14  17
ATOM     17  O   LIG    1       -8.081   0.850   5.537  0.00  0.00    -0.500 OA
ATOM     18  H   LIG    1       -8.328  -0.072   5.695  0.00  0.00    +0.390 HD
ENDBRANCH  14  17
ENDBRANCH   1   9
BRANCH   4  19
ATOM     19  C   LIG    1        1.391   1.562  -0.012  0.00  0.00    +0.280 C 
BRANCH  19  20
ATOM     20  N   LIG    1        2.222   0.829   0.946  0.00  0.00    -0.740 N 
ATOM     21  H   LIG    1        1.841   0.099   1.460  0.00  0.00    +0.400 HD
ATOM     22  C   LIG    1        3.516   1.168   1.114  0.00  0.00    +0.520 C 
ATOM     23  O   LIG    1        3.992   2.080   0.472  0.00  0.00    -0.510 OA
BRANCH  22  24
ATOM     24  C   LIG    1        4.371   0.413   2.100  0.00  0.00    +0.150 C 
BRANCH  24  25
ATOM     25  C   LIG    1        5.765   0.985   2.096  0.00  0.00    +0.010 A 
ATOM     26  C   LIG    1        6.433   1.449   3.170  0.00  0.00    +0.130 A 
ATOM     27  N   LIG    1        7.657   1.869   2.723  0.00  0.00    -0.570 N 
ATOM     28  H   LIG    1        8.366   2.252   3.263  0.00  0.00    +0.420 HD
ATOM     29  C   LIG    1        7.691   1.656   1.390  0.00  0.00    +0.400 A 
ATOM     30  N   LIG    1        6.556   1.127   1.022  0.00  0.00    -0.470 NA
ENDBRANCH  24  25
ENDBRANCH  22  24
ENDBRANCH  19  20
ENDBRANCH   4  19
TORSDOF 6
