REMARK  Name = ZINCpk000004AN38.0
REMARK                            x       y       z     vdW  Elec       q    Type
REMARK                         _______ _______ _______ _____ _____    ______ ____
ROOT
ATOM      1  C   LIG    1       -3.883   4.618  -1.087  0.00  0.00    +0.570 C 
ATOM      2  N   LIG    1       -3.236   4.233   0.031  0.00  0.00    -0.610 N 
ATOM      3  C   LIG    1       -1.881   4.723   0.324  0.00  0.00    +0.290 C 
ATOM      4  C   LIG    1       -1.920   5.575   1.599  0.00  0.00    +0.120 C 
ATOM      5  C   LIG    1       -2.741   4.856   2.640  0.00  0.00    -0.300 A 
ATOM      6  C   LIG    1       -3.609   3.852   2.375  0.00  0.00    +0.160 A 
ATOM      7  N   LIG    1       -4.181   3.454   3.544  0.00  0.00    -0.390 N 
ATOM      8  N   LIG    1       -3.641   4.231   4.580  0.00  0.00    -0.520 N 
ATOM      9  H   LIG    1       -3.865   4.164   5.521  0.00  0.00    +0.440 HD
ATOM     10  C   LIG    1       -5.186   2.399   3.694  0.00  0.00    +0.350 C 
ATOM     11  C   LIG    1       -2.755   5.089   4.031  0.00  0.00    +0.540 A 
ATOM     12  O   LIG    1       -2.091   5.918   4.628  0.00  0.00    -0.550 OA
ATOM     13  C   LIG    1       -3.863   3.304   0.990  0.00  0.00    +0.380 C 
ATOM     14  O   LIG    1       -3.391   5.457  -1.816  0.00  0.00    -0.520 OA
ENDROOT
BRANCH   1  18
ATOM     15  C   LIG    1       -7.644   2.902  -2.062  0.00  0.00    +0.170 A 
ATOM     16  C   LIG    1       -6.694   2.150  -1.378  0.00  0.00    +0.000 A 
ATOM     17  C   LIG    1       -5.474   2.703  -1.061  0.00  0.00    +0.050 A 
ATOM     18  C   LIG    1       -5.190   4.022  -1.426  0.00  0.00    -0.130 A 
ATOM     19  C   LIG    1       -6.148   4.776  -2.109  0.00  0.00    +0.090 A 
ATOM     20  C   LIG    1       -7.364   4.215  -2.428  0.00  0.00    +0.020 A 
BRANCH  15  22
ATOM     21  C   LIG    1       -9.998   2.785  -1.782  0.00  0.00    +0.550 C 
ATOM     22  N   LIG    1       -8.877   2.338  -2.383  0.00  0.00    -0.580 N 
ATOM     23  C   LIG    1       -8.956   1.261  -3.372  0.00  0.00    +0.300 C 
ATOM     24  O   LIG    1       -9.924   3.613  -0.895  0.00  0.00    -0.530 OA
BRANCH  21  26
ATOM     25  C   LIG    1      -12.417   2.712  -1.608  0.00  0.00    +0.160 C 
ATOM     26  C   LIG    1      -11.311   2.271  -2.200  0.00  0.00    -0.090 C 
ENDBRANCH  21  26
ENDBRANCH  15  22
ENDBRANCH   1  18
TORSDOF 3
