REMARK  Name = ZINCpe000027pH3K.0
REMARK                            x       y       z     vdW  Elec       q    Type
REMARK                         _______ _______ _______ _____ _____    ______ ____
ROOT
ATOM      1  C   LIG    1        4.856   4.195   0.428  0.00  0.00    +0.430 C 
ATOM      2  O   LIG    1        4.594   5.367   0.249  0.00  0.00    -0.500 OA
ENDROOT
BRANCH   1   4
ATOM      3  C   LIG    1        7.189   4.585  -0.220  0.00  0.00    +0.560 A 
ATOM      4  C   LIG    1        6.151   3.710   0.148  0.00  0.00    -0.440 A 
ATOM      5  C   LIG    1        6.457   2.276   0.225  0.00  0.00    +0.580 A 
ATOM      6  N   LIG    1        7.713   1.867  -0.053  0.00  0.00    -0.660 N 
ATOM      7  H   LIG    1        7.930   0.923  -0.007  0.00  0.00    +0.440 HD
ATOM      8  C   LIG    1        8.665   2.751  -0.395  0.00  0.00    +0.720 A 
ATOM      9  O   LIG    1        9.783   2.341  -0.637  0.00  0.00    -0.520 OA
ATOM     10  O   LIG    1        5.597   1.473   0.533  0.00  0.00    -0.500 OA
ATOM     11  N   LIG    1        8.427   4.069  -0.477  0.00  0.00    -0.640 N 
ATOM     12  H   LIG    1        9.148   4.667  -0.728  0.00  0.00    +0.440 HD
BRANCH   3  13
ATOM     13  N   LIG    1        6.964   5.923  -0.314  0.00  0.00    -0.800 N 
ATOM     14  H   LIG    1        7.537   6.473  -0.871  0.00  0.00    +0.410 HD
ATOM     15  H   LIG    1        6.231   6.328   0.176  0.00  0.00    +0.440 HD
ENDBRANCH   3  13
ENDBRANCH   1   4
BRANCH   1  16
ATOM     16  C   LIG    1        3.797   3.257   0.949  0.00  0.00    +0.300 C 
BRANCH  16  17
ATOM     17  N   LIG    1        2.550   3.997   1.159  0.00  0.00    -0.740 N 
ATOM     18  H   LIG    1        2.510   4.946   0.963  0.00  0.00    +0.410 HD
BRANCH  17  19
ATOM     19  C   LIG    1        1.418   3.335   1.642  0.00  0.00    +0.220 A 
ATOM     20  C   LIG    1        1.477   1.974   1.922  0.00  0.00    -0.050 A 
ATOM     21  C   LIG    1        0.357   1.307   2.389  0.00  0.00    +0.060 A 
ATOM     22  C   LIG    1       -0.825   1.992   2.567  0.00  0.00    -0.110 A 
ATOM     23  C   LIG    1       -2.071   1.251   3.018  0.00  0.00    +0.070 C 
ATOM     24  C   LIG    1       -2.441   1.693   4.429  0.00  0.00    +0.020 C 
ATOM     25  C   LIG    1       -3.329   2.928   4.412  0.00  0.00    +0.030 C 
ATOM     26  C   LIG    1       -2.617   4.194   4.005  0.00  0.00    +0.020 C 
ATOM     27  C   LIG    1       -2.145   4.089   2.568  0.00  0.00    +0.410 C 
ATOM     28  O   LIG    1       -2.779   4.584   1.660  0.00  0.00    -0.440 OA
ATOM     29  C   LIG    1       -0.888   3.362   2.315  0.00  0.00    -0.110 A 
ATOM     30  C   LIG    1        0.238   4.036   1.840  0.00  0.00    -0.040 A 
ENDBRANCH  17  19
ENDBRANCH  16  17
ENDBRANCH   1  16
TORSDOF 5
