REMARK  Name = ZINCrH000004uFBp.0
REMARK                            x       y       z     vdW  Elec       q    Type
REMARK                         _______ _______ _______ _____ _____    ______ ____
ROOT
ATOM      1  O   LIG    1       -0.169  -0.330  -0.117  0.00  0.00    -0.520 OA
ATOM      2  C   LIG    1       -0.042   0.879  -0.088  0.00  0.00    +0.560 C 
ATOM      3  N   LIG    1       -1.131   1.670  -0.030  0.00  0.00    -0.720 N 
ATOM      4  H   LIG    1       -1.029   2.635  -0.007  0.00  0.00    +0.400 HD
ENDROOT
BRANCH   2   5
ATOM      5  C   LIG    1        1.309   1.480  -0.123  0.00  0.00    -0.100 A 
ATOM      6  C   LIG    1        1.458   2.868  -0.096  0.00  0.00    +0.050 A 
ATOM      7  C   LIG    1        2.721   3.422  -0.122  0.00  0.00    +0.060 A 
ATOM      8  C   LIG    1        3.837   2.607  -0.188  0.00  0.00    -0.160 A 
ATOM      9  C   LIG    1        3.695   1.231  -0.221  0.00  0.00    +0.080 A 
ATOM     10  C   LIG    1        2.438   0.663  -0.189  0.00  0.00    +0.090 A 
BRANCH   8  11
ATOM     11  C   LIG    1        5.213   3.220  -0.224  0.00  0.00    +0.510 C 
ATOM     12  F   LIG    1        6.128   2.349   0.377  0.00  0.00    -0.170 F 
ATOM     13  F   LIG    1        5.201   4.435   0.471  0.00  0.00    -0.170 F 
ATOM     14  F   LIG    1        5.589   3.447  -1.552  0.00  0.00    -0.170 F 
ENDBRANCH   8  11
ENDBRANCH   2   5
BRANCH   3  15
ATOM     15  C   LIG    1       -2.469   1.074  -0.002  0.00  0.00    +0.320 C 
BRANCH  15  16
ATOM     16  C   LIG    1       -3.504   2.167   0.062  0.00  0.00    -0.110 A 
ATOM     17  C   LIG    1       -4.129   2.458   1.261  0.00  0.00    +0.040 A 
ATOM     18  C   LIG    1       -5.076   3.463   1.321  0.00  0.00    +0.010 A 
ATOM     19  C   LIG    1       -5.405   4.172   0.181  0.00  0.00    +0.010 A 
ATOM     20  C   LIG    1       -4.784   3.878  -1.019  0.00  0.00    +0.010 A 
ATOM     21  C   LIG    1       -3.834   2.875  -1.078  0.00  0.00    -0.090 A 
BRANCH  21  22
ATOM     22  C   LIG    1       -3.157   2.555  -2.386  0.00  0.00    +0.350 C 
BRANCH  22  23
ATOM     23  N   LIG    1       -3.632   3.477  -3.421  0.00  0.00    -0.620 N 
ATOM     24  C   LIG    1       -3.024   4.781  -3.710  0.00  0.00    +0.250 C 
ATOM     25  C   LIG    1       -4.081   5.556  -4.527  0.00  0.00    +0.040 C 
ATOM     26  C   LIG    1       -4.893   4.405  -5.165  0.00  0.00    +0.050 C 
ATOM     27  C   LIG    1       -4.677   3.235  -4.231  0.00  0.00    +0.520 C 
ATOM     28  O   LIG    1       -5.351   2.227  -4.213  0.00  0.00    -0.520 OA
ENDBRANCH  22  23
ENDBRANCH  21  22
ENDBRANCH  15  16
ENDBRANCH   3  15
TORSDOF 6
