REMARK  Name = ZINCvU0000000Bpe.0
REMARK                            x       y       z     vdW  Elec       q    Type
REMARK                         _______ _______ _______ _____ _____    ______ ____
ROOT
ATOM      1  C   LIG    1        2.395   4.205  -0.328  0.00  0.00    +0.130 A 
ATOM      2  C   LIG    1        3.605   3.544  -0.169  0.00  0.00    -0.040 A 
ATOM      3  C   LIG    1        3.633   2.171  -0.007  0.00  0.00    +0.060 A 
ATOM      4  C   LIG    1        2.457   1.449   0.003  0.00  0.00    +0.010 A 
ATOM      5  C   LIG    1        1.236   2.104  -0.161  0.00  0.00    -0.100 A 
ATOM      6  C   LIG    1        1.209   3.490  -0.324  0.00  0.00    +0.060 A 
ENDROOT
BRANCH   5   7
ATOM      7  C   LIG    1       -0.026   1.334  -0.155  0.00  0.00    +0.560 C 
ATOM      8  N   LIG    1        0.002  -0.004   0.002  0.00  0.00    -0.670 N 
ATOM      9  H   LIG    1        0.852  -0.470   0.037  0.00  0.00    +0.420 HD
ATOM     10  O   LIG    1       -1.089   1.907  -0.298  0.00  0.00    -0.500 OA
BRANCH   8  11
ATOM     11  C   LIG    1       -1.194  -0.720   0.115  0.00  0.00    +0.180 A 
ATOM     12  C   LIG    1       -2.293  -0.145   0.740  0.00  0.00    +0.030 A 
ATOM     13  C   LIG    1       -3.474  -0.853   0.844  0.00  0.00    +0.090 A 
ATOM     14  C   LIG    1       -3.560  -2.137   0.339  0.00  0.00    -0.200 A 
ATOM     15  C   LIG    1       -2.466  -2.715  -0.279  0.00  0.00    +0.090 A 
ATOM     16  C   LIG    1       -1.283  -2.010  -0.392  0.00  0.00    -0.010 A 
BRANCH  14  17
ATOM     17  C   LIG    1       -4.848  -2.909   0.461  0.00  0.00    +0.510 C 
ATOM     18  F   LIG    1       -4.966  -3.793  -0.617  0.00  0.00    -0.180 F 
ATOM     19  F   LIG    1       -5.928  -2.019   0.454  0.00  0.00    -0.180 F 
ATOM     20  F   LIG    1       -4.848  -3.631   1.659  0.00  0.00    -0.180 F 
ENDBRANCH  14  17
ENDBRANCH   8  11
ENDBRANCH   5   7
BRANCH   1  21
ATOM     21  O   LIG    1        2.374   5.554  -0.486  0.00  0.00    -0.310 OA
BRANCH  21  22
ATOM     22  C   LIG    1        3.634   6.228  -0.480  0.00  0.00    +0.330 C 
BRANCH  22  30
ATOM     23  C   LIG    1        5.846  11.332  -0.928  0.00  0.00    +0.120 C 
ATOM     24  C   LIG    1        4.356  11.123  -1.003  0.00  0.00    -0.040 A 
ATOM     25  C   LIG    1        3.521  12.181  -1.183  0.00  0.00    +0.030 A 
ATOM     26  C   LIG    1        2.134  11.970  -1.252  0.00  0.00    +0.020 A 
ATOM     27  C   LIG    1        1.629  10.724  -1.139  0.00  0.00    +0.220 A 
ATOM     28  N   LIG    1        2.455   9.653  -0.958  0.00  0.00    -0.360 N 
ATOM     29  C   LIG    1        2.216   8.312  -0.823  0.00  0.00    +0.120 A 
ATOM     30  C   LIG    1        3.414   7.707  -0.667  0.00  0.00    +0.050 A 
ATOM     31  N   LIG    1        4.370   8.638  -0.711  0.00  0.00    -0.480 NA
ATOM     32  C   LIG    1        3.813   9.827  -0.888  0.00  0.00    +0.230 A 
ENDBRANCH  22  30
ENDBRANCH  21  22
ENDBRANCH   1  21
TORSDOF 6
