REMARK  Name = ZINCrH00000mjajE.0
REMARK                            x       y       z     vdW  Elec       q    Type
REMARK                         _______ _______ _______ _____ _____    ______ ____
ROOT
ATOM      1  N   LIG    1       -3.226   1.257   1.275  0.00  0.00    -0.740 N 
ATOM      2  H   LIG    1       -2.833   1.838   1.945  0.00  0.00    +0.400 HD
ENDROOT
BRANCH   1   3
ATOM      3  C   LIG    1       -4.468   0.662   1.509  0.00  0.00    +0.220 A 
ATOM      4  C   LIG    1       -5.034  -0.166   0.546  0.00  0.00    -0.050 A 
ATOM      5  C   LIG    1       -6.262  -0.762   0.773  0.00  0.00    +0.060 A 
ATOM      6  C   LIG    1       -6.939  -0.530   1.953  0.00  0.00    -0.030 A 
ATOM      7  C   LIG    1       -6.381   0.306   2.926  0.00  0.00    +0.060 A 
ATOM      8  C   LIG    1       -5.139   0.903   2.698  0.00  0.00    -0.030 A 
BRANCH   7   9
ATOM      9  C   LIG    1       -7.082   0.549   4.151  0.00  0.00    -0.090 C 
ATOM     10  C   LIG    1       -7.656   0.749   5.155  0.00  0.00    -0.100 C 
BRANCH  10  11
ATOM     11  C   LIG    1       -8.356   0.992   6.381  0.00  0.00    -0.090 A 
ATOM     12  C   LIG    1       -9.570   0.467   6.713  0.00  0.00    +0.040 A 
ATOM     13  C   LIG    1      -10.036   0.851   7.951  0.00  0.00    +0.010 A 
ATOM     14  C   LIG    1       -9.233   1.675   8.631  0.00  0.00    -0.040 A 
ATOM     15  S   LIG    1       -7.782   2.009   7.696  0.00  0.00    +0.150 S 
ENDBRANCH  10  11
ENDBRANCH   7   9
ENDBRANCH   1   3
BRANCH   1  16
ATOM     16  C   LIG    1       -2.517   1.003   0.019  0.00  0.00    +0.360 C 
BRANCH  16  22
ATOM     17  C   LIG    1        2.021   5.304   0.012  0.00  0.00    +0.120 A 
ATOM     18  N   LIG    1        2.231   4.034   0.003  0.00  0.00    -0.230 NA
ATOM     19  N   LIG    1        1.149   3.161   0.008  0.00  0.00    -0.370 N 
ATOM     20  C   LIG    1        1.182   1.797   0.000  0.00  0.00    +0.540 A 
ATOM     21  C   LIG    1       -0.013   1.076   0.008  0.00  0.00    -0.080 A 
ATOM     22  C   LIG    1       -1.212   1.756   0.017  0.00  0.00    +0.180 A 
ATOM     23  N   LIG    1       -1.202   3.084   0.030  0.00  0.00    -0.480 NA
ATOM     24  O   LIG    1        2.253   1.210  -0.013  0.00  0.00    -0.490 OA
ATOM     25  C   LIG    1       -0.071   3.763   0.023  0.00  0.00    +0.300 A 
ATOM     26  S   LIG    1        0.261   5.503   0.030  0.00  0.00    +0.140 S 
BRANCH  17  28
ATOM     27  C   LIG    1        4.456   5.772  -0.009  0.00  0.00    +0.070 C 
ATOM     28  C   LIG    1        3.059   6.396   0.008  0.00  0.00    +0.180 C 
ENDBRANCH  17  28
ENDBRANCH  16  22
ENDBRANCH   1  16
TORSDOF 6
