REMARK  Name = ZINCrH000001lPCB.0
REMARK                            x       y       z     vdW  Elec       q    Type
REMARK                         _______ _______ _______ _____ _____    ______ ____
ROOT
ATOM      1  O   LIG    1        0.845   2.566  -4.659  0.00  0.00    -0.570 OA
ATOM      2  C   LIG    1       -0.301   2.165  -4.708  0.00  0.00    +0.710 C 
ATOM      3  N   LIG    1       -0.829   1.502  -3.660  0.00  0.00    -0.620 N 
ATOM      4  C   LIG    1       -2.246   1.107  -3.648  0.00  0.00    +0.240 C 
ATOM      5  C   LIG    1       -2.868   1.573  -2.327  0.00  0.00    +0.210 C 
ATOM      6  O   LIG    1       -2.069   1.101  -1.239  0.00  0.00    -0.350 OA
ATOM      7  C   LIG    1       -0.735   1.611  -1.228  0.00  0.00    +0.070 C 
ATOM      8  C   LIG    1       -0.772   3.141  -1.190  0.00  0.00    +0.010 C 
ATOM      9  C   LIG    1       -1.434   3.593   0.116  0.00  0.00    +0.000 C 
ATOM     10  C   LIG    1       -0.666   2.999   1.299  0.00  0.00    +0.210 C 
ATOM     11  O   LIG    1       -0.644   1.574   1.186  0.00  0.00    -0.370 OA
ATOM     12  C   LIG    1        0.004   1.092   0.007  0.00  0.00    +0.260 C 
ATOM     13  C   LIG    1       -0.004   1.150  -2.493  0.00  0.00    +0.300 C 
ATOM     14  N   LIG    1       -1.045   2.383  -5.810  0.00  0.00    -0.670 N 
ATOM     15  H   LIG    1       -1.977   2.115  -5.827  0.00  0.00    +0.420 HD
ENDROOT
BRANCH  14  16
ATOM     16  C   LIG    1       -0.472   2.998  -6.932  0.00  0.00    +0.200 A 
ATOM     17  C   LIG    1        0.622   3.837  -6.782  0.00  0.00    +0.040 A 
ATOM     18  C   LIG    1        1.186   4.442  -7.891  0.00  0.00    -0.010 A 
ATOM     19  C   LIG    1        0.662   4.213  -9.151  0.00  0.00    +0.010 A 
ATOM     20  C   LIG    1       -0.429   3.378  -9.308  0.00  0.00    +0.020 A 
ATOM     21 CL   LIG    1        2.556   5.492  -7.701  0.00  0.00    -0.060 Cl
ATOM     22  C   LIG    1       -0.997   2.764  -8.203  0.00  0.00    +0.060 A 
BRANCH  22  23
ATOM     23  N   LIG    1       -2.098   1.914  -8.361  0.00  0.00    -0.500 N 
ATOM     24  C   LIG    1       -1.738   0.727  -9.147  0.00  0.00    +0.180 C 
ATOM     25  C   LIG    1       -2.919  -0.245  -9.177  0.00  0.00    +0.020 C 
ATOM     26  C   LIG    1       -4.133   0.452  -9.798  0.00  0.00    +0.010 C 
ATOM     27  C   LIG    1       -4.457   1.711  -8.989  0.00  0.00    +0.020 C 
ATOM     28  C   LIG    1       -3.231   2.627  -8.965  0.00  0.00    +0.180 C 
ENDBRANCH  22  23
ENDBRANCH  14  16
TORSDOF 2
