REMARK  Name = ZINCAx0000000g3H.0
REMARK                            x       y       z     vdW  Elec       q    Type
REMARK                         _______ _______ _______ _____ _____    ______ ____
ROOT
ATOM      1  N   LIG    1       -2.698  -0.150  -0.174  0.00  0.00    -0.600 N 
ATOM      2  C   LIG    1       -1.402  -0.483  -0.333  0.00  0.00    +0.540 C 
ATOM      3  O   LIG    1       -1.076  -1.240  -1.223  0.00  0.00    -0.520 OA
ATOM      4  C   LIG    1       -3.092   0.764   0.901  0.00  0.00    +0.300 C 
ENDROOT
BRANCH   2   5
ATOM      5  C   LIG    1       -0.359   0.084   0.594  0.00  0.00    +0.010 C 
ATOM      6  C   LIG    1       -0.307   1.626   0.493  0.00  0.00    +0.100 C 
ATOM      7  C   LIG    1        1.162   1.958   0.628  0.00  0.00    +0.520 C 
ATOM      8  N   LIG    1        1.905   0.856   0.428  0.00  0.00    -0.560 N 
ATOM      9  O   LIG    1        1.605   3.058   0.879  0.00  0.00    -0.500 OA
ATOM     10  C   LIG    1        1.063  -0.309   0.135  0.00  0.00    +0.310 C 
BRANCH   8  11
ATOM     11  C   LIG    1        3.305   0.824   0.491  0.00  0.00    +0.170 A 
ATOM     12  C   LIG    1        3.989  -0.335   0.152  0.00  0.00    -0.010 A 
ATOM     13  C   LIG    1        5.369  -0.367   0.215  0.00  0.00    +0.060 A 
ATOM     14  C   LIG    1        6.074   0.757   0.616  0.00  0.00    +0.030 A 
ATOM     15  O   LIG    1        7.434   0.705   0.676  0.00  0.00    -0.310 OA
ATOM     16  C   LIG    1        8.124   1.958   0.723  0.00  0.00    +0.220 C 
ATOM     17  C   LIG    1        7.427   2.852   1.757  0.00  0.00    +0.220 C 
ATOM     18  O   LIG    1        6.067   3.035   1.347  0.00  0.00    -0.300 OA
ATOM     19  C   LIG    1        5.392   1.920   0.955  0.00  0.00    +0.080 A 
ATOM     20  C   LIG    1        4.008   1.953   0.888  0.00  0.00    +0.020 A 
ENDBRANCH   8  11
ENDBRANCH   2   5
BRANCH   1  21
ATOM     21  C   LIG    1       -3.713  -0.701  -1.076  0.00  0.00    +0.340 C 
BRANCH  21  24
ATOM     22  N   LIG    1       -5.186  -2.686  -1.174  0.00  0.00    -0.670 N 
ATOM     23  H   LIG    1       -5.586  -2.313  -1.975  0.00  0.00    +0.410 HD
ATOM     24  C   LIG    1       -4.238  -1.995  -0.510  0.00  0.00    +0.500 C 
ATOM     25  O   LIG    1       -3.807  -2.416   0.543  0.00  0.00    -0.510 OA
BRANCH  22  29
ATOM     26  C   LIG    1       -6.398  -6.428   0.219  0.00  0.00    +0.090 A 
ATOM     27  C   LIG    1       -5.086  -6.016   0.388  0.00  0.00    -0.010 A 
ATOM     28  C   LIG    1       -4.683  -4.778  -0.078  0.00  0.00    +0.030 A 
ATOM     29  C   LIG    1       -5.595  -3.941  -0.707  0.00  0.00    +0.150 A 
ATOM     30  C   LIG    1       -6.910  -4.351  -0.877  0.00  0.00    -0.060 A 
ATOM     31  C   LIG    1       -7.313  -5.593  -0.415  0.00  0.00    +0.120 A 
BRANCH  26  32
ATOM     32  O   LIG    1       -6.791  -7.648   0.674  0.00  0.00    -0.300 OA
BRANCH  32  34
ATOM     33  C   LIG    1       -6.424  -9.778   1.755  0.00  0.00    +0.070 C 
ATOM     34  C   LIG    1       -5.799  -8.453   1.315  0.00  0.00    +0.170 C 
ENDBRANCH  32  34
ENDBRANCH  26  32
BRANCH  31  35
ATOM     35  O   LIG    1       -8.601  -5.996  -0.582  0.00  0.00    -0.300 OA
BRANCH  35  36
ATOM     36  C   LIG    1       -9.485  -5.088  -1.242  0.00  0.00    +0.170 C 
ATOM     37  C   LIG    1      -10.879  -5.712  -1.336  0.00  0.00    +0.070 C 
ENDBRANCH  35  36
ENDBRANCH  31  35
ENDBRANCH  22  29
ENDBRANCH  21  24
ENDBRANCH   1  21
TORSDOF 9
