REMARK  Name = ZINCpk00000y6yMw.0
REMARK                            x       y       z     vdW  Elec       q    Type
REMARK                         _______ _______ _______ _____ _____    ______ ____
ROOT
ATOM      1  N   LIG    1       -1.525  -1.822  -0.576  0.00  0.00    -0.380 N 
ATOM      2  N   LIG    1       -2.845  -1.832  -1.060  0.00  0.00    -0.080 NA
ATOM      3  N   LIG    1       -3.208  -0.601  -1.180  0.00  0.00    -0.030 NA
ATOM      4  N   LIG    1       -2.256   0.181  -0.817  0.00  0.00    -0.360 NA
ATOM      5  C   LIG    1       -1.204  -0.514  -0.445  0.00  0.00    +0.430 A 
ENDROOT
BRANCH   5   6
ATOM      6  N   LIG    1        0.002  -0.004   0.002  0.00  0.00    -0.420 N 
ATOM      7  C   LIG    1        1.104  -0.348  -0.932  0.00  0.00    +0.200 C 
ATOM      8  C   LIG    1        2.213   0.680  -0.627  0.00  0.00    -0.090 C 
ATOM      9  C   LIG    1        2.761   1.230  -1.961  0.00  0.00    +0.210 C 
ATOM     10  O   LIG    1        1.897   2.339  -2.289  0.00  0.00    -0.370 OA
ATOM     11  C   LIG    1        1.663   3.021  -1.039  0.00  0.00    +0.220 C 
ATOM     12  C   LIG    1        3.303   0.118   0.287  0.00  0.00    +0.070 C 
ATOM     13  C   LIG    1        1.468   1.894  -0.002  0.00  0.00    -0.090 C 
ATOM     14  C   LIG    1        1.990   2.258   1.390  0.00  0.00    +0.060 C 
ATOM     15  C   LIG    1       -0.018   1.481   0.010  0.00  0.00    +0.240 C 
ENDBRANCH   5   6
BRANCH   1  16
ATOM     16  C   LIG    1       -0.677  -2.979  -0.279  0.00  0.00    +0.460 C 
BRANCH  16  20
ATOM     17  N   LIG    1       -1.007  -3.376   3.349  0.00  0.00    -0.360 N 
ATOM     18  C   LIG    1       -1.315  -4.629   2.954  0.00  0.00    +0.240 A 
ATOM     19  C   LIG    1       -1.241  -4.665   1.603  0.00  0.00    -0.100 A 
ATOM     20  C   LIG    1       -0.875  -3.390   1.158  0.00  0.00    +0.030 A 
ATOM     21  N   LIG    1       -0.729  -2.618   2.204  0.00  0.00    -0.250 NA
BRANCH  17  22
ATOM     22  C   LIG    1       -0.964  -2.894   4.732  0.00  0.00    +0.320 C 
BRANCH  22  24
ATOM     23  C   LIG    1        0.594  -1.031   4.147  0.00  0.00    +0.030 C 
ATOM     24  C   LIG    1        0.407  -2.277   5.015  0.00  0.00    -0.030 C 
ATOM     25  C   LIG    1        0.495  -1.887   6.492  0.00  0.00    +0.030 C 
ENDBRANCH  22  24
ENDBRANCH  17  22
ENDBRANCH  16  20
ENDBRANCH   1  16
TORSDOF 5
