REMARK  Name = ZINCrD000000BY5N.0
REMARK                            x       y       z     vdW  Elec       q    Type
REMARK                         _______ _______ _______ _____ _____    ______ ____
ROOT
ATOM      1  C   LIG    1       -1.226   1.752   0.012  0.00  0.00    +0.180 A 
ATOM      2  C   LIG    1       -0.021   1.084  -0.183  0.00  0.00    +0.010 A 
ATOM      3  C   LIG    1        1.163   1.786  -0.196  0.00  0.00    +0.100 A 
ATOM      4  C   LIG    1        1.154   3.171  -0.008  0.00  0.00    -0.160 A 
ATOM      5  C   LIG    1       -0.058   3.839   0.192  0.00  0.00    +0.070 A 
ATOM      6  C   LIG    1       -1.238   3.130   0.204  0.00  0.00    -0.020 A 
ENDROOT
BRANCH   1   9
ATOM      7  O   LIG    1       -1.466  -0.694   1.027  0.00  0.00    -0.520 OA
ATOM      8  C   LIG    1       -2.456  -0.217   0.507  0.00  0.00    +0.600 C 
ATOM      9  N   LIG    1       -2.423   1.039   0.020  0.00  0.00    -0.670 N 
ATOM     10  H   LIG    1       -3.233   1.447  -0.326  0.00  0.00    +0.410 HD
BRANCH   8  11
ATOM     11  C   LIG    1       -3.693  -1.014   0.409  0.00  0.00    -0.290 A 
ATOM     12  C   LIG    1       -3.872  -2.308   0.856  0.00  0.00    +0.350 A 
ATOM     13  N   LIG    1       -5.138  -2.657   0.578  0.00  0.00    -0.370 N 
ATOM     14  N   LIG    1       -5.766  -1.581  -0.060  0.00  0.00    -0.280 NA
ATOM     15  C   LIG    1       -4.915  -0.598  -0.165  0.00  0.00    +0.290 A 
BRANCH  13  16
ATOM     16  C   LIG    1       -5.756  -3.950   0.884  0.00  0.00    +0.380 C 
BRANCH  16  17
ATOM     17  C   LIG    1       -7.031  -3.725   1.700  0.00  0.00    +0.450 C 
ATOM     18  F   LIG    1       -6.711  -3.067   2.892  0.00  0.00    -0.180 F 
ATOM     19  F   LIG    1       -7.621  -4.959   1.992  0.00  0.00    -0.170 F 
ATOM     20  F   LIG    1       -7.926  -2.943   0.961  0.00  0.00    -0.160 F 
ENDBRANCH  16  17
ENDBRANCH  13  16
ENDBRANCH   8  11
ENDBRANCH   1   9
BRANCH   4  21
ATOM     21  C   LIG    1        2.421   3.928  -0.022  0.00  0.00    +0.560 C 
ATOM     22  N   LIG    1        2.411   5.263   0.159  0.00  0.00    -0.720 N 
ATOM     23  H   LIG    1        1.571   5.727   0.298  0.00  0.00    +0.400 HD
ATOM     24  O   LIG    1        3.474   3.346  -0.198  0.00  0.00    -0.540 OA
BRANCH  22  25
ATOM     25  C   LIG    1        3.669   6.014   0.145  0.00  0.00    +0.230 C 
ATOM     26  C   LIG    1        4.291   6.029   1.556  0.00  0.00    +0.000 C 
ATOM     27  C   LIG    1        4.910   7.444   1.682  0.00  0.00    +0.010 C 
ATOM     28  C   LIG    1        3.872   8.338   0.958  0.00  0.00    +0.020 C 
ATOM     29  C   LIG    1        3.403   7.481  -0.236  0.00  0.00    +0.020 C 
ENDBRANCH  22  25
ENDBRANCH   4  21
TORSDOF 6
