REMARK  Name = ZINCpe00000MJLYT.2
REMARK                            x       y       z     vdW  Elec       q    Type
REMARK                         _______ _______ _______ _____ _____    ______ ____
ROOT
ATOM      1  C   LIG    1       -0.189   2.913  -1.239  0.00  0.00    +0.240 C 
ATOM      2  C   LIG    1       -1.100   3.587  -0.207  0.00  0.00    +0.310 C 
ATOM      3  N   LIG    1       -0.780   3.041   1.121  0.00  0.00    -0.600 N 
ATOM      4  C   LIG    1       -0.736   1.578   1.276  0.00  0.00    +0.270 C 
ATOM      5  C   LIG    1        0.157   1.002   0.171  0.00  0.00    +0.230 C 
ATOM      6  C   LIG    1       -0.535   3.857   2.166  0.00  0.00    +0.590 C 
ATOM      7  O   LIG    1       -0.248   3.386   3.249  0.00  0.00    -0.530 OA
ATOM      8  O   LIG    1       -0.285   1.494  -1.096  0.00  0.00    -0.360 OA
ENDROOT
BRANCH   1  13
ATOM      9  C   LIG    1       -1.847   3.627  -4.379  0.00  0.00    +0.230 A 
ATOM     10  N   LIG    1       -0.655   4.061  -4.696  0.00  0.00    -0.300 NA
ATOM     11  N   LIG    1        0.161   3.863  -3.570  0.00  0.00    -0.470 N 
ATOM     12  H   LIG    1        1.102   4.083  -3.488  0.00  0.00    +0.440 HD
ATOM     13  C   LIG    1       -0.621   3.309  -2.628  0.00  0.00    +0.290 A 
ATOM     14  N   LIG    1       -1.822   3.168  -3.128  0.00  0.00    -0.510 NA
BRANCH   9  15
ATOM     15  C   LIG    1       -3.052   3.639  -5.283  0.00  0.00    +0.150 C 
BRANCH  15  17
ATOM     16  C   LIG    1       -4.334   2.342  -6.990  0.00  0.00    +0.030 C 
ATOM     17  C   LIG    1       -3.111   2.330  -6.072  0.00  0.00    +0.010 C 
ENDBRANCH  15  17
ENDBRANCH   9  15
ENDBRANCH   1  13
BRANCH   6  18
ATOM     18  C   LIG    1       -0.614   5.323   1.993  0.00  0.00    -0.040 A 
ATOM     19  C   LIG    1       -0.133   6.175   2.995  0.00  0.00    +0.140 A 
ATOM     20  C   LIG    1       -0.229   7.539   2.789  0.00  0.00    -0.030 A 
ATOM     21  C   LIG    1       -0.799   7.983   1.595  0.00  0.00    +0.360 A 
ATOM     22  N   LIG    1       -1.230   7.102   0.699  0.00  0.00    -0.310 NA
ATOM     23  N   LIG    1       -1.137   5.836   0.886  0.00  0.00    -0.160 NA
BRANCH  21  24
ATOM     24  N   LIG    1       -0.917   9.341   1.345  0.00  0.00    -0.600 N 
ATOM     25  C   LIG    1       -1.613   9.807   0.144  0.00  0.00    +0.300 C 
ATOM     26  C   LIG    1       -0.344  10.310   2.283  0.00  0.00    +0.300 C 
ENDBRANCH  21  24
ENDBRANCH   6  18
TORSDOF 5
