REMARK  Name = ZINCpe00000MJLYT.0
REMARK                            x       y       z     vdW  Elec       q    Type
REMARK                         _______ _______ _______ _____ _____    ______ ____
ROOT
ATOM      1  C   LIG    1       -0.637   3.279  -4.438  0.00  0.00    +0.260 C 
ATOM      2  C   LIG    1       -1.456   2.533  -5.498  0.00  0.00    +0.300 C 
ATOM      3  N   LIG    1       -1.479   3.346  -6.724  0.00  0.00    -0.600 N 
ATOM      4  C   LIG    1       -1.861   4.763  -6.608  0.00  0.00    +0.290 C 
ATOM      5  C   LIG    1       -1.022   5.400  -5.494  0.00  0.00    +0.230 C 
ATOM      6  C   LIG    1       -1.159   2.810  -7.918  0.00  0.00    +0.590 C 
ATOM      7  O   LIG    1       -0.719   1.678  -7.978  0.00  0.00    -0.530 OA
ATOM      8  O   LIG    1       -1.139   4.611  -4.307  0.00  0.00    -0.360 OA
ENDROOT
BRANCH   1  12
ATOM      9  C   LIG    1       -0.298   1.544  -1.263  0.00  0.00    +0.190 A 
ATOM     10  N   LIG    1       -1.591   1.656  -1.395  0.00  0.00    -0.290 NA
ATOM     11  N   LIG    1       -1.863   2.262  -2.496  0.00  0.00    -0.260 NA
ATOM     12  C   LIG    1       -0.755   2.565  -3.116  0.00  0.00    +0.180 A 
ATOM     13  N   LIG    1        0.270   2.122  -2.349  0.00  0.00    -0.570 N 
ATOM     14  H   LIG    1        1.218   2.200  -2.539  0.00  0.00    +0.430 HD
BRANCH   9  15
ATOM     15  C   LIG    1        0.429   0.897  -0.113  0.00  0.00    +0.150 C 
BRANCH  15  17
ATOM     16  C   LIG    1        0.722   0.886   2.369  0.00  0.00    +0.020 C 
ATOM     17  C   LIG    1       -0.017   1.543   1.201  0.00  0.00    +0.020 C 
ENDBRANCH  15  17
ENDBRANCH   9  15
ENDBRANCH   1  12
BRANCH   6  18
ATOM     18  C   LIG    1       -1.342   3.598  -9.156  0.00  0.00    -0.040 A 
ATOM     19  C   LIG    1       -0.849   3.116 -10.375  0.00  0.00    +0.140 A 
ATOM     20  C   LIG    1       -1.050   3.886 -11.506  0.00  0.00    -0.030 A 
ATOM     21  C   LIG    1       -1.721   5.101 -11.362  0.00  0.00    +0.360 A 
ATOM     22  N   LIG    1       -2.150   5.483 -10.164  0.00  0.00    -0.310 NA
ATOM     23  N   LIG    1       -1.970   4.767  -9.114  0.00  0.00    -0.160 NA
BRANCH  21  24
ATOM     24  N   LIG    1       -1.939   5.908 -12.466  0.00  0.00    -0.600 N 
ATOM     25  C   LIG    1       -2.545   7.232 -12.298  0.00  0.00    +0.310 C 
ATOM     26  C   LIG    1       -1.564   5.439 -13.802  0.00  0.00    +0.300 C 
ENDBRANCH  21  24
ENDBRANCH   6  18
TORSDOF 5
