REMARK  Name = ZINCpe00000MJLYT.1
REMARK                            x       y       z     vdW  Elec       q    Type
REMARK                         _______ _______ _______ _____ _____    ______ ____
ROOT
ATOM      1  C   LIG    1       -1.320   1.616  -1.222  0.00  0.00    +0.270 C 
ATOM      2  C   LIG    1       -0.398   1.037  -0.143  0.00  0.00    +0.290 C 
ATOM      3  N   LIG    1       -0.834   1.551   1.165  0.00  0.00    -0.600 N 
ATOM      4  C   LIG    1       -1.031   3.002   1.308  0.00  0.00    +0.260 C 
ATOM      5  C   LIG    1       -1.922   3.485   0.157  0.00  0.00    +0.220 C 
ATOM      6  C   LIG    1       -1.049   0.717   2.202  0.00  0.00    +0.590 C 
ATOM      7  O   LIG    1       -1.433   1.158   3.268  0.00  0.00    -0.530 OA
ATOM      8  O   LIG    1       -1.371   3.038  -1.084  0.00  0.00    -0.370 OA
ENDROOT
BRANCH   1  11
ATOM      9  C   LIG    1       -0.584   0.279  -4.500  0.00  0.00    +0.290 A 
ATOM     10  N   LIG    1       -1.286   0.332  -3.397  0.00  0.00    -0.530 NA
ATOM     11  C   LIG    1       -0.783   1.261  -2.585  0.00  0.00    +0.240 A 
ATOM     12  N   LIG    1        0.247   1.818  -3.165  0.00  0.00    -0.280 NA
ATOM     13  N   LIG    1        0.400   1.191  -4.412  0.00  0.00    -0.480 N 
ATOM     14  H   LIG    1        1.079   1.380  -5.079  0.00  0.00    +0.440 HD
BRANCH   9  15
ATOM     15  C   LIG    1       -0.834  -0.644  -5.665  0.00  0.00    +0.160 C 
BRANCH  15  17
ATOM     16  C   LIG    1       -0.213  -2.828  -6.707  0.00  0.00    +0.030 C 
ATOM     17  C   LIG    1        0.041  -1.892  -5.524  0.00  0.00    +0.010 C 
ENDBRANCH  15  17
ENDBRANCH   9  15
ENDBRANCH   1  11
BRANCH   6  18
ATOM     18  C   LIG    1       -0.818  -0.735   2.043  0.00  0.00    -0.040 A 
ATOM     19  C   LIG    1       -1.262  -1.629   3.025  0.00  0.00    +0.140 A 
ATOM     20  C   LIG    1       -1.023  -2.977   2.832  0.00  0.00    -0.030 A 
ATOM     21  C   LIG    1       -0.353  -3.365   1.670  0.00  0.00    +0.360 A 
ATOM     22  N   LIG    1        0.033  -2.447   0.791  0.00  0.00    -0.310 NA
ATOM     23  N   LIG    1       -0.193  -1.196   0.966  0.00  0.00    -0.160 NA
BRANCH  21  24
ATOM     24  N   LIG    1       -0.092  -4.705   1.435  0.00  0.00    -0.600 N 
ATOM     25  C   LIG    1        0.706  -5.102   0.272  0.00  0.00    +0.290 C 
ATOM     26  C   LIG    1       -0.612  -5.724   2.349  0.00  0.00    +0.290 C 
ENDBRANCH  21  24
ENDBRANCH   6  18
TORSDOF 5
