REMARK  Name = ZINCrD000000fD8e.0
REMARK                            x       y       z     vdW  Elec       q    Type
REMARK                         _______ _______ _______ _____ _____    ______ ____
ROOT
ATOM      1  C   LIG    1        2.692   4.635  -1.311  0.00  0.00    +0.510 C 
ATOM      2  N   LIG    1        2.473   5.961  -1.410  0.00  0.00    -0.690 N 
ATOM      3  H   LIG    1        2.162   6.461  -0.639  0.00  0.00    +0.410 HD
ATOM      4  O   LIG    1        3.169   4.027  -2.246  0.00  0.00    -0.510 OA
ENDROOT
BRANCH   1  15
ATOM      5  C   LIG    1        5.286   3.978   0.048  0.00  0.00    +0.110 C 
ATOM      6  C   LIG    1        4.512   2.693   0.187  0.00  0.00    +0.530 C 
ATOM      7  N   LIG    1        3.167   2.703   0.101  0.00  0.00    -0.540 N 
ATOM      8  C   LIG    1        2.353   1.567   0.131  0.00  0.00    +0.150 A 
ATOM      9  C   LIG    1        2.713   0.223   0.250  0.00  0.00    +0.010 A 
ATOM     10  C   LIG    1        1.744  -0.758   0.260  0.00  0.00    +0.040 A 
ATOM     11  C   LIG    1        0.409  -0.418   0.150  0.00  0.00    -0.010 A 
ATOM     12  C   LIG    1        0.044   0.910   0.032  0.00  0.00    +0.050 A 
ATOM     13  C   LIG    1        1.011   1.897   0.023  0.00  0.00    -0.140 A 
ATOM     14  C   LIG    1        0.894   3.400  -0.093  0.00  0.00    +0.140 C 
ATOM     15  C   LIG    1        2.344   3.907  -0.038  0.00  0.00    +0.230 C 
ATOM     16  O   LIG    1        5.100   1.648   0.376  0.00  0.00    -0.510 OA
ENDBRANCH   1  15
BRANCH   2  17
ATOM     17  C   LIG    1        2.704   6.648  -2.683  0.00  0.00    +0.110 C 
ATOM     18  C   LIG    1        3.962   7.511  -2.802  0.00  0.00    +0.020 C 
ATOM     19  C   LIG    1        2.587   8.174  -2.694  0.00  0.00    +0.040 C 
BRANCH  17  20
ATOM     20  C   LIG    1        2.244   5.895  -3.933  0.00  0.00    +0.130 C 
BRANCH  20  21
ATOM     21  C   LIG    1        2.483   6.750  -5.151  0.00  0.00    -0.090 A 
ATOM     22  C   LIG    1        1.475   7.566  -5.631  0.00  0.00    +0.050 A 
ATOM     23  C   LIG    1        1.695   8.354  -6.745  0.00  0.00    -0.020 A 
ATOM     24  C   LIG    1        2.921   8.317  -7.387  0.00  0.00    +0.100 A 
ATOM     25  C   LIG    1        3.928   7.496  -6.908  0.00  0.00    -0.010 A 
ATOM     26  F   LIG    1        3.136   9.084  -8.479  0.00  0.00    -0.140 F 
ATOM     27  C   LIG    1        3.708   6.713  -5.791  0.00  0.00    -0.050 A 
ATOM     28  C   LIG    1        4.803   5.819  -5.270  0.00  0.00    +0.100 C 
ENDBRANCH  20  21
ENDBRANCH  17  20
ENDBRANCH   2  17
TORSDOF 4
