REMARK  Name = ZINCb80000002G6I.0
REMARK                            x       y       z     vdW  Elec       q    Type
REMARK                         _______ _______ _______ _____ _____    ______ ____
ROOT
ATOM      1  C   LIG    1        1.223  -0.557  -0.013  0.00  0.00    -0.820 A 
ATOM      2  C   LIG    1        0.002  -0.004   0.002  0.00  0.00    +0.140 A 
ATOM      3  C   LIG    1       -0.017   1.368   0.010  0.00  0.00    +0.080 A 
ATOM      4  C   LIG    1        1.236   1.926   0.001  0.00  0.00    -0.280 A 
ATOM      5  S   LIG    1        2.437   0.642  -0.018  0.00  0.00    +0.360 S 
ENDROOT
BRANCH   1   6
ATOM      6  S   LIG    1        1.533  -2.292  -0.025  0.00  0.00    +2.730 S 
ATOM      7  O   LIG    1        0.378  -2.909   0.526  0.00  0.00    -0.940 OA
ATOM      8  O   LIG    1        2.839  -2.470   0.506  0.00  0.00    -0.950 OA
BRANCH   6   9
ATOM      9  N   LIG    1        1.604  -2.765  -1.611  0.00  0.00    -1.240 NA
ATOM     10  H   LIG    1        1.087  -2.292  -2.282  0.00  0.00    +0.420 HD
ATOM     11  H   LIG    1        2.163  -3.515  -1.868  0.00  0.00    +0.430 HD
ENDBRANCH   6   9
ENDBRANCH   1   6
BRANCH   4  12
ATOM     12  C   LIG    1        1.517   3.310   0.005  0.00  0.00    +0.510 C 
ATOM     13  O   LIG    1        0.607   4.114   0.018  0.00  0.00    -0.440 OA
ENDBRANCH   4  12
TORSDOF 3
