REMARK  Name = ZINCbw0000000Hqx.0
REMARK                            x       y       z     vdW  Elec       q    Type
REMARK                         _______ _______ _______ _____ _____    ______ ____
ROOT
ATOM      1  C   LIG    1       -1.229   2.407   0.021  0.00  0.00    -0.050 A 
ATOM      2  C   LIG    1       -0.021   1.732   0.012  0.00  0.00    -0.020 A 
ATOM      3  C   LIG    1        1.167   2.439   0.004  0.00  0.00    +0.070 A 
ATOM      4  C   LIG    1        1.150   3.821   0.011  0.00  0.00    +0.040 A 
ATOM      5  C   LIG    1       -0.057   4.498   0.026  0.00  0.00    +0.110 A 
ATOM      6  F   LIG    1       -0.075   5.849   0.032  0.00  0.00    -0.120 F 
ATOM      7 CL   LIG    1        0.002  -0.004   0.002  0.00  0.00    -0.040 Cl
ATOM      8  C   LIG    1       -1.248   3.790   0.034  0.00  0.00    -0.050 A 
ATOM      9 CL   LIG    1       -2.763   4.637   0.052  0.00  0.00    -0.030 Cl
ENDROOT
BRANCH   1  10
ATOM     10  C   LIG    1       -2.523   1.635   0.022  0.00  0.00    +0.250 C 
BRANCH  10  11
ATOM     11  O   LIG    1       -2.926   1.383   1.370  0.00  0.00    -0.560 OA
ATOM     12  H   LIG    1       -3.754   0.889   1.447  0.00  0.00    +0.390 HD
ENDBRANCH  10  11
ENDBRANCH   1  10
TORSDOF 2
