REMARK  Name = ZINCvU0000000Fn0.0
REMARK                            x       y       z     vdW  Elec       q    Type
REMARK                         _______ _______ _______ _____ _____    ______ ____
ROOT
ATOM      1  C   LIG    1        2.070   5.323  -1.438  0.00  0.00    +0.510 C 
ATOM      2  N   LIG    1        2.193   4.100  -0.885  0.00  0.00    -0.730 N 
ATOM      3  H   LIG    1        2.971   3.556  -1.080  0.00  0.00    +0.400 HD
ATOM      4  O   LIG    1        1.096   6.004  -1.194  0.00  0.00    -0.500 OA
ENDROOT
BRANCH   1   5
ATOM      5  C   LIG    1        3.143   5.845  -2.358  0.00  0.00    +0.060 C 
BRANCH   5  17
ATOM      6  C   LIG    1        1.564   9.519  -0.003  0.00  0.00    +0.090 C 
ATOM      7  C   LIG    1        1.575   8.567  -1.171  0.00  0.00    +0.520 C 
ATOM      8  N   LIG    1        2.747   8.172  -1.706  0.00  0.00    -0.560 N 
ATOM      9  C   LIG    1        3.949   8.642  -1.186  0.00  0.00    +0.240 C 
ATOM     10  C   LIG    1        4.999   8.815  -1.997  0.00  0.00    -0.040 C 
ATOM     11  C   LIG    1        4.869   8.474  -3.427  0.00  0.00    -0.030 A 
ATOM     12  C   LIG    1        5.821   8.902  -4.351  0.00  0.00    +0.020 A 
ATOM     13  C   LIG    1        5.665   8.589  -5.687  0.00  0.00    +0.010 A 
ATOM     14  C   LIG    1        4.571   7.853  -6.106  0.00  0.00    +0.000 A 
ATOM     15  C   LIG    1        3.626   7.419  -5.192  0.00  0.00    +0.030 A 
ATOM     16  C   LIG    1        3.773   7.721  -3.856  0.00  0.00    -0.100 A 
ATOM     17  C   LIG    1        2.761   7.245  -2.844  0.00  0.00    +0.320 C 
ATOM     18  O   LIG    1        0.530   8.156  -1.629  0.00  0.00    -0.480 OA
ENDBRANCH   5  17
ENDBRANCH   1   5
BRANCH   2  19
ATOM     19  C   LIG    1        1.150   3.592   0.010  0.00  0.00    +0.340 C 
BRANCH  19  20
ATOM     20  C   LIG    1        1.171   2.086   0.002  0.00  0.00    -0.070 A 
ATOM     21  C   LIG    1       -0.017   1.378   0.010  0.00  0.00    +0.040 A 
ATOM     22  C   LIG    1        0.002  -0.004   0.002  0.00  0.00    +0.060 A 
ATOM     23  C   LIG    1        1.209  -0.679  -0.013  0.00  0.00    -0.090 A 
ATOM     24  C   LIG    1        2.397   0.029  -0.021  0.00  0.00    +0.050 A 
ATOM     25 BR   LIG    1        1.236  -2.570  -0.024  0.00  0.00    -0.050 Br
ATOM     26  C   LIG    1        2.378   1.411  -0.013  0.00  0.00    +0.020 A 
ENDBRANCH  19  20
BRANCH  19  27
ATOM     27  C   LIG    1        1.403   4.091   1.409  0.00  0.00    -0.090 A 
ATOM     28  C   LIG    1        2.692   4.136   1.905  0.00  0.00    +0.010 A 
ATOM     29  C   LIG    1        2.925   4.597   3.187  0.00  0.00    +0.000 A 
ATOM     30  C   LIG    1        1.866   5.006   3.977  0.00  0.00    +0.000 A 
ATOM     31  C   LIG    1        0.576   4.956   3.483  0.00  0.00    +0.000 A 
ATOM     32  C   LIG    1        0.344   4.499   2.200  0.00  0.00    +0.020 A 
ENDBRANCH  19  27
ENDBRANCH   2  19
TORSDOF 5
