REMARK  Name = ZINCfA000000biDG.0
REMARK                            x       y       z     vdW  Elec       q    Type
REMARK                         _______ _______ _______ _____ _____    ______ ____
ROOT
ATOM      1  C   LIG    1        0.002  -0.004   0.002  0.00  0.00    -0.160 A 
ATOM      2  C   LIG    1        1.208  -0.682  -0.014  0.00  0.00    +0.030 A 
ATOM      3  C   LIG    1        2.401   0.019  -0.021  0.00  0.00    +0.030 A 
ATOM      4  C   LIG    1        2.394   1.399  -0.014  0.00  0.00    +0.060 A 
ATOM      5  C   LIG    1        1.182   2.087   0.002  0.00  0.00    -0.030 A 
ATOM      6  C   LIG    1       -0.017   1.376   0.010  0.00  0.00    +0.040 A 
ENDROOT
BRANCH   5   7
ATOM      7  C   LIG    1        1.168   3.570   0.010  0.00  0.00    -0.070 A 
ATOM      8  C   LIG    1       -0.044   4.258   0.019  0.00  0.00    +0.010 A 
ATOM      9  C   LIG    1       -0.051   5.638   0.032  0.00  0.00    +0.010 A 
ATOM     10  C   LIG    1        1.142   6.339   0.023  0.00  0.00    +0.030 A 
ATOM     11  C   LIG    1        2.348   5.661   0.009  0.00  0.00    +0.020 A 
ATOM     12  C   LIG    1        2.367   4.281   0.002  0.00  0.00    +0.030 A 
ENDBRANCH   5   7
BRANCH   1  13
ATOM     13  C   LIG    1       -1.293  -0.774   0.010  0.00  0.00    +0.330 C 
BRANCH  13  15
ATOM     14  C   LIG    1       -2.990  -1.767  -1.364  0.00  0.00    +0.320 C 
ATOM     15  N   LIG    1       -1.728  -1.017  -1.372  0.00  0.00    -0.510 N 
ATOM     16  H   LIG    1       -1.022  -1.550  -1.857  0.00  0.00    +0.430 HD
ATOM     17  H   LIG    1       -1.864  -0.134  -1.842  0.00  0.00    +0.430 HD
ENDBRANCH  13  15
ENDBRANCH   1  13
TORSDOF 3
