REMARK  Name = ZINCqH0000062P44.0
REMARK                            x       y       z     vdW  Elec       q    Type
REMARK                         _______ _______ _______ _____ _____    ______ ____
ROOT
ATOM      1  N   LIG    1        2.411   7.966   0.626  0.00  0.00    -0.450 N 
ATOM      2  C   LIG    1        3.645   7.192   0.807  0.00  0.00    +0.230 C 
ATOM      3  C   LIG    1        3.686   6.052  -0.217  0.00  0.00    +0.100 C 
ATOM      4  C   LIG    1        2.403   5.257  -0.093  0.00  0.00    -0.100 C 
ATOM      5  C   LIG    1        1.097   6.022  -0.085  0.00  0.00    +0.090 C 
ATOM      6  C   LIG    1        2.423   3.935  -0.000  0.00  0.00    +0.000 C 
ATOM      7  C   LIG    1        1.220   7.164   0.936  0.00  0.00    +0.180 C 
ENDROOT
BRANCH   6   8
ATOM      8  C   LIG    1        1.160   3.170  -0.065  0.00  0.00    -0.020 A 
ATOM      9  C   LIG    1        1.003   2.011   0.696  0.00  0.00    +0.010 A 
ATOM     10  C   LIG    1       -0.178   1.301   0.632  0.00  0.00    +0.040 A 
ATOM     11  C   LIG    1       -1.205   1.732  -0.188  0.00  0.00    -0.020 A 
ATOM     12  C   LIG    1       -1.059   2.885  -0.942  0.00  0.00    +0.100 A 
ATOM     13  F   LIG    1       -2.068   3.304  -1.737  0.00  0.00    -0.140 F 
ATOM     14  C   LIG    1        0.119   3.605  -0.887  0.00  0.00    -0.010 A 
ENDBRANCH   6   8
BRANCH   1  18
ATOM     15  C   LIG    1        1.922  11.028   2.311  0.00  0.00    +0.140 A 
ATOM     16  N   LIG    1        3.102  10.647   2.713  0.00  0.00    -0.270 NA
ATOM     17  N   LIG    1        3.411   9.525   2.167  0.00  0.00    -0.320 NA
ATOM     18  C   LIG    1        2.438   9.127   1.382  0.00  0.00    +0.360 A 
ATOM     19  N   LIG    1        1.460  10.077   1.446  0.00  0.00    -0.480 N 
ATOM     20  C   LIG    1        0.178  10.075   0.736  0.00  0.00    +0.340 C 
BRANCH  15  21
ATOM     21  C   LIG    1        1.204  12.289   2.721  0.00  0.00    +0.320 C 
BRANCH  21  22
ATOM     22  C   LIG    1        0.666  12.130   4.144  0.00  0.00    -0.030 C 
ATOM     23  C   LIG    1        1.837  11.996   5.120  0.00  0.00    +0.030 C 
BRANCH  22  25
ATOM     24  C   LIG    1       -0.808  13.144   5.887  0.00  0.00    +0.020 C 
ATOM     25  C   LIG    1       -0.168  13.357   4.514  0.00  0.00    +0.020 C 
ENDBRANCH  22  25
ENDBRANCH  21  22
BRANCH  21  26
ATOM     26  O   LIG    1        2.113  13.391   2.675  0.00  0.00    -0.540 OA
ATOM     27  H   LIG    1        2.877  13.295   3.260  0.00  0.00    +0.390 HD
ENDBRANCH  21  26
ENDBRANCH  15  21
ENDBRANCH   1  18
TORSDOF 6
