REMARK  Name = ZINCnE000001DLfv.0
REMARK                            x       y       z     vdW  Elec       q    Type
REMARK                         _______ _______ _______ _____ _____    ______ ____
ROOT
ATOM      1  C   LIG    1        3.569   1.826  -0.141  0.00  0.00    +0.550 C 
ATOM      2  N   LIG    1        2.441   1.097  -0.032  0.00  0.00    -0.670 N 
ATOM      3  H   LIG    1        2.493   0.152   0.183  0.00  0.00    +0.400 HD
ATOM      4  O   LIG    1        3.502   3.027  -0.319  0.00  0.00    -0.470 OA
ENDROOT
BRANCH   1  11
ATOM      5  C   LIG    1        6.061   1.922  -0.158  0.00  0.00    +0.200 A 
ATOM      6  C   LIG    1        7.294   1.293  -0.066  0.00  0.00    -0.060 A 
ATOM      7  C   LIG    1        7.361  -0.071   0.136  0.00  0.00    +0.100 A 
ATOM      8  C   LIG    1        6.202  -0.822   0.249  0.00  0.00    -0.090 A 
ATOM      9  C   LIG    1        4.968  -0.211   0.165  0.00  0.00    +0.100 A 
ATOM     10 CL   LIG    1        6.302  -2.536   0.504  0.00  0.00    -0.070 Cl
ATOM     11  C   LIG    1        4.886   1.167  -0.045  0.00  0.00    -0.160 A 
BRANCH   5  12
ATOM     12  O   LIG    1        5.994   3.263  -0.356  0.00  0.00    -0.270 OA
BRANCH  12  14
ATOM     13  C   LIG    1        6.960   5.228  -1.379  0.00  0.00    +0.070 C 
ATOM     14  C   LIG    1        7.227   3.947  -0.585  0.00  0.00    +0.140 C 
ATOM     15  C   LIG    1        7.870   4.303   0.757  0.00  0.00    +0.020 C 
ENDBRANCH  12  14
ENDBRANCH   5  12
ENDBRANCH   1  11
BRANCH   2  16
ATOM     16  C   LIG    1        1.199   1.700  -0.227  0.00  0.00    +0.170 A 
ATOM     17  C   LIG    1        0.076   1.265   0.473  0.00  0.00    -0.090 A 
ATOM     18  C   LIG    1       -1.141   1.887   0.254  0.00  0.00    +0.250 A 
ATOM     19  N   LIG    1       -1.251   2.878  -0.604  0.00  0.00    -0.460 NA
ATOM     20  CA  LIG    1       -0.206   3.329  -1.290  0.00  0.00    +0.100 A 
ATOM     21  C   LIG    1        1.050   2.753  -1.129  0.00  0.00    +0.010 A 
BRANCH  20  22
ATOM     22  C   LIG    1       -0.381   4.452  -2.239  0.00  0.00    +0.530 C 
ATOM     23  OXT LIG    1       -1.482   4.962  -2.385  0.00  0.00    -0.660 OA
ATOM     24  O   LIG    1        0.575   4.868  -2.876  0.00  0.00    -0.680 OA
ENDBRANCH  20  22
ENDBRANCH   2  16
TORSDOF 5
