REMARK  Name = ZINCrH000004scOu.0
REMARK                            x       y       z     vdW  Elec       q    Type
REMARK                         _______ _______ _______ _____ _____    ______ ____
ROOT
ATOM      1  C   LIG    1        1.440   5.852   0.654  0.00  0.00    +0.680 C 
ATOM      2  N   LIG    1        0.846   4.787   1.227  0.00  0.00    -0.720 N 
ATOM      3  H   LIG    1        1.307   4.288   1.919  0.00  0.00    +0.410 HD
ATOM      4  O   LIG    1        0.861   6.479  -0.215  0.00  0.00    -0.650 OA
ENDROOT
BRANCH   1  12
ATOM      5  C   LIG    1        5.483   7.226   1.814  0.00  0.00    +0.130 C 
ATOM      6  C   LIG    1        4.535   7.782   0.782  0.00  0.00    -0.240 A 
ATOM      7  C   LIG    1        4.766   8.849  -0.010  0.00  0.00    +0.350 A 
ATOM      8  N   LIG    1        3.677   9.053  -0.807  0.00  0.00    -0.380 N 
ATOM      9  N   LIG    1        2.724   8.069  -0.510  0.00  0.00    -0.480 N 
ATOM     10  H   LIG    1        1.852   7.970  -0.923  0.00  0.00    +0.450 HD
ATOM     11  C   LIG    1        3.254   7.272   0.476  0.00  0.00    +0.500 A 
ATOM     12  N   LIG    1        2.667   6.222   1.041  0.00  0.00    -0.650 NA
BRANCH   8  13
ATOM     13  C   LIG    1        3.530  10.117  -1.804  0.00  0.00    +0.280 C 
ATOM     14  C   LIG    1        2.324  10.987  -1.446  0.00  0.00    +0.010 C 
ATOM     15  C   LIG    1        2.170  12.098  -2.486  0.00  0.00    +0.020 C 
ATOM     16  C   LIG    1        1.959  11.477  -3.869  0.00  0.00    +0.000 C 
ATOM     17  C   LIG    1        3.166  10.607  -4.226  0.00  0.00    +0.020 C 
ATOM     18  C   LIG    1        3.319   9.496  -3.186  0.00  0.00    +0.010 C 
ENDBRANCH   8  13
ENDBRANCH   1  12
BRANCH   2  19
ATOM     19  C   LIG    1       -0.497   4.382   0.804  0.00  0.00    +0.380 C 
BRANCH  19  20
ATOM     20  C   LIG    1       -0.930   3.173   1.593  0.00  0.00    +0.130 A 
ATOM     21  C   LIG    1       -0.722   1.881   1.250  0.00  0.00    -0.320 A 
ATOM     22  C   LIG    1       -1.284   1.076   2.246  0.00  0.00    +0.300 A 
ATOM     23  N   LIG    1       -1.801   1.857   3.159  0.00  0.00    -0.270 NA
ATOM     24  N   LIG    1       -1.593   3.186   2.768  0.00  0.00    -0.350 N 
ATOM     25  C   LIG    1       -2.021   4.378   3.503  0.00  0.00    +0.370 C 
BRANCH  21  26
ATOM     26  C   LIG    1       -0.017   1.395   0.010  0.00  0.00    +0.540 C 
ATOM     27  F   LIG    1       -0.694   1.858  -1.124  0.00  0.00    -0.180 F 
ATOM     28  F   LIG    1        1.296   1.879  -0.000  0.00  0.00    -0.170 F 
ATOM     29  F   LIG    1        0.002  -0.004   0.002  0.00  0.00    -0.170 F 
ENDBRANCH  21  26
ENDBRANCH  19  20
ENDBRANCH   2  19
TORSDOF 5
