REMARK  Name = ZINCrg000000mRIW.0
REMARK                            x       y       z     vdW  Elec       q    Type
REMARK                         _______ _______ _______ _____ _____    ______ ____
ROOT
ATOM      1  S   LIG    1        1.524   6.212   5.103  0.00  0.00    +2.690 S 
ATOM      2  O   LIG    1        1.715   5.957   6.488  0.00  0.00    -0.950 OA
ATOM      3  O   LIG    1        0.592   7.164   4.609  0.00  0.00    -0.950 OA
ENDROOT
BRANCH   1  10
ATOM      4  C   LIG    1        0.946  -0.488   4.069  0.00  0.00    +0.120 C 
ATOM      5  C   LIG    1        0.195  -0.155   2.806  0.00  0.00    +0.520 C 
ATOM      6  N   LIG    1       -0.015   1.133   2.466  0.00  0.00    -0.550 N 
ATOM      7  C   LIG    1        0.418   2.237   3.206  0.00  0.00    +0.210 A 
ATOM      8  C   LIG    1        1.130   2.275   4.406  0.00  0.00    -0.040 A 
ATOM      9  C   LIG    1        1.464   3.484   4.979  0.00  0.00    +0.160 A 
ATOM     10  C   LIG    1        1.095   4.669   4.368  0.00  0.00    -0.700 A 
ATOM     11  C   LIG    1        0.389   4.639   3.180  0.00  0.00    +0.170 A 
ATOM     12  C   LIG    1        0.053   3.430   2.602  0.00  0.00    -0.150 A 
ATOM     13  C   LIG    1       -0.700   3.115   1.329  0.00  0.00    +0.110 C 
ATOM     14  C   LIG    1       -0.729   1.579   1.267  0.00  0.00    +0.230 C 
ATOM     15  C   LIG    1       -0.013   1.086   0.008  0.00  0.00    +0.060 C 
ATOM     16  O   LIG    1       -0.221  -1.045   2.095  0.00  0.00    -0.510 OA
ENDBRANCH   1  10
BRANCH   1  17
ATOM     17  N   LIG    1        3.003   6.648   4.499  0.00  0.00    -1.000 NA
ATOM     18  C   LIG    1        4.244   6.242   5.176  0.00  0.00    +0.320 C 
ATOM     19  C   LIG    1        5.168   5.587   4.138  0.00  0.00    +0.170 C 
ATOM     20  N   LIG    1        5.350   6.504   3.005  0.00  0.00    -0.520 NA
ATOM     21  C   LIG    1        4.079   6.758   2.314  0.00  0.00    +0.170 C 
ATOM     22  C   LIG    1        3.110   7.456   3.275  0.00  0.00    +0.320 C 
BRANCH  20  23
ATOM     23  C   LIG    1        6.363   5.993   2.071  0.00  0.00    +0.110 C 
ATOM     24  C   LIG    1        7.646   5.583   2.835  0.00  0.00    +0.020 C 
ATOM     25  C   LIG    1        8.763   6.093   1.889  0.00  0.00    +0.210 C 
ATOM     26  O   LIG    1        8.229   7.330   1.372  0.00  0.00    -0.370 OA
ATOM     27  C   LIG    1        6.831   7.111   1.119  0.00  0.00    +0.210 C 
ENDBRANCH  20  23
ENDBRANCH   1  17
TORSDOF 3
