REMARK  Name = ZINCvU0000000DwK.0
REMARK                            x       y       z     vdW  Elec       q    Type
REMARK                         _______ _______ _______ _____ _____    ______ ____
ROOT
ATOM      1  N   LIG    1       -3.066   2.552   0.969  0.00  0.00    -0.480 N 
ATOM      2  C   LIG    1       -2.651   1.440   1.833  0.00  0.00    +0.190 C 
ATOM      3  C   LIG    1       -1.184   1.100   1.561  0.00  0.00    +0.040 C 
ATOM      4  C   LIG    1       -1.019   0.715   0.088  0.00  0.00    -0.030 C 
ATOM      5  C   LIG    1       -1.502   1.872  -0.792  0.00  0.00    +0.260 C 
ATOM      6  C   LIG    1        0.456   0.432  -0.204  0.00  0.00    +0.030 C 
ATOM      7  C   LIG    1       -2.961   2.189  -0.450  0.00  0.00    +0.160 C 
ATOM      8  C   LIG    1       -3.443   3.358  -1.312  0.00  0.00    +0.040 C 
ENDROOT
BRANCH   1  11
ATOM      9  C   LIG    1       -5.863   4.268   2.590  0.00  0.00    +0.190 A 
ATOM     10  C   LIG    1       -4.566   3.877   2.321  0.00  0.00    -0.070 A 
ATOM     11  C   LIG    1       -4.349   2.971   1.281  0.00  0.00    +0.360 A 
ATOM     12  N   LIG    1       -5.394   2.513   0.599  0.00  0.00    -0.550 NA
ATOM     13  C   LIG    1       -6.616   2.909   0.893  0.00  0.00    +0.340 A 
ATOM     14  N   LIG    1       -6.853   3.766   1.865  0.00  0.00    -0.520 NA
BRANCH   9  16
ATOM     15  C   LIG    1       -6.950   6.427   3.142  0.00  0.00    +0.040 C 
ATOM     16  C   LIG    1       -6.150   5.247   3.699  0.00  0.00    +0.100 C 
ENDBRANCH   9  16
BRANCH  13  17
ATOM     17  C   LIG    1       -7.774   2.366   0.096  0.00  0.00    +0.120 C 
ATOM     18  C   LIG    1       -8.296   1.090   0.759  0.00  0.00    +0.050 C 
ENDBRANCH  13  17
ENDBRANCH   1  11
BRANCH   5  19
ATOM     19  N   LIG    1       -0.674   3.054  -0.544  0.00  0.00    -0.710 N 
ATOM     20  H   LIG    1       -0.865   3.630   0.213  0.00  0.00    +0.400 HD
ATOM     21  C   LIG    1        0.353   3.342  -1.368  0.00  0.00    +0.520 C 
ATOM     22  O   LIG    1        0.563   2.648  -2.340  0.00  0.00    -0.540 OA
BRANCH  21  23
ATOM     23  C   LIG    1        1.240   4.526  -1.081  0.00  0.00    -0.020 C 
BRANCH  23  24
ATOM     24  C   LIG    1        2.111   4.226   0.141  0.00  0.00    +0.030 C 
ATOM     25  C   LIG    1        3.107   3.117  -0.202  0.00  0.00    +0.010 C 
ENDBRANCH  23  24
BRANCH  23  26
ATOM     26  C   LIG    1        2.136   4.797  -2.291  0.00  0.00    +0.050 C 
BRANCH  26  27
ATOM     27  C   LIG    1        2.971   6.053  -2.036  0.00  0.00    -0.020 C 
ATOM     28  C   LIG    1        2.044   7.262  -1.895  0.00  0.00    +0.000 C 
ATOM     29  C   LIG    1        2.880   8.518  -1.641  0.00  0.00    +0.000 C 
ATOM     30  C   LIG    1        3.835   8.743  -2.814  0.00  0.00    +0.000 C 
ATOM     31  C   LIG    1        4.762   7.534  -2.955  0.00  0.00    +0.000 C 
ATOM     32  C   LIG    1        3.927   6.277  -3.210  0.00  0.00    +0.010 C 
ENDBRANCH  26  27
ENDBRANCH  23  26
ENDBRANCH  21  23
ENDBRANCH   5  19
TORSDOF 8
