REMARK  Name = ZINCrD00000gYALz.0
REMARK                            x       y       z     vdW  Elec       q    Type
REMARK                         _______ _______ _______ _____ _____    ______ ____
ROOT
ATOM      1  N   LIG    1        1.838   0.473  -0.845  0.00  0.00    -0.690 N 
ATOM      2  H   LIG    1        1.563   1.366  -0.585  0.00  0.00    +0.410 HD
ATOM      3  C   LIG    1        0.910  -0.471  -1.099  0.00  0.00    +0.570 C 
ATOM      4  O   LIG    1        1.255  -1.589  -1.426  0.00  0.00    -0.520 OA
ENDROOT
BRANCH   3   5
ATOM      5  C   LIG    1       -0.532  -0.143  -0.986  0.00  0.00    +0.150 A 
ATOM      6  N   LIG    1       -0.889   1.077  -0.630  0.00  0.00    -0.440 NA
ATOM      7  C   LIG    1       -2.171   1.412  -0.517  0.00  0.00    +0.170 A 
ATOM      8  C   LIG    1       -2.573   2.710  -0.138  0.00  0.00    -0.120 A 
ATOM      9  C   LIG    1       -3.904   2.982  -0.042  0.00  0.00    +0.300 A 
ATOM     10  N   LIG    1       -4.828   2.065  -0.293  0.00  0.00    -0.470 NA
ATOM     11  C   LIG    1       -4.530   0.838  -0.651  0.00  0.00    +0.360 A 
ATOM     12 BR   LIG    1       -1.287   4.046   0.231  0.00  0.00    -0.010 Br
ATOM     13  C   LIG    1       -3.186   0.453  -0.780  0.00  0.00    -0.150 A 
ATOM     14  C   LIG    1       -2.816  -0.849  -1.160  0.00  0.00    +0.130 A 
ATOM     15  C   LIG    1       -1.484  -1.134  -1.265  0.00  0.00    +0.030 A 
ENDBRANCH   3   5
BRANCH   1  21
ATOM     16  C   LIG    1        2.893   2.107  -3.878  0.00  0.00    +0.550 C 
ATOM     17  N   LIG    1        3.595   1.734  -2.790  0.00  0.00    -0.610 N 
ATOM     18  C   LIG    1        4.264   2.737  -1.950  0.00  0.00    +0.260 C 
ATOM     19  C   LIG    1        3.815   2.544  -0.498  0.00  0.00    +0.020 C 
ATOM     20  C   LIG    1        4.075   1.096  -0.076  0.00  0.00    -0.010 C 
ATOM     21  C   LIG    1        3.262   0.150  -0.963  0.00  0.00    +0.240 C 
ATOM     22  C   LIG    1        3.660   0.908   1.384  0.00  0.00    +0.030 C 
ATOM     23  C   LIG    1        3.705   0.316  -2.420  0.00  0.00    +0.280 C 
ATOM     24  O   LIG    1        2.429   1.264  -4.621  0.00  0.00    -0.540 OA
BRANCH  16  27
ATOM     25  C   LIG    1        0.766   2.947  -5.583  0.00  0.00    +0.100 C 
ATOM     26  C   LIG    1        1.830   3.905  -5.113  0.00  0.00    -0.020 C 
ATOM     27  C   LIG    1        2.687   3.535  -4.165  0.00  0.00    -0.120 C 
ATOM     28  C   LIG    1        1.924   5.282  -5.718  0.00  0.00    +0.090 C 
ENDBRANCH  16  27
ENDBRANCH   1  21
TORSDOF 3
