REMARK  Name = ZINCpk00000j9j9E.0
REMARK                            x       y       z     vdW  Elec       q    Type
REMARK                         _______ _______ _______ _____ _____    ______ ____
ROOT
ATOM      1  C   LIG    1       -2.974   3.798  -0.678  0.00  0.00    +0.170 C 
ATOM      2  C   LIG    1       -3.785   2.669   0.012  0.00  0.00    +0.080 C 
ATOM      3  C   LIG    1       -2.877   1.434  -0.164  0.00  0.00    +0.250 C 
ATOM      4  N   LIG    1       -1.508   1.926  -0.381  0.00  0.00    -0.620 N 
ATOM      5  C   LIG    1       -0.422   1.158  -0.596  0.00  0.00    +0.610 C 
ATOM      6  O   LIG    1        0.665   1.676  -0.768  0.00  0.00    -0.510 OA
ATOM      7  C   LIG    1       -1.520   3.399  -0.316  0.00  0.00    +0.270 C 
ENDROOT
BRANCH   5   8
ATOM      8  C   LIG    1       -0.552  -0.303  -0.630  0.00  0.00    -0.030 A 
ATOM      9  C   LIG    1        0.466  -1.207  -0.851  0.00  0.00    +0.040 A 
ATOM     10  C   LIG    1       -0.099  -2.485  -0.794  0.00  0.00    +0.010 A 
ATOM     11  C   LIG    1       -1.426  -2.343  -0.555  0.00  0.00    +0.190 A 
ATOM     12  F   LIG    1        0.559  -3.654  -0.956  0.00  0.00    -0.120 F 
ATOM     13  N   LIG    1       -1.713  -1.020  -0.453  0.00  0.00    -0.530 N 
ATOM     14  H   LIG    1       -2.591  -0.643  -0.284  0.00  0.00    +0.420 HD
ENDBRANCH   5   8
BRANCH   1  15
ATOM     15  O   LIG    1       -3.304   5.075  -0.128  0.00  0.00    -0.290 OA
BRANCH  15  18
ATOM     16  C   LIG    1       -2.244   7.158  -2.916  0.00  0.00    +0.150 A 
ATOM     17  C   LIG    1       -2.450   6.031  -2.148  0.00  0.00    -0.100 A 
ATOM     18  C   LIG    1       -3.083   6.160  -0.913  0.00  0.00    +0.170 A 
ATOM     19  C   LIG    1       -3.487   7.429  -0.508  0.00  0.00    -0.040 A 
ATOM     20  C   LIG    1       -3.239   8.508  -1.332  0.00  0.00    +0.310 A 
ATOM     21  N   LIG    1       -2.637   8.345  -2.495  0.00  0.00    -0.490 NA
BRANCH  16  22
ATOM     22  C   LIG    1       -1.561   7.031  -4.254  0.00  0.00    +0.350 C 
BRANCH  22  25
ATOM     23  C   LIG    1       -3.230   6.683  -7.681  0.00  0.00    +0.100 C 
ATOM     24  C   LIG    1       -2.191   6.797  -6.596  0.00  0.00    +0.510 C 
ATOM     25  N   LIG    1       -2.571   6.920  -5.309  0.00  0.00    -0.730 N 
ATOM     26  H   LIG    1       -3.514   6.936  -5.081  0.00  0.00    +0.400 HD
ATOM     27  O   LIG    1       -1.012   6.777  -6.880  0.00  0.00    -0.540 OA
ENDBRANCH  22  25
ENDBRANCH  16  22
ENDBRANCH  15  18
ENDBRANCH   1  15
TORSDOF 5
