REMARK  Name = ZINCqH0000008ACv.0
REMARK                            x       y       z     vdW  Elec       q    Type
REMARK                         _______ _______ _______ _____ _____    ______ ____
ROOT
ATOM      1  C   LIG    1        2.080   5.105   3.100  0.00  0.00    +0.110 A 
ATOM      2  C   LIG    1        3.098   5.847   2.660  0.00  0.00    -0.130 A 
ATOM      3  S   LIG    1        4.363   5.822   3.886  0.00  0.00    +0.250 S 
ATOM      4  C   LIG    1        3.403   4.807   4.871  0.00  0.00    +0.240 A 
ATOM      5  N   LIG    1        2.273   4.558   4.286  0.00  0.00    -0.480 NA
ENDROOT
BRANCH   4   6
ATOM      6  N   LIG    1        3.779   4.319   6.115  0.00  0.00    -0.620 N 
ATOM      7  H   LIG    1        3.176   3.745   6.614  0.00  0.00    +0.420 HD
ATOM      8  C   LIG    1        4.982   4.642   6.630  0.00  0.00    +0.560 C 
ATOM      9  O   LIG    1        5.738   5.361   6.005  0.00  0.00    -0.490 OA
BRANCH   8  10
ATOM     10  C   LIG    1        5.382   4.123   7.954  0.00  0.00    -0.180 A 
ATOM     11  C   LIG    1        4.517   3.298   8.675  0.00  0.00    +0.090 A 
ATOM     12  C   LIG    1        4.897   2.817   9.910  0.00  0.00    +0.000 A 
ATOM     13  C   LIG    1        6.132   3.150  10.438  0.00  0.00    +0.090 A 
ATOM     14  C   LIG    1        6.996   3.967   9.732  0.00  0.00    -0.010 A 
ATOM     15  C   LIG    1        6.632   4.452   8.489  0.00  0.00    +0.170 A 
ATOM     16  F   LIG    1        7.478   5.246   7.797  0.00  0.00    -0.110 F 
ENDBRANCH   8  10
ENDBRANCH   4   6
BRANCH   1  17
ATOM     17  C   LIG    1        0.816   4.902   2.306  0.00  0.00    +0.150 C 
BRANCH  17  25
ATOM     18  C   LIG    1       -0.040   0.975  -2.425  0.00  0.00    +0.000 C 
ATOM     19  C   LIG    1       -0.717   1.570  -1.189  0.00  0.00    -0.020 C 
ATOM     20  C   LIG    1       -0.741   3.088  -1.333  0.00  0.00    +0.020 C 
ATOM     21  C   LIG    1       -1.897   3.648  -0.541  0.00  0.00    +0.020 C 
ATOM     22  C   LIG    1       -1.436   4.012   0.882  0.00  0.00    +0.250 C 
ATOM     23  N   LIG    1       -0.516   3.004   1.443  0.00  0.00    -0.610 N 
ATOM     24  C   LIG    1       -0.730   1.582   1.288  0.00  0.00    +0.270 C 
ATOM     25  C   LIG    1        0.566   3.426   2.127  0.00  0.00    +0.510 C 
ATOM     26  O   LIG    1        1.339   2.619   2.599  0.00  0.00    -0.520 OA
ATOM     27  C   LIG    1       -0.013   1.086   0.008  0.00  0.00    +0.010 C 
ENDBRANCH  17  25
ENDBRANCH   1  17
TORSDOF 4
