REMARK  Name = ZINCvU00000007x8.0
REMARK                            x       y       z     vdW  Elec       q    Type
REMARK                         _______ _______ _______ _____ _____    ______ ____
ROOT
ATOM      1  C   LIG    1       -0.044   3.844   0.022  0.00  0.00    -0.090 A 
ATOM      2  C   LIG    1        1.160   3.168   0.008  0.00  0.00    +0.070 A 
ATOM      3  C   LIG    1        1.177   1.783   0.000  0.00  0.00    +0.080 A 
ATOM      4  C   LIG    1       -0.013   1.076   0.008  0.00  0.00    +0.040 A 
ATOM      5  C   LIG    1       -1.220   1.750   0.017  0.00  0.00    -0.170 A 
ATOM      6  C   LIG    1       -2.510   0.969   0.026  0.00  0.00    +0.300 C 
ATOM      7  O   LIG    1       -3.589   1.834  -0.341  0.00  0.00    -0.370 OA
ATOM      8  C   LIG    1       -3.587   3.070   0.384  0.00  0.00    +0.390 C 
ATOM      9  O   LIG    1       -2.419   3.811   0.034  0.00  0.00    -0.320 OA
ATOM     10  F   LIG    1        2.355   1.122  -0.014  0.00  0.00    -0.130 F 
ATOM     11  C   LIG    1       -1.238   3.135   0.028  0.00  0.00    +0.140 A 
ENDROOT
BRANCH   8  12
ATOM     12  C   LIG    1       -4.819   3.863   0.032  0.00  0.00    -0.100 A 
ATOM     13  C   LIG    1       -4.694   5.121  -0.529  0.00  0.00    +0.050 A 
ATOM     14  C   LIG    1       -5.824   5.847  -0.856  0.00  0.00    +0.010 A 
ATOM     15  C   LIG    1       -7.079   5.320  -0.612  0.00  0.00    +0.020 A 
ATOM     16  C   LIG    1       -7.204   4.065  -0.046  0.00  0.00    +0.010 A 
ATOM     17  C   LIG    1       -6.074   3.337   0.276  0.00  0.00    +0.040 A 
ENDBRANCH   8  12
BRANCH   1  18
ATOM     18  C   LIG    1       -0.062   5.351   0.031  0.00  0.00    +0.300 C 
BRANCH  18  19
ATOM     19  O   LIG    1        1.301   5.851   0.023  0.00  0.00    -0.330 OA
BRANCH  19  21
ATOM     20  O   LIG    1        0.490   7.916   0.042  0.00  0.00    -0.490 OA
ATOM     21  C   LIG    1        1.462   7.188   0.029  0.00  0.00    +0.530 C 
BRANCH  21  22
ATOM     22  C   LIG    1        2.824   7.771   0.021  0.00  0.00    +0.120 A 
ATOM     23  N   LIG    1        3.869   6.966   0.008  0.00  0.00    -0.410 NA
ATOM     24  C   LIG    1        5.112   7.445  -0.000  0.00  0.00    +0.120 A 
ATOM     25  C   LIG    1        6.223   6.580  -0.014  0.00  0.00    +0.060 A 
ATOM     26  C   LIG    1        7.481   7.098  -0.021  0.00  0.00    +0.040 A 
ATOM     27  C   LIG    1        7.692   8.476  -0.015  0.00  0.00    +0.030 A 
ATOM     28  C   LIG    1        6.644   9.344  -0.002  0.00  0.00    +0.040 A 
ATOM     29  C   LIG    1        5.331   8.848   0.006  0.00  0.00    -0.080 A 
ATOM     30  C   LIG    1        4.222   9.715   0.020  0.00  0.00    +0.090 A 
ATOM     31  C   LIG    1        2.973   9.166   0.022  0.00  0.00    +0.030 A 
ENDBRANCH  21  22
ENDBRANCH  19  21
ENDBRANCH  18  19
ENDBRANCH   1  18
TORSDOF 5
