REMARK  Name = ZINCqH00000508a2.0
REMARK                            x       y       z     vdW  Elec       q    Type
REMARK                         _______ _______ _______ _____ _____    ______ ____
ROOT
ATOM      1  C   LIG    1       -1.700   8.112   0.806  0.00  0.00    +0.150 C 
ATOM      2  C   LIG    1       -0.599   7.283   1.416  0.00  0.00    +0.190 A 
ATOM      3  C   LIG    1       -0.680   5.900   1.351  0.00  0.00    +0.010 A 
ATOM      4  C   LIG    1        0.336   5.130   1.915  0.00  0.00    -0.000 A 
ATOM      5  C   LIG    1        1.409   5.806   2.536  0.00  0.00    -0.180 A 
ATOM      6  C   LIG    1        2.580   5.383   3.200  0.00  0.00    +0.290 A 
ATOM      7  N   LIG    1        3.239   6.436   3.591  0.00  0.00    -0.230 NA
ATOM      8  N   LIG    1        2.555   7.594   3.203  0.00  0.00    -0.380 N 
ATOM      9  C   LIG    1        1.411   7.216   2.550  0.00  0.00    +0.310 A 
ATOM     10  N   LIG    1        0.413   7.889   1.996  0.00  0.00    -0.480 NA
ENDROOT
BRANCH   8  11
ATOM     11  C   LIG    1        2.982   8.971   3.461  0.00  0.00    +0.270 C 
ATOM     12  C   LIG    1        4.337   9.219   2.796  0.00  0.00    +0.050 C 
ATOM     13  C   LIG    1        3.107   9.191   4.970  0.00  0.00    +0.050 C 
ENDBRANCH   8  11
BRANCH   4  14
ATOM     14  C   LIG    1        0.288   3.654   1.869  0.00  0.00    +0.510 C 
ATOM     15  O   LIG    1        1.184   3.001   2.366  0.00  0.00    -0.490 OA
BRANCH  14  16
ATOM     16  O   LIG    1       -0.749   3.031   1.275  0.00  0.00    -0.330 OA
BRANCH  16  17
ATOM     17  C   LIG    1       -0.729   1.579   1.267  0.00  0.00    +0.170 C 
ATOM     18  C   LIG    1       -0.013   1.086   0.008  0.00  0.00    +0.080 C 
BRANCH  17  19
ATOM     19  C   LIG    1       -2.143   1.058   1.278  0.00  0.00    +0.400 C 
ATOM     20  O   LIG    1       -3.056   1.775   0.931  0.00  0.00    -0.420 OA
BRANCH  19  21
ATOM     21  C   LIG    1       -2.414  -0.323   1.709  0.00  0.00    -0.170 A 
ATOM     22  C   LIG    1       -1.363  -1.156   2.104  0.00  0.00    +0.050 A 
ATOM     23  C   LIG    1       -1.626  -2.446   2.511  0.00  0.00    +0.000 A 
ATOM     24  C   LIG    1       -2.926  -2.922   2.520  0.00  0.00    +0.050 A 
ATOM     25  C   LIG    1       -3.971  -2.106   2.125  0.00  0.00    +0.000 A 
ATOM     26  C   LIG    1       -3.725  -0.811   1.720  0.00  0.00    +0.080 A 
ENDBRANCH  19  21
ENDBRANCH  17  19
ENDBRANCH  16  17
ENDBRANCH  14  16
ENDBRANCH   4  14
TORSDOF 6
