REMARK  Name = ZINCqH0000036xGx.0
REMARK                            x       y       z     vdW  Elec       q    Type
REMARK                         _______ _______ _______ _____ _____    ______ ____
ROOT
ATOM      1  C   LIG    1        3.731   6.203   0.316  0.00  0.00    +0.150 C 
ENDROOT
BRANCH   1   2
ATOM      2  C   LIG    1        3.709   7.705   0.437  0.00  0.00    +0.450 A 
ATOM      3  N   LIG    1        2.556   8.315   0.443  0.00  0.00    -0.580 NA
ATOM      4  C   LIG    1        2.472   9.651   0.553  0.00  0.00    +0.540 A 
ATOM      5  C   LIG    1        3.721  10.431   0.657  0.00  0.00    -0.210 A 
ATOM      6  C   LIG    1        4.911   9.735   0.641  0.00  0.00    +0.050 A 
ATOM      7  S   LIG    1        6.254  10.854   0.778  0.00  0.00    +0.200 S 
ATOM      8  C   LIG    1        5.179  12.249   0.853  0.00  0.00    -0.220 A 
ATOM      9  C   LIG    1        5.287  13.766   0.979  0.00  0.00    +0.130 C 
ATOM     10  C   LIG    1        3.883  14.227   1.418  0.00  0.00    +0.050 C 
ATOM     11  C   LIG    1        2.996  13.103   0.846  0.00  0.00    +0.110 C 
ATOM     12  C   LIG    1        3.908  11.878   0.779  0.00  0.00    -0.050 A 
ATOM     13  O   LIG    1        1.386  10.209   0.561  0.00  0.00    -0.480 OA
ATOM     14  N   LIG    1        4.876   8.360   0.529  0.00  0.00    -0.590 N 
ATOM     15  H   LIG    1        5.708   7.860   0.516  0.00  0.00    +0.430 HD
ENDBRANCH   1   2
BRANCH   1  16
ATOM     16  C   LIG    1        2.297   5.678   0.225  0.00  0.00    +0.100 C 
BRANCH  16  19
ATOM     17  N   LIG    1        1.162   3.490   0.009  0.00  0.00    -0.670 N 
ATOM     18  H   LIG    1        0.320   3.967  -0.058  0.00  0.00    +0.420 HD
ATOM     19  C   LIG    1        2.319   4.176   0.104  0.00  0.00    +0.510 C 
ATOM     20  O   LIG    1        3.377   3.584   0.091  0.00  0.00    -0.520 OA
BRANCH  17  25
ATOM     21  C   LIG    1        2.141   0.017   0.741  0.00  0.00    -0.070 A 
ATOM     22  C   LIG    1        1.195  -0.681  -0.001  0.00  0.00    -0.020 A 
ATOM     23  C   LIG    1        0.246   0.005  -0.734  0.00  0.00    +0.050 A 
ATOM     24  C   LIG    1        0.234   1.387  -0.732  0.00  0.00    -0.020 A 
ATOM     25  C   LIG    1        1.176   2.091   0.008  0.00  0.00    +0.160 A 
ATOM     26  C   LIG    1        2.131   1.406   0.745  0.00  0.00    +0.040 A 
BRANCH  21  28
ATOM     27  C   LIG    1        2.944  -2.595   1.345  0.00  0.00    +0.140 C 
ATOM     28  S   LIG    1        3.351  -0.859   1.676  0.00  0.00    -0.110 S 
ENDBRANCH  21  28
ENDBRANCH  17  25
ENDBRANCH  16  19
ENDBRANCH   1  16
TORSDOF 5
