REMARK  Name = ZINCrH000004r7B5.0
REMARK                            x       y       z     vdW  Elec       q    Type
REMARK                         _______ _______ _______ _____ _____    ______ ____
ROOT
ATOM      1  N   LIG    1       -2.653   2.909   4.652  0.00  0.00    -0.410 N 
ATOM      2  N   LIG    1       -1.971   2.442   3.523  0.00  0.00    -0.200 NA
ATOM      3  C   LIG    1       -0.909   1.706   3.638  0.00  0.00    +0.080 C 
ATOM      4  C   LIG    1       -0.368   1.335   4.994  0.00  0.00    +0.110 C 
ATOM      5  C   LIG    1       -0.609   2.485   5.974  0.00  0.00    +0.090 C 
ATOM      6  C   LIG    1       -2.037   2.953   5.849  0.00  0.00    +0.500 C 
ATOM      7  O   LIG    1       -2.629   3.367   6.823  0.00  0.00    -0.490 OA
ENDROOT
BRANCH   1  13
ATOM      8  C   LIG    1       -6.043   6.410   5.301  0.00  0.00    +0.100 C 
ATOM      9  C   LIG    1       -5.652   5.029   4.843  0.00  0.00    -0.080 A 
ATOM     10  C   LIG    1       -6.605   4.183   4.307  0.00  0.00    +0.020 A 
ATOM     11  C   LIG    1       -6.250   2.915   3.885  0.00  0.00    +0.020 A 
ATOM     12  C   LIG    1       -4.940   2.491   3.994  0.00  0.00    -0.080 A 
ATOM     13  C   LIG    1       -3.981   3.337   4.536  0.00  0.00    +0.150 A 
ATOM     14  C   LIG    1       -4.552   1.111   3.528  0.00  0.00    +0.090 C 
ATOM     15  C   LIG    1       -4.341   4.610   4.958  0.00  0.00    +0.030 A 
ENDBRANCH   1  13
BRANCH   3  16
ATOM     16  C   LIG    1       -0.222   1.232   2.431  0.00  0.00    +0.580 C 
ATOM     17  N   LIG    1       -0.698   1.558   1.213  0.00  0.00    -0.710 N 
ATOM     18  H   LIG    1       -1.495   2.106   1.135  0.00  0.00    +0.410 HD
ATOM     19  O   LIG    1        0.778   0.546   2.530  0.00  0.00    -0.520 OA
BRANCH  17  20
ATOM     20  C   LIG    1       -0.013   1.086   0.008  0.00  0.00    +0.280 C 
BRANCH  20  21
ATOM     21  C   LIG    1       -0.753   1.593  -1.232  0.00  0.00    +0.030 C 
ATOM     22  C   LIG    1       -2.147   0.964  -1.286  0.00  0.00    +0.030 C 
BRANCH  21  23
ATOM     23  C   LIG    1        0.019   1.211  -2.468  0.00  0.00    -0.080 A 
ATOM     24  C   LIG    1        0.269  -0.120  -2.744  0.00  0.00    +0.010 A 
ATOM     25  C   LIG    1        0.974  -0.470  -3.881  0.00  0.00    +0.000 A 
ATOM     26  C   LIG    1        1.436   0.511  -4.737  0.00  0.00    +0.000 A 
ATOM     27  C   LIG    1        1.190   1.843  -4.459  0.00  0.00    +0.000 A 
ATOM     28  C   LIG    1        0.482   2.193  -3.324  0.00  0.00    +0.010 A 
ENDBRANCH  21  23
ENDBRANCH  20  21
ENDBRANCH  17  20
ENDBRANCH   3  16
TORSDOF 5
