REMARK  Name = ZINCah0000002vUt.0
REMARK                            x       y       z     vdW  Elec       q    Type
REMARK                         _______ _______ _______ _____ _____    ______ ____
ROOT
ATOM      1  C   LIG    1        1.111   3.180   0.008  0.00  0.00    +0.160 A 
ATOM      2  C   LIG    1        1.176   1.793   0.001  0.00  0.00    +0.000 A 
ATOM      3  C   LIG    1       -0.013   1.076   0.008  0.00  0.00    -0.020 A 
ATOM      4  C   LIG    1       -1.213   1.756   0.017  0.00  0.00    +0.230 A 
ATOM      5  N   LIG    1       -1.246   3.076   0.029  0.00  0.00    -0.500 NA
ATOM      6  C   LIG    1       -0.140   3.799   0.023  0.00  0.00    +0.260 A 
ENDROOT
BRANCH   1   8
ATOM      7  C   LIG    1        3.590   3.286  -0.014  0.00  0.00    +0.270 C 
ATOM      8  N   LIG    1        2.282   3.947   0.001  0.00  0.00    -0.740 N 
ATOM      9  H   LIG    1        2.228   4.915   0.007  0.00  0.00    +0.410 HD
ENDBRANCH   1   8
BRANCH   6  10
ATOM     10  O   LIG    1       -0.221   5.154   0.030  0.00  0.00    -0.320 OA
ATOM     11  C   LIG    1       -1.531   5.726   0.045  0.00  0.00    +0.250 C 
ENDBRANCH   6  10
TORSDOF 2
