REMARK  Name = ZINCvU00000009o8.0
REMARK                            x       y       z     vdW  Elec       q    Type
REMARK                         _______ _______ _______ _____ _____    ______ ____
ROOT
ATOM      1  N   LIG    1       -3.276  11.434  -2.518  0.00  0.00    -0.610 N 
ATOM      2  C   LIG    1       -2.865  10.886  -1.357  0.00  0.00    +0.520 C 
ATOM      3  O   LIG    1       -3.215  11.369  -0.301  0.00  0.00    -0.520 OA
ENDROOT
BRANCH   1   4
ATOM      4  C   LIG    1       -2.854  10.851  -3.794  0.00  0.00    +0.280 C 
BRANCH   4   6
ATOM      5  C   LIG    1       -3.426   9.183  -5.563  0.00  0.00    +0.030 C 
ATOM      6  C   LIG    1       -3.867   9.792  -4.231  0.00  0.00    +0.000 C 
ENDBRANCH   4   6
ENDBRANCH   1   4
BRANCH   2   7
ATOM      7  C   LIG    1       -1.970   9.674  -1.372  0.00  0.00    +0.080 C 
BRANCH   7   8
ATOM      8  C   LIG    1       -1.653   9.256   0.065  0.00  0.00    +0.220 C 
BRANCH   8   9
ATOM      9  C   LIG    1       -0.759   8.043   0.050  0.00  0.00    +0.200 A 
ATOM     10  N   LIG    1        0.545   8.065   0.038  0.00  0.00    -0.470 NA
ATOM     11  C   LIG    1        1.000   6.803   0.033  0.00  0.00    +0.180 A 
ATOM     12  C   LIG    1       -0.079   5.979   0.034  0.00  0.00    -0.010 A 
ATOM     13  O   LIG    1       -1.175   6.770   0.048  0.00  0.00    -0.190 OA
BRANCH  12  14
ATOM     14  C   LIG    1       -0.059   4.501   0.026  0.00  0.00    -0.010 A 
ATOM     15  C   LIG    1        1.157   3.817   0.011  0.00  0.00    +0.060 A 
ATOM     16  C   LIG    1        1.170   2.438   0.004  0.00  0.00    +0.040 A 
ATOM     17  C   LIG    1       -0.021   1.732   0.012  0.00  0.00    -0.030 A 
ATOM     18  C   LIG    1       -1.232   2.405   0.021  0.00  0.00    +0.030 A 
ATOM     19 CL   LIG    1        0.002  -0.004   0.002  0.00  0.00    -0.060 Cl
ATOM     20  C   LIG    1       -1.256   3.784   0.034  0.00  0.00    +0.050 A 
ENDBRANCH  12  14
ENDBRANCH   8   9
ENDBRANCH   7   8
ENDBRANCH   2   7
BRANCH   1  21
ATOM     21  C   LIG    1       -4.146  12.613  -2.504  0.00  0.00    +0.460 C 
BRANCH  21  22
ATOM     22  C   LIG    1       -3.301  13.861  -2.506  0.00  0.00    +0.150 A 
ATOM     23  N   LIG    1       -2.875  14.500  -3.559  0.00  0.00    -0.260 NA
ATOM     24  N   LIG    1       -2.184  15.522  -3.193  0.00  0.00    -0.260 NA
ATOM     25  C   LIG    1       -2.138  15.566  -1.880  0.00  0.00    +0.250 A 
ATOM     26  O   LIG    1       -2.845  14.512  -1.421  0.00  0.00    -0.200 OA
BRANCH  25  27
ATOM     27  C   LIG    1       -1.444  16.573  -1.064  0.00  0.00    +0.030 A 
ATOM     28  C   LIG    1       -0.731  17.634  -1.538  0.00  0.00    +0.060 A 
ATOM     29  C   LIG    1       -0.246  18.330  -0.415  0.00  0.00    -0.050 A 
ATOM     30  C   LIG    1       -0.680  17.669   0.678  0.00  0.00    +0.230 A 
ATOM     31  O   LIG    1       -1.407  16.612   0.283  0.00  0.00    -0.160 OA
ENDBRANCH  25  27
ENDBRANCH  21  22
ENDBRANCH   1  21
TORSDOF 9
