REMARK  Name = ZINCbw0000000HbE.0
REMARK                            x       y       z     vdW  Elec       q    Type
REMARK                         _______ _______ _______ _____ _____    ______ ____
ROOT
ATOM      1  C   LIG    1       -2.164   1.050   1.278  0.00  0.00    +0.030 C 
ENDROOT
BRANCH   1   3
ATOM      2  C   LIG    1       -0.013   1.086   0.008  0.00  0.00    +0.060 C 
ATOM      3  C   LIG    1       -0.729   1.579   1.267  0.00  0.00    +0.040 C 
ATOM      4  C   LIG    1        0.011   1.072   2.506  0.00  0.00    +0.060 C 
BRANCH   3   5
ATOM      5  C   LIG    1       -0.749   3.051   1.275  0.00  0.00    +0.210 C 
ATOM      6  N   LIG    1       -0.764   4.187   1.281  0.00  0.00    -0.430 NA
ENDBRANCH   3   5
ENDBRANCH   1   3
BRANCH   1   7
ATOM      7  C   LIG    1       -2.143  -0.480   1.269  0.00  0.00    +0.040 C 
BRANCH   7   8
ATOM      8  C   LIG    1       -3.579  -1.010   1.280  0.00  0.00    +0.020 C 
BRANCH   8   9
ATOM      9  C   LIG    1       -3.558  -2.540   1.272  0.00  0.00    +0.190 C 
BRANCH   9  10
ATOM     10  C   LIG    1       -4.939  -3.049   1.282  0.00  0.00    +0.200 C 
ATOM     11  N   LIG    1       -6.005  -3.442   1.290  0.00  0.00    -0.440 NA
ENDBRANCH   9  10
ENDBRANCH   8   9
ENDBRANCH   7   8
ENDBRANCH   1   7
TORSDOF 6
