REMARK  Name = ZINCvU0000000AFa.0
REMARK                            x       y       z     vdW  Elec       q    Type
REMARK                         _______ _______ _______ _____ _____    ______ ____
ROOT
ATOM      1  O   LIG    1       -7.611   1.172   0.083  0.00  0.00    -0.490 OA
ATOM      2  C   LIG    1       -6.810   0.260   0.070  0.00  0.00    +0.580 C 
ATOM      3  N   LIG    1       -7.242  -1.016   0.067  0.00  0.00    -0.460 N 
ATOM      4  N   LIG    1       -6.428  -2.147   0.053  0.00  0.00    -0.220 NA
ATOM      5  C   LIG    1       -7.078  -3.263   0.054  0.00  0.00    +0.190 C 
ATOM      6  C   LIG    1       -8.563  -2.982   0.071  0.00  0.00    +0.100 C 
ATOM      7  C   LIG    1       -8.650  -1.443   0.085  0.00  0.00    +0.310 C 
ENDROOT
BRANCH   5   8
ATOM      8  C   LIG    1       -6.469  -4.597   0.041  0.00  0.00    +0.020 A 
ATOM      9  C   LIG    1       -5.131  -4.867   0.026  0.00  0.00    +0.030 A 
ATOM     10  C   LIG    1       -5.002  -6.268   0.018  0.00  0.00    -0.060 A 
ATOM     11  C   LIG    1       -6.249  -6.782   0.028  0.00  0.00    +0.200 A 
ATOM     12  O   LIG    1       -7.132  -5.770   0.047  0.00  0.00    -0.160 OA
ENDBRANCH   5   8
BRANCH   7  13
ATOM     13  C   LIG    1       -9.335  -0.960   1.337  0.00  0.00    -0.200 A 
ATOM     14  C   LIG    1      -10.586  -0.502   1.402  0.00  0.00    +0.030 A 
ATOM     15  C   LIG    1      -11.001  -0.117   2.665  0.00  0.00    +0.000 A 
ATOM     16  C   LIG    1      -10.085  -0.253   3.624  0.00  0.00    -0.030 A 
ATOM     17  S   LIG    1       -8.604  -0.907   2.936  0.00  0.00    +0.110 S 
ENDBRANCH   7  13
BRANCH   2  18
ATOM     18  C   LIG    1       -5.333   0.556   0.057  0.00  0.00    +0.120 C 
BRANCH  18  19
ATOM     19  S   LIG    1       -5.076   2.348   0.064  0.00  0.00    +0.090 S 
BRANCH  19  20
ATOM     20  C   LIG    1       -3.315   2.404   0.047  0.00  0.00    +0.260 A 
ATOM     21  N   LIG    1       -2.528   1.356   0.033  0.00  0.00    -0.480 NA
ATOM     22  C   LIG    1       -1.230   1.760   0.017  0.00  0.00    +0.060 A 
ATOM     23  C   LIG    1       -0.013   1.076   0.008  0.00  0.00    +0.070 A 
ATOM     24  C   LIG    1        1.169   1.783   0.001  0.00  0.00    +0.020 A 
ATOM     25  C   LIG    1        1.160   3.170   0.009  0.00  0.00    +0.040 A 
ATOM     26  C   LIG    1       -0.035   3.860   0.023  0.00  0.00    +0.020 A 
ATOM     27  C   LIG    1       -1.234   3.165   0.030  0.00  0.00    +0.060 A 
ATOM     28  N   LIG    1       -2.566   3.547   0.046  0.00  0.00    -0.540 N 
BRANCH  28  29
ATOM     29  C   LIG    1       -3.076   4.920   0.058  0.00  0.00    +0.650 C 
ATOM     30  F   LIG    1       -2.161   5.752   0.713  0.00  0.00    -0.180 F 
ATOM     31  F   LIG    1       -4.302   4.956   0.730  0.00  0.00    -0.170 F 
ENDBRANCH  28  29
ENDBRANCH  19  20
ENDBRANCH  18  19
ENDBRANCH   2  18
TORSDOF 6
