REMARK  Name = ZINCqH00000397mt.0
REMARK                            x       y       z     vdW  Elec       q    Type
REMARK                         _______ _______ _______ _____ _____    ______ ____
ROOT
ATOM      1  C   LIG    1        1.262   3.472  -0.101  0.00  0.00    +0.580 C 
ATOM      2  N   LIG    1        2.426   4.131  -0.262  0.00  0.00    -0.600 N 
ATOM      3  C   LIG    1        3.736   3.510  -0.529  0.00  0.00    +0.260 C 
ATOM      4  C   LIG    1        4.775   4.541  -0.024  0.00  0.00    +0.040 C 
ATOM      5  C   LIG    1        4.100   5.882  -0.416  0.00  0.00    +0.060 C 
ATOM      6  C   LIG    1        2.599   5.590  -0.206  0.00  0.00    +0.310 C 
ATOM      7  O   LIG    1        0.227   4.092   0.048  0.00  0.00    -0.530 OA
ENDROOT
BRANCH   6   8
ATOM      8  C   LIG    1        1.789   6.245  -1.296  0.00  0.00    +0.090 A 
ATOM      9  N   LIG    1        1.752   5.837  -2.508  0.00  0.00    -0.450 NA
ATOM     10  C   LIG    1        0.980   6.518  -3.376  0.00  0.00    +0.080 A 
ATOM     11  C   LIG    1        0.753   6.290  -4.748  0.00  0.00    +0.070 A 
ATOM     12  C   LIG    1       -0.071   7.111  -5.457  0.00  0.00    +0.030 A 
ATOM     13  C   LIG    1       -0.702   8.184  -4.844  0.00  0.00    +0.040 A 
ATOM     14  C   LIG    1       -0.499   8.431  -3.505  0.00  0.00    +0.060 A 
ATOM     15  C   LIG    1        0.340   7.602  -2.764  0.00  0.00    -0.180 A 
ATOM     16  S   LIG    1        0.813   7.626  -1.069  0.00  0.00    +0.120 S 
ENDBRANCH   6   8
BRANCH   1  20
ATOM     17  C   LIG    1        1.208  -0.775  -0.112  0.00  0.00    +0.190 A 
ATOM     18  C   LIG    1        2.197  -0.091  -0.812  0.00  0.00    +0.010 A 
ATOM     19  C   LIG    1        2.217   1.285  -0.811  0.00  0.00    +0.060 A 
ATOM     20  C   LIG    1        1.243   1.996  -0.104  0.00  0.00    -0.150 A 
ATOM     21  C   LIG    1        0.251   1.306   0.598  0.00  0.00    +0.100 A 
ATOM     22  C   LIG    1        0.236  -0.070   0.592  0.00  0.00    -0.030 A 
BRANCH  17  27
ATOM     23  N   LIG    1        1.673  -4.190  -1.180  0.00  0.00    -0.860 N 
ATOM     24  H   LIG    1        1.960  -4.676  -1.968  0.00  0.00    +0.420 HD
ATOM     25  H   LIG    1        1.447  -4.671  -0.368  0.00  0.00    +0.400 HD
ATOM     26  C   LIG    1        1.589  -2.845  -1.211  0.00  0.00    +0.700 C 
ATOM     27  N   LIG    1        1.190  -2.169  -0.115  0.00  0.00    -0.690 N 
ATOM     28  H   LIG    1        0.892  -2.652   0.671  0.00  0.00    +0.410 HD
ATOM     29  O   LIG    1        1.872  -2.242  -2.228  0.00  0.00    -0.570 OA
ENDBRANCH  17  27
ENDBRANCH   1  20
TORSDOF 3
