REMARK  Name = ZINCrD000006fiKZ.0
REMARK                            x       y       z     vdW  Elec       q    Type
REMARK                         _______ _______ _______ _____ _____    ______ ____
ROOT
ATOM      1  N   LIG    1       -4.070   2.987   2.833  0.00  0.00    -0.670 N 
ATOM      2  H   LIG    1       -4.848   3.402   2.430  0.00  0.00    +0.410 HD
ATOM      3  C   LIG    1       -3.218   2.271   2.073  0.00  0.00    +0.510 C 
ATOM      4  O   LIG    1       -2.191   1.840   2.554  0.00  0.00    -0.500 OA
ENDROOT
BRANCH   1   7
ATOM      5  C   LIG    1       -4.091   4.374   6.244  0.00  0.00    +0.140 A 
ATOM      6  C   LIG    1       -4.323   4.238   4.883  0.00  0.00    +0.020 A 
ATOM      7  C   LIG    1       -3.833   3.130   4.206  0.00  0.00    +0.160 A 
ATOM      8  C   LIG    1       -3.102   2.167   4.888  0.00  0.00    +0.040 A 
ATOM      9  C   LIG    1       -2.867   2.307   6.243  0.00  0.00    +0.030 A 
ATOM     10  C   LIG    1       -3.358   3.406   6.923  0.00  0.00    +0.050 A 
ATOM     11  F   LIG    1       -3.127   3.540   8.247  0.00  0.00    -0.140 F 
BRANCH   5  13
ATOM     12  C   LIG    1       -5.773   6.024   6.577  0.00  0.00    +0.550 C 
ATOM     13  N   LIG    1       -4.589   5.487   6.931  0.00  0.00    -0.670 N 
ATOM     14  H   LIG    1       -4.081   5.872   7.662  0.00  0.00    +0.420 HD
ATOM     15  O   LIG    1       -6.370   5.595   5.607  0.00  0.00    -0.530 OA
BRANCH  12  17
ATOM     16  C   LIG    1       -7.513   7.658   7.013  0.00  0.00    +0.160 C 
ATOM     17  C   LIG    1       -6.345   7.128   7.363  0.00  0.00    -0.090 C 
ENDBRANCH  12  17
ENDBRANCH   5  13
ENDBRANCH   1   7
BRANCH   3  18
ATOM     18  C   LIG    1       -3.541   2.005   0.625  0.00  0.00    +0.070 C 
BRANCH  18  19
ATOM     19  C   LIG    1       -2.419   1.178  -0.004  0.00  0.00    +0.260 C 
ATOM     20  C   LIG    1       -2.803   0.802  -1.437  0.00  0.00    +0.040 C 
BRANCH  19  21
ATOM     21  N   LIG    1       -1.182   1.964  -0.021  0.00  0.00    -0.720 N 
ATOM     22  H   LIG    1       -1.224   2.933  -0.017  0.00  0.00    +0.400 HD
ATOM     23  C   LIG    1        0.012   1.340  -0.041  0.00  0.00    +0.530 C 
ATOM     24  O   LIG    1        0.064   0.129  -0.045  0.00  0.00    -0.540 OA
BRANCH  23  25
ATOM     25  C   LIG    1        1.284   2.149  -0.064  0.00  0.00    -0.010 C 
ATOM     26  C   LIG    1        1.302   3.035  -1.311  0.00  0.00    +0.020 C 
ATOM     27  C   LIG    1        2.593   3.856  -1.335  0.00  0.00    +0.010 C 
ATOM     28  C   LIG    1        3.797   2.912  -1.361  0.00  0.00    +0.000 C 
ATOM     29  C   LIG    1        3.779   2.026  -0.114  0.00  0.00    +0.010 C 
ATOM     30  C   LIG    1        2.488   1.205  -0.090  0.00  0.00    +0.040 C 
ENDBRANCH  23  25
ENDBRANCH  19  21
ENDBRANCH  18  19
ENDBRANCH   3  18
TORSDOF 7
