REMARK  Name = ZINCpk00001AZiQK.0
REMARK                            x       y       z     vdW  Elec       q    Type
REMARK                         _______ _______ _______ _____ _____    ______ ____
ROOT
ATOM      1  N   LIG    1       -3.853  -3.335  -2.406  0.00  0.00    -0.730 N 
ATOM      2  H   LIG    1       -4.471  -3.806  -1.825  0.00  0.00    +0.400 HD
ATOM      3  C   LIG    1       -2.757  -2.746  -1.889  0.00  0.00    +0.500 C 
ATOM      4  O   LIG    1       -1.985  -2.157  -2.615  0.00  0.00    -0.520 OA
ENDROOT
BRANCH   1   5
ATOM      5  C   LIG    1       -4.112  -3.264  -3.846  0.00  0.00    +0.280 C 
BRANCH   5   6
ATOM      6  C   LIG    1       -5.410  -4.007  -4.168  0.00  0.00    +0.230 C 
ATOM      7  C   LIG    1       -5.616  -4.040  -5.684  0.00  0.00    +0.040 C 
BRANCH   6   8
ATOM      8  N   LIG    1       -5.328  -5.377  -3.656  0.00  0.00    -0.710 N 
ATOM      9  H   LIG    1       -4.463  -5.798  -3.532  0.00  0.00    +0.410 HD
BRANCH   8  14
ATOM     10  C   LIG    1       -9.881  -8.346  -2.365  0.00  0.00    +0.150 C 
ATOM     11  C   LIG    1       -8.685  -7.504  -2.727  0.00  0.00    +0.020 A 
ATOM     12  C   LIG    1       -8.864  -6.214  -3.206  0.00  0.00    +0.070 A 
ATOM     13  C   LIG    1       -7.736  -5.473  -3.521  0.00  0.00    -0.030 A 
ATOM     14  C   LIG    1       -6.490  -6.076  -3.349  0.00  0.00    +0.340 A 
ATOM     15  N   LIG    1       -6.420  -7.315  -2.886  0.00  0.00    -0.300 NA
ATOM     16  N   LIG    1       -7.469  -7.993  -2.590  0.00  0.00    -0.200 NA
ENDBRANCH   8  14
ENDBRANCH   6   8
ENDBRANCH   5   6
ENDBRANCH   1   5
BRANCH   3  17
ATOM     17  C   LIG    1       -2.490  -2.819  -0.407  0.00  0.00    +0.330 C 
BRANCH  17  18
ATOM     18  N   LIG    1       -1.248  -2.107  -0.099  0.00  0.00    -0.600 N 
ATOM     19  C   LIG    1       -1.280  -0.793   0.201  0.00  0.00    +0.570 C 
ATOM     20  O   LIG    1       -2.347  -0.219   0.301  0.00  0.00    -0.530 OA
ATOM     21  C   LIG    1        0.030  -2.823  -0.115  0.00  0.00    +0.280 C 
BRANCH  19  22
ATOM     22  C   LIG    1       -0.018  -0.051   0.406  0.00  0.00    -0.130 A 
ATOM     23  C   LIG    1        1.046  -0.651   1.081  0.00  0.00    +0.040 A 
ATOM     24  C   LIG    1        2.221   0.048   1.270  0.00  0.00    +0.000 A 
ATOM     25  C   LIG    1        2.345   1.340   0.791  0.00  0.00    +0.030 A 
ATOM     26  C   LIG    1        1.294   1.940   0.122  0.00  0.00    +0.010 A 
ATOM     27  C   LIG    1        0.114   1.253  -0.073  0.00  0.00    +0.070 A 
ENDBRANCH  19  22
ENDBRANCH  17  18
ENDBRANCH   3  17
TORSDOF 7
