REMARK  Name = ZINCyk0000000nzk.1
REMARK                            x       y       z     vdW  Elec       q    Type
REMARK                         _______ _______ _______ _____ _____    ______ ____
ROOT
ATOM      1  C   LIG    1        1.286   1.971  -0.001  0.00  0.00    +0.280 C 
ENDROOT
BRANCH   1   2
ATOM      2  N   LIG    1        2.430   1.157  -0.417  0.00  0.00    -0.570 N 
ATOM      3  C   LIG    1        2.876   0.075   0.245  0.00  0.00    +0.580 C 
ATOM      4  C   LIG    1        4.040  -0.476  -0.480  0.00  0.00    -0.140 A 
ATOM      5  C   LIG    1        4.885  -1.555  -0.278  0.00  0.00    +0.110 A 
ATOM      6  C   LIG    1        5.916  -1.798  -1.172  0.00  0.00    +0.060 A 
ATOM      7  C   LIG    1        6.106  -0.973  -2.264  0.00  0.00    +0.060 A 
ATOM      8  C   LIG    1        5.268   0.111  -2.480  0.00  0.00    +0.100 A 
ATOM      9  C   LIG    1        4.234   0.366  -1.594  0.00  0.00    -0.150 A 
ATOM     10  O   LIG    1        2.400  -0.376   1.268  0.00  0.00    -0.430 OA
ATOM     11  C   LIG    1        3.178   1.397  -1.510  0.00  0.00    +0.580 C 
ATOM     12  O   LIG    1        3.013   2.309  -2.295  0.00  0.00    -0.470 OA
ENDBRANCH   1   2
BRANCH   1  13
ATOM     13  C   LIG    1        0.046   1.114   0.034  0.00  0.00    +0.520 C 
ATOM     14  N   LIG    1       -1.171   1.691   0.077  0.00  0.00    -0.630 N 
ATOM     15  C   LIG    1       -1.319   3.152  -0.006  0.00  0.00    +0.310 C 
ATOM     16  C   LIG    1       -2.363   3.469  -1.088  0.00  0.00    +0.260 C 
ATOM     17  N   LIG    1       -3.608   2.751  -0.787  0.00  0.00    -0.380 N 
ATOM     18  C   LIG    1       -3.382   1.303  -0.871  0.00  0.00    +0.260 C 
ATOM     19  H   LIG    1       -3.916   2.989   0.143  0.00  0.00    +0.430 HD
ATOM     20  C   LIG    1       -2.389   0.878   0.215  0.00  0.00    +0.330 C 
ATOM     21  O   LIG    1        0.144  -0.095   0.019  0.00  0.00    -0.480 OA
BRANCH  17  22
ATOM     22  C   LIG    1       -4.640   3.141  -1.757  0.00  0.00    +0.260 C 
BRANCH  22  23
ATOM     23  C   LIG    1       -4.788   4.664  -1.760  0.00  0.00    +0.100 C 
BRANCH  23  24
ATOM     24  C   LIG    1       -5.847   5.064  -2.755  0.00  0.00    -0.110 A 
ATOM     25  C   LIG    1       -5.498   5.332  -4.066  0.00  0.00    +0.010 A 
ATOM     26  C   LIG    1       -6.470   5.694  -4.979  0.00  0.00    +0.020 A 
ATOM     27  C   LIG    1       -7.790   5.798  -4.580  0.00  0.00    +0.030 A 
ATOM     28  C   LIG    1       -8.138   5.535  -3.269  0.00  0.00    +0.020 A 
ATOM     29  C   LIG    1       -7.167   5.168  -2.356  0.00  0.00    +0.010 A 
ENDBRANCH  23  24
ENDBRANCH  22  23
ENDBRANCH  17  22
ENDBRANCH   1  13
BRANCH   1  30
ATOM     30  C   LIG    1        1.548   2.545   1.393  0.00  0.00    +0.090 C 
BRANCH  30  31
ATOM     31  C   LIG    1        2.726   3.520   1.329  0.00  0.00    -0.360 C 
BRANCH  31  33
ATOM     32  C   LIG    1        4.443   5.305   2.672  0.00  0.00    -0.250 C 
ATOM     33  S   LIG    1        3.038   4.201   2.981  0.00  0.00    +2.420 S 
ATOM     34  O   LIG    1        3.468   3.147   3.832  0.00  0.00    -0.920 OA
ATOM     35  O   LIG    1        1.919   4.989   3.364  0.00  0.00    -0.930 OA
ENDBRANCH  31  33
ENDBRANCH  30  31
ENDBRANCH   1  30
TORSDOF 8
