REMARK  Name = ZINCrg000000sEfC.0
REMARK                            x       y       z     vdW  Elec       q    Type
REMARK                         _______ _______ _______ _____ _____    ______ ____
ROOT
ATOM      1  N   LIG    1        0.028  -3.231  -1.496  0.00  0.00    -0.460 N 
ATOM      2  C   LIG    1       -1.114  -3.222  -2.420  0.00  0.00    +0.170 C 
ATOM      3  C   LIG    1       -0.971  -4.379  -3.414  0.00  0.00    +0.280 C 
ATOM      4  N   LIG    1       -0.793  -5.627  -2.657  0.00  0.00    -0.630 N 
ATOM      5  C   LIG    1        0.245  -5.667  -1.615  0.00  0.00    +0.320 C 
ATOM      6  C   LIG    1       -1.560  -6.706  -2.911  0.00  0.00    +0.720 C 
ATOM      7  N   LIG    1       -2.571  -6.620  -3.798  0.00  0.00    -0.740 N 
ATOM      8  H   LIG    1       -2.701  -5.805  -4.308  0.00  0.00    +0.400 HD
ATOM      9  O   LIG    1       -1.339  -7.757  -2.340  0.00  0.00    -0.580 OA
ATOM     10  C   LIG    1        0.053  -4.460  -0.691  0.00  0.00    +0.190 C 
ENDROOT
BRANCH   1  14
ATOM     11  C   LIG    1       -0.026   1.459   0.019  0.00  0.00    +0.360 C 
ATOM     12  N   LIG    1       -0.004  -0.006   0.009  0.00  0.00    -0.370 N 
ATOM     13  C   LIG    1       -0.009  -0.799  -1.095  0.00  0.00    +0.220 A 
ATOM     14  C   LIG    1        0.019  -2.088  -0.672  0.00  0.00    -0.050 A 
ATOM     15  C   LIG    1        0.032  -2.082   0.730  0.00  0.00    +0.200 A 
ATOM     16  N   LIG    1        0.018  -0.838   1.136  0.00  0.00    -0.280 NA
ENDBRANCH   1  14
BRANCH   7  17
ATOM     17  C   LIG    1       -3.473  -7.758  -3.992  0.00  0.00    +0.430 C 
BRANCH  17  18
ATOM     18  C   LIG    1       -4.508  -7.406  -5.030  0.00  0.00    +0.160 A 
ATOM     19  N   LIG    1       -4.410  -7.597  -6.317  0.00  0.00    -0.260 NA
ATOM     20  N   LIG    1       -5.476  -7.181  -6.904  0.00  0.00    -0.290 NA
ATOM     21  C   LIG    1       -6.310  -6.702  -6.021  0.00  0.00    +0.390 A 
ATOM     22  N   LIG    1       -5.724  -6.835  -4.798  0.00  0.00    -0.420 N 
BRANCH  22  23
ATOM     23  C   LIG    1       -6.260  -6.460  -3.558  0.00  0.00    +0.110 A 
ATOM     24  C   LIG    1       -6.265  -7.360  -2.501  0.00  0.00    +0.020 A 
ATOM     25  C   LIG    1       -6.789  -6.985  -1.279  0.00  0.00    +0.040 A 
ATOM     26  C   LIG    1       -7.317  -5.718  -1.111  0.00  0.00    +0.030 A 
ATOM     27  C   LIG    1       -7.318  -4.821  -2.163  0.00  0.00    +0.040 A 
ATOM     28  C   LIG    1       -6.791  -5.189  -3.386  0.00  0.00    +0.020 A 
ENDBRANCH  22  23
ENDBRANCH  17  18
ENDBRANCH   7  17
TORSDOF 4
