REMARK  Name = ZINCnE000001IVMG.0
REMARK                            x       y       z     vdW  Elec       q    Type
REMARK                         _______ _______ _______ _____ _____    ______ ____
ROOT
ATOM      1  C   LIG    1       -1.361   1.974   0.006  0.00  0.00    +0.320 C 
ATOM      2  N   LIG    1       -0.017   1.392   0.010  0.00  0.00    -0.950 N 
ENDROOT
BRANCH   2   3
ATOM      3  C   LIG    1        0.143   0.005   0.027  0.00  0.00    +0.160 A 
ATOM      4  C   LIG    1        0.815  -0.617  -1.002  0.00  0.00    +0.010 A 
ATOM      5  C   LIG    1        0.978  -2.011  -0.979  0.00  0.00    -0.030 A 
ATOM      6  C   LIG    1        1.661  -2.682  -2.009  0.00  0.00    +0.030 A 
ATOM      7  C   LIG    1        1.796  -4.035  -1.957  0.00  0.00    +0.000 A 
ATOM      8  C   LIG    1        1.268  -4.769  -0.897  0.00  0.00    +0.000 A 
ATOM      9  C   LIG    1        0.600  -4.154   0.117  0.00  0.00    +0.030 A 
ATOM     10  C   LIG    1        0.440  -2.758   0.100  0.00  0.00    -0.060 A 
ATOM     11  C   LIG    1       -0.244  -2.091   1.131  0.00  0.00    +0.040 A 
ATOM     12  C   LIG    1       -0.385  -0.740   1.089  0.00  0.00    +0.020 A 
ENDBRANCH   2   3
BRANCH   2  13
ATOM     13  S   LIG    1        1.313   2.379  -0.014  0.00  0.00    +2.710 S 
ATOM     14  O   LIG    1        2.413   1.580   0.400  0.00  0.00    -0.940 OA
ATOM     15  O   LIG    1        0.933   3.579   0.645  0.00  0.00    -0.940 OA
BRANCH  13  16
ATOM     16  C   LIG    1        1.614   2.808  -1.696  0.00  0.00    -0.830 A 
ATOM     17  C   LIG    1        1.097   3.865  -2.309  0.00  0.00    +0.220 A 
ATOM     18  C   LIG    1        1.511   3.978  -3.690  0.00  0.00    -0.180 A 
ATOM     19  C   LIG    1        2.348   2.975  -4.078  0.00  0.00    +0.010 A 
ATOM     20  S   LIG    1        2.645   1.901  -2.788  0.00  0.00    +0.200 S 
BRANCH  18  21
ATOM     21  C   LIG    1        1.075   5.060  -4.580  0.00  0.00    +0.540 C 
ATOM     22  O   LIG    1        1.466   5.093  -5.739  0.00  0.00    -0.680 OA
ATOM     23  O   LIG    1        0.322   5.929  -4.163  0.00  0.00    -0.680 OA
ENDBRANCH  18  21
ENDBRANCH  13  16
ENDBRANCH   2  13
TORSDOF 4
