REMARK  Name = ZINCtV000002z14R.0
REMARK                            x       y       z     vdW  Elec       q    Type
REMARK                         _______ _______ _______ _____ _____    ______ ____
ROOT
ATOM      1  N   LIG    1        0.108  -3.739   8.740  0.00  0.00    -0.530 NA
ATOM      2  C   LIG    1        0.619  -2.857   9.798  0.00  0.00    +0.190 C 
ATOM      3  C   LIG    1       -0.505  -2.542  10.788  0.00  0.00    +0.030 C 
ATOM      4  C   LIG    1       -1.026  -3.847  11.394  0.00  0.00    +0.020 C 
ATOM      5  C   LIG    1       -1.507  -4.767  10.268  0.00  0.00    +0.050 C 
ATOM      6  C   LIG    1       -0.355  -5.018   9.293  0.00  0.00    +0.240 C 
ENDROOT
BRANCH   6   7
ATOM      7  C   LIG    1       -0.830  -5.907   8.173  0.00  0.00    +0.080 A 
ATOM      8  N   LIG    1       -0.533  -7.147   8.062  0.00  0.00    -0.460 NA
ATOM      9  C   LIG    1       -1.029  -7.820   7.007  0.00  0.00    +0.080 A 
ATOM     10  C   LIG    1       -0.866  -9.173   6.645  0.00  0.00    +0.080 A 
ATOM     11  C   LIG    1       -1.462  -9.663   5.523  0.00  0.00    +0.030 A 
ATOM     12  C   LIG    1       -2.239  -8.844   4.716  0.00  0.00    +0.040 A 
ATOM     13  C   LIG    1       -2.415  -7.519   5.045  0.00  0.00    +0.060 A 
ATOM     14  C   LIG    1       -1.814  -7.000   6.189  0.00  0.00    -0.190 A 
ATOM     15  S   LIG    1       -1.836  -5.388   6.896  0.00  0.00    +0.140 S 
ENDBRANCH   6   7
BRANCH   1  16
ATOM     16  C   LIG    1        1.121  -3.952   7.697  0.00  0.00    +0.330 C 
BRANCH  16  20
ATOM     17  C   LIG    1        1.307  -1.000   5.601  0.00  0.00    +0.250 A 
ATOM     18  N   LIG    1        2.246  -0.778   6.495  0.00  0.00    -0.270 NA
ATOM     19  N   LIG    1        2.290  -1.766   7.318  0.00  0.00    -0.270 NA
ATOM     20  C   LIG    1        1.391  -2.651   6.987  0.00  0.00    +0.180 A 
ATOM     21  O   LIG    1        0.745  -2.190   5.901  0.00  0.00    -0.210 OA
BRANCH  17  25
ATOM     22  C   LIG    1        0.000   1.080   2.488  0.00  0.00    -0.160 A 
ATOM     23  C   LIG    1        0.995   1.726   3.105  0.00  0.00    -0.110 A 
ATOM     24  C   LIG    1        1.515   1.085   4.207  0.00  0.00    +0.110 A 
ATOM     25  C   LIG    1        0.935  -0.115   4.487  0.00  0.00    -0.160 A 
ATOM     26  C   LIG    1        1.507   3.062   2.631  0.00  0.00    +0.110 C 
ATOM     27  S   LIG    1       -0.327  -0.441   3.306  0.00  0.00    +0.170 S 
BRANCH  22  29
ATOM     28  C   LIG    1       -0.013   1.086   0.008  0.00  0.00    +0.040 C 
ATOM     29  C   LIG    1       -0.729   1.579   1.267  0.00  0.00    +0.110 C 
ENDBRANCH  22  29
ENDBRANCH  17  25
ENDBRANCH  16  20
ENDBRANCH   1  16
TORSDOF 5
