REMARK  Name = ZINCqH0000008ssW.0
REMARK                            x       y       z     vdW  Elec       q    Type
REMARK                         _______ _______ _______ _____ _____    ______ ____
ROOT
ATOM      1  N   LIG    1        0.874   1.191   1.760  0.00  0.00    -0.730 N 
ATOM      2  H   LIG    1        1.641   1.772   1.884  0.00  0.00    +0.410 HD
ENDROOT
BRANCH   1   3
ATOM      3  C   LIG    1        0.852  -0.075   2.354  0.00  0.00    +0.210 A 
ATOM      4  C   LIG    1       -0.248  -0.904   2.181  0.00  0.00    -0.060 A 
ATOM      5  C   LIG    1       -0.268  -2.155   2.764  0.00  0.00    +0.040 A 
ATOM      6  C   LIG    1        0.808  -2.581   3.532  0.00  0.00    +0.080 A 
ATOM      7  C   LIG    1        1.906  -1.750   3.710  0.00  0.00    +0.070 A 
ATOM      8  C   LIG    1        1.928  -0.500   3.123  0.00  0.00    -0.040 A 
BRANCH   6   9
ATOM      9  N   LIG    1        0.785  -3.849   4.128  0.00  0.00    -0.670 N 
ATOM     10  H   LIG    1        0.374  -4.595   3.666  0.00  0.00    +0.410 HD
ATOM     11  C   LIG    1        1.335  -4.031   5.345  0.00  0.00    +0.540 C 
ATOM     12  O   LIG    1        1.918  -3.117   5.891  0.00  0.00    -0.520 OA
BRANCH  11  13
ATOM     13  C   LIG    1        1.228  -5.370   6.028  0.00  0.00    -0.070 C 
ATOM     14  C   LIG    1        0.349  -5.457   7.278  0.00  0.00    +0.060 C 
ATOM     15  C   LIG    1        1.873  -5.514   7.408  0.00  0.00    +0.070 C 
ENDBRANCH  11  13
ENDBRANCH   6   9
ENDBRANCH   1   3
BRANCH   1  17
ATOM     16  C   LIG    1       -0.099   1.126  -0.483  0.00  0.00    +0.050 C 
ATOM     17  C   LIG    1       -0.261   1.640   0.949  0.00  0.00    +0.250 C 
BRANCH  17  18
ATOM     18  C   LIG    1       -0.307   3.146   0.940  0.00  0.00    +0.500 C 
ATOM     19  N   LIG    1       -1.275   3.786   0.254  0.00  0.00    -0.660 N 
ATOM     20  H   LIG    1       -1.912   3.279  -0.274  0.00  0.00    +0.420 HD
ATOM     21  O   LIG    1        0.525   3.782   1.551  0.00  0.00    -0.490 OA
BRANCH  19  22
ATOM     22  C   LIG    1       -1.360   5.185   0.302  0.00  0.00    +0.070 A 
ATOM     23  C   LIG    1       -1.016   5.864   1.465  0.00  0.00    +0.130 A 
ATOM     24  C   LIG    1       -1.096   7.244   1.506  0.00  0.00    +0.000 A 
ATOM     25  C   LIG    1       -1.529   7.947   0.397  0.00  0.00    +0.080 A 
ATOM     26  C   LIG    1       -1.878   7.275  -0.759  0.00  0.00    +0.010 A 
ATOM     27  F   LIG    1       -0.597   5.178   2.550  0.00  0.00    -0.110 F 
ATOM     28  C   LIG    1       -1.795   5.895  -0.810  0.00  0.00    +0.100 A 
ATOM     29  F   LIG    1       -2.136   5.238  -1.941  0.00  0.00    -0.130 F 
ENDBRANCH  19  22
ENDBRANCH  17  18
ENDBRANCH   1  17
TORSDOF 6
