REMARK  Name = ZINCqH0000000u3Z.0
REMARK                            x       y       z     vdW  Elec       q    Type
REMARK                         _______ _______ _______ _____ _____    ______ ____
ROOT
ATOM      1  N   LIG    1        1.164   4.073   1.400  0.00  0.00    -0.690 N 
ATOM      2  H   LIG    1        1.173   3.440   2.135  0.00  0.00    +0.410 HD
ENDROOT
BRANCH   1   3
ATOM      3  C   LIG    1        1.152   5.429   1.657  0.00  0.00    +0.480 A 
ATOM      4  N   LIG    1        1.146   6.296   0.668  0.00  0.00    -0.550 NA
ATOM      5  C   LIG    1        1.129   7.625   0.884  0.00  0.00    +0.310 A 
ATOM      6  C   LIG    1        1.117   8.695   0.000  0.00  0.00    -0.110 A 
ATOM      7  C   LIG    1        1.108   9.864   0.752  0.00  0.00    +0.110 A 
ATOM      8  N   LIG    1        1.115   9.549   2.025  0.00  0.00    -0.310 NA
ATOM      9  C   LIG    1        1.094  11.264   0.195  0.00  0.00    +0.170 C 
ATOM     10  N   LIG    1        1.128   8.154   2.145  0.00  0.00    -0.350 N 
ATOM     11  C   LIG    1        1.139   7.318   3.248  0.00  0.00    +0.210 A 
ATOM     12  C   LIG    1        1.138   7.819   4.542  0.00  0.00    +0.020 A 
ATOM     13  C   LIG    1        1.149   6.950   5.613  0.00  0.00    +0.080 A 
ATOM     14  C   LIG    1        1.160   5.578   5.409  0.00  0.00    +0.010 A 
ATOM     15  C   LIG    1        1.162   5.060   4.133  0.00  0.00    +0.080 A 
ATOM     16  C   LIG    1        1.151   5.927   3.040  0.00  0.00    -0.150 A 
ENDBRANCH   1   3
BRANCH   1  17
ATOM     17  C   LIG    1        1.165   3.589   0.018  0.00  0.00    +0.330 C 
BRANCH  17  22
ATOM     18  C   LIG    1        0.004  -0.008   0.009  0.00  0.00    +0.140 A 
ATOM     19  C   LIG    1        1.216  -0.687   0.002  0.00  0.00    +0.030 A 
ATOM     20  C   LIG    1        2.402   0.021   0.001  0.00  0.00    +0.030 A 
ATOM     21  C   LIG    1        2.385   1.403   0.006  0.00  0.00    +0.020 A 
ATOM     22  C   LIG    1        1.180   2.082   0.013  0.00  0.00    -0.100 A 
ATOM     23  C   LIG    1       -0.010   1.381   0.014  0.00  0.00    +0.010 A 
BRANCH  18  26
ATOM     24  C   LIG    1       -2.618  -2.600  -0.750  0.00  0.00    +0.110 C 
ATOM     25  C   LIG    1       -1.294  -1.884  -0.665  0.00  0.00    +0.510 C 
ATOM     26  N   LIG    1       -1.199  -0.722   0.010  0.00  0.00    -0.680 N 
ATOM     27  H   LIG    1       -1.965  -0.379   0.497  0.00  0.00    +0.410 HD
ATOM     28  O   LIG    1       -0.315  -2.355  -1.203  0.00  0.00    -0.520 OA
ENDBRANCH  18  26
ENDBRANCH  17  22
ENDBRANCH   1  17
TORSDOF 4
