REMARK  Name = ZINCrH000004kWf9.0
REMARK                            x       y       z     vdW  Elec       q    Type
REMARK                         _______ _______ _______ _____ _____    ______ ____
ROOT
ATOM      1  N   LIG    1        1.087   1.970   0.002  0.00  0.00    -0.570 N 
ATOM      2  C   LIG    1       -0.014   1.211   0.009  0.00  0.00    +0.710 C 
ATOM      3  N   LIG    1       -1.143   1.944   0.018  0.00  0.00    -0.720 N 
ATOM      4  H   LIG    1       -2.052   1.607   0.019  0.00  0.00    +0.440 HD
ATOM      5  C   LIG    1       -0.727   3.357   0.027  0.00  0.00    +0.170 C 
ATOM      6  C   LIG    1       -1.244   4.073  -1.222  0.00  0.00    +0.090 C 
ATOM      7  O   LIG    1        0.002  -0.004   0.002  0.00  0.00    -0.530 OA
ATOM      8  C   LIG    1        0.787   3.284   0.012  0.00  0.00    +0.530 C 
ATOM      9  O   LIG    1        1.565   4.213   0.010  0.00  0.00    -0.430 OA
ENDROOT
BRANCH   5  10
ATOM     10  C   LIG    1       -1.212   4.049   1.275  0.00  0.00    -0.090 A 
ATOM     11  C   LIG    1       -2.040   3.382   2.158  0.00  0.00    +0.060 A 
ATOM     12  C   LIG    1       -2.485   4.016   3.303  0.00  0.00    +0.050 A 
ATOM     13  C   LIG    1       -2.102   5.318   3.566  0.00  0.00    -0.010 A 
ATOM     14  C   LIG    1       -1.273   5.987   2.682  0.00  0.00    +0.050 A 
ATOM     15 CL   LIG    1       -2.661   6.114   5.003  0.00  0.00    -0.050 Cl
ATOM     16  C   LIG    1       -0.824   5.351   1.540  0.00  0.00    -0.010 A 
ATOM     17 CL   LIG    1        0.222   6.186   0.434  0.00  0.00    -0.020 Cl
ENDBRANCH   5  10
BRANCH   1  18
ATOM     18  C   LIG    1        2.453   1.438  -0.013  0.00  0.00    +0.380 C 
BRANCH  18  22
ATOM     19  C   LIG    1        3.745   0.942  -4.059  0.00  0.00    -0.120 A 
ATOM     20  C   LIG    1        3.971   2.149  -3.393  0.00  0.00    +0.080 A 
ATOM     21  C   LIG    1        3.551   2.302  -2.088  0.00  0.00    +0.030 A 
ATOM     22  C   LIG    1        2.908   1.264  -1.439  0.00  0.00    -0.090 A 
ATOM     23  C   LIG    1        2.686   0.064  -2.091  0.00  0.00    +0.040 A 
ATOM     24  C   LIG    1        3.095  -0.101  -3.398  0.00  0.00    +0.080 A 
BRANCH  19  25
ATOM     25  C   LIG    1        4.192   0.771  -5.457  0.00  0.00    +0.510 C 
ATOM     26  O   LIG    1        4.758   1.680  -6.029  0.00  0.00    -0.500 OA
BRANCH  25  28
ATOM     27  C   LIG    1        4.439  -0.492  -7.467  0.00  0.00    +0.290 C 
ATOM     28  O   LIG    1        3.972  -0.395  -6.096  0.00  0.00    -0.350 OA
ENDBRANCH  25  28
ENDBRANCH  19  25
ENDBRANCH  18  22
ENDBRANCH   1  18
TORSDOF 5
