REMARK  Name = ZINCAx00000009fM.0
REMARK                            x       y       z     vdW  Elec       q    Type
REMARK                         _______ _______ _______ _____ _____    ______ ____
ROOT
ATOM      1  C   LIG    1       -3.694  -3.838   1.132  0.00  0.00    -0.010 C 
ATOM      2  C   LIG    1       -3.023  -2.757   0.593  0.00  0.00    +0.170 A 
ATOM      3  S   LIG    1       -1.417  -2.775  -0.155  0.00  0.00    +0.060 S 
ATOM      4  C   LIG    1       -1.407  -1.040  -0.522  0.00  0.00    -0.240 A 
ATOM      5  C   LIG    1       -2.693  -0.551  -0.017  0.00  0.00    +0.550 A 
ATOM      6  O   LIG    1       -3.023   0.618  -0.100  0.00  0.00    -0.480 OA
ATOM      7  C   LIG    1       -0.425  -0.323  -1.131  0.00  0.00    +0.220 C 
ATOM      8  N   LIG    1       -3.470  -1.469   0.532  0.00  0.00    -0.510 N 
ENDROOT
BRANCH   7   9
ATOM      9  C   LIG    1       -0.668   1.071  -1.519  0.00  0.00    -0.100 A 
ATOM     10  C   LIG    1       -1.897   1.440  -2.082  0.00  0.00    +0.100 A 
ATOM     11  C   LIG    1       -2.120   2.740  -2.437  0.00  0.00    -0.010 A 
ATOM     12  C   LIG    1       -1.124   3.696  -2.251  0.00  0.00    -0.060 A 
ATOM     13  C   LIG    1        0.102   3.332  -1.697  0.00  0.00    +0.020 A 
ATOM     14  C   LIG    1        0.332   2.036  -1.334  0.00  0.00    +0.070 A 
BRANCH  12  15
ATOM     15  S   LIG    1       -1.415   5.370  -2.718  0.00  0.00    -0.110 S 
ATOM     16  C   LIG    1       -3.108   5.324  -3.367  0.00  0.00    +0.140 C 
ENDBRANCH  12  15
ENDBRANCH   7   9
BRANCH   1  17
ATOM     17  C   LIG    1       -5.093  -3.858   1.144  0.00  0.00    +0.440 C 
ATOM     18  O   LIG    1       -5.721  -2.912   0.698  0.00  0.00    -0.500 OA
BRANCH  17  23
ATOM     19  C   LIG    1       -5.772  -7.204   2.727  0.00  0.00    +0.160 A 
ATOM     20  C   LIG    1       -7.160  -7.223   2.737  0.00  0.00    -0.130 A 
ATOM     21  C   LIG    1       -7.875  -6.147   2.230  0.00  0.00    +0.160 A 
ATOM     22  C   LIG    1       -7.206  -5.051   1.711  0.00  0.00    +0.010 A 
ATOM     23  C   LIG    1       -5.812  -5.029   1.699  0.00  0.00    -0.070 A 
ATOM     24  C   LIG    1       -5.096  -6.114   2.204  0.00  0.00    +0.000 A 
BRANCH  19  26
ATOM     25  C   LIG    1       -5.836  -9.352   3.743  0.00  0.00    +0.250 C 
ATOM     26  O   LIG    1       -5.076  -8.259   3.225  0.00  0.00    -0.310 OA
ENDBRANCH  19  26
BRANCH  21  27
ATOM     27  O   LIG    1       -9.234  -6.170   2.244  0.00  0.00    -0.310 OA
ATOM     28  C   LIG    1       -9.858  -7.332   2.793  0.00  0.00    +0.250 C 
ENDBRANCH  21  27
ENDBRANCH  17  23
ENDBRANCH   1  17
BRANCH   8  29
ATOM     29  C   LIG    1       -4.784  -1.108   1.071  0.00  0.00    +0.360 C 
BRANCH  29  30
ATOM     30  C   LIG    1       -5.039  -1.888   2.335  0.00  0.00    +0.530 C 
ATOM     31  N   LIG    1       -6.194  -1.719   3.010  0.00  0.00    -0.600 N 
ATOM     32  C   LIG    1       -7.282  -0.806   2.631  0.00  0.00    +0.250 C 
ATOM     33  C   LIG    1       -8.381  -0.932   3.706  0.00  0.00    +0.030 C 
ATOM     34  C   LIG    1       -7.604  -1.479   4.932  0.00  0.00    +0.030 C 
ATOM     35  C   LIG    1       -6.572  -2.414   4.254  0.00  0.00    +0.260 C 
ATOM     36  O   LIG    1       -4.206  -2.668   2.745  0.00  0.00    -0.540 OA
ENDBRANCH  29  30
ENDBRANCH   8  29
TORSDOF 8
