REMARK  Name = ZINCqH0000002c0V.0
REMARK                            x       y       z     vdW  Elec       q    Type
REMARK                         _______ _______ _______ _____ _____    ______ ____
ROOT
ATOM      1  C   LIG    1       -0.108   6.262   0.035  0.00  0.00    +0.460 A 
ATOM      2  N   LIG    1        1.177   6.063   0.021  0.00  0.00    -0.560 NA
ATOM      3  C   LIG    1        1.735   4.832   0.010  0.00  0.00    +0.560 A 
ATOM      4  C   LIG    1        0.783   3.700   0.014  0.00  0.00    -0.230 A 
ATOM      5  C   LIG    1       -0.580   3.975   0.029  0.00  0.00    +0.050 A 
ATOM      6  S   LIG    1       -1.484   2.484   0.037  0.00  0.00    +0.180 S 
ATOM      7  C   LIG    1       -0.018   1.513   0.010  0.00  0.00    -0.200 A 
ATOM      8  C   LIG    1        0.002  -0.004   0.002  0.00  0.00    +0.120 C 
ATOM      9  C   LIG    1        1.392  -0.478  -0.429  0.00  0.00    +0.030 C 
ATOM     10  C   LIG    1        2.446   0.252   0.409  0.00  0.00    +0.020 C 
ATOM     11  C   LIG    1        2.491   1.721  -0.014  0.00  0.00    +0.110 C 
ATOM     12  C   LIG    1        1.076   2.285   0.004  0.00  0.00    -0.030 A 
ATOM     13  O   LIG    1        2.944   4.666  -0.002  0.00  0.00    -0.470 OA
ATOM     14  N   LIG    1       -1.034   5.278   0.040  0.00  0.00    -0.590 N 
ATOM     15  H   LIG    1       -1.983   5.479   0.051  0.00  0.00    +0.430 HD
ENDROOT
BRANCH   1  16
ATOM     16  C   LIG    1       -0.599   7.687   0.045  0.00  0.00    +0.160 C 
BRANCH  16  17
ATOM     17  S   LIG    1        0.822   8.815   0.035  0.00  0.00    -0.140 S 
BRANCH  17  18
ATOM     18  C   LIG    1        0.042  10.453   0.050  0.00  0.00    +0.080 C 
BRANCH  18  19
ATOM     19  C   LIG    1        1.125  11.533   0.042  0.00  0.00    +0.070 C 
BRANCH  19  22
ATOM     20  N   LIG    1        1.242  14.004   0.051  0.00  0.00    -0.720 N 
ATOM     21  H   LIG    1        2.208  13.927   0.040  0.00  0.00    +0.400 HD
ATOM     22  C   LIG    1        0.477  12.894   0.054  0.00  0.00    +0.520 C 
ATOM     23  O   LIG    1       -0.732  12.990   0.067  0.00  0.00    -0.530 OA
BRANCH  20  24
ATOM     24  C   LIG    1        0.612  15.327   0.062  0.00  0.00    +0.170 C 
ATOM     25  C   LIG    1       -0.246  15.473   1.321  0.00  0.00    +0.030 C 
ATOM     26  C   LIG    1       -0.272  15.482  -1.177  0.00  0.00    +0.030 C 
BRANCH  24  28
ATOM     27  C   LIG    1        1.037  17.789   0.067  0.00  0.00    +0.030 C 
ATOM     28  C   LIG    1        1.695  16.407   0.055  0.00  0.00    +0.010 C 
ENDBRANCH  24  28
ENDBRANCH  20  24
ENDBRANCH  19  22
ENDBRANCH  18  19
ENDBRANCH  17  18
ENDBRANCH  16  17
ENDBRANCH   1  16
TORSDOF 7
