REMARK  Name = ZINCvU0000000CYU.0
REMARK                            x       y       z     vdW  Elec       q    Type
REMARK                         _______ _______ _______ _____ _____    ______ ____
ROOT
ATOM      1  C   LIG    1        1.255   2.153  -6.094  0.00  0.00    +0.600 C 
ATOM      2  N   LIG    1        2.418   2.773  -6.375  0.00  0.00    -0.650 N 
ATOM      3  H   LIG    1        2.960   3.137  -5.657  0.00  0.00    +0.420 HD
ATOM      4  O   LIG    1        0.528   1.786  -6.998  0.00  0.00    -0.510 OA
ENDROOT
BRANCH   2   5
ATOM      5  C   LIG    1        2.845   2.892  -7.702  0.00  0.00    +0.180 A 
ATOM      6  C   LIG    1        2.408   1.987  -8.658  0.00  0.00    +0.040 A 
ATOM      7  C   LIG    1        2.830   2.106  -9.968  0.00  0.00    +0.080 A 
ATOM      8  C   LIG    1        3.689   3.127 -10.332  0.00  0.00    +0.030 A 
ATOM      9  C   LIG    1        4.132   4.034  -9.386  0.00  0.00    -0.000 A 
ATOM     10 CL   LIG    1        5.212   5.312  -9.847  0.00  0.00    -0.040 Cl
ATOM     11  C   LIG    1        3.708   3.925  -8.069  0.00  0.00    +0.080 A 
BRANCH  11  12
ATOM     12  N   LIG    1        4.150   4.848  -7.108  0.00  0.00    -0.420 N 
ATOM     13  C   LIG    1        5.269   4.736  -6.326  0.00  0.00    +0.120 A 
ATOM     14  C   LIG    1        5.316   5.837  -5.551  0.00  0.00    +0.150 A 
ATOM     15  N   LIG    1        4.252   6.599  -5.844  0.00  0.00    -0.480 NA
ATOM     16  C   LIG    1        3.546   6.017  -6.775  0.00  0.00    +0.230 A 
ATOM     17  C   LIG    1        2.273   6.553  -7.378  0.00  0.00    +0.170 C 
ENDBRANCH  11  12
ENDBRANCH   2   5
BRANCH   1  20
ATOM     18  C   LIG    1        1.151   2.028  -2.491  0.00  0.00    +0.090 A 
ATOM     19  N   LIG    1        1.618   2.303  -3.671  0.00  0.00    -0.430 NA
ATOM     20  C   LIG    1        0.864   1.920  -4.694  0.00  0.00    +0.000 A 
ATOM     21  C   LIG    1       -0.290   1.303  -4.356  0.00  0.00    -0.040 A 
ATOM     22  S   LIG    1       -0.400   1.212  -2.652  0.00  0.00    +0.260 S 
BRANCH  18  27
ATOM     23  C   LIG    1        1.842   2.328   1.199  0.00  0.00    +0.120 A 
ATOM     24  C   LIG    1        3.069   2.971   1.187  0.00  0.00    -0.040 A 
ATOM     25  C   LIG    1        3.668   3.310  -0.015  0.00  0.00    +0.060 A 
ATOM     26  C   LIG    1        3.050   3.007  -1.210  0.00  0.00    +0.050 A 
ATOM     27  C   LIG    1        1.816   2.355  -1.212  0.00  0.00    -0.010 A 
ATOM     28  C   LIG    1        1.211   2.012   0.001  0.00  0.00    +0.080 A 
BRANCH  23  30
ATOM     29  C   LIG    1        1.962   2.357   3.574  0.00  0.00    +0.240 C 
ATOM     30  O   LIG    1        1.257   2.002   2.383  0.00  0.00    -0.300 OA
ENDBRANCH  23  30
BRANCH  28  31
ATOM     31  O   LIG    1        0.009   1.377   0.010  0.00  0.00    -0.320 OA
ATOM     32  C   LIG    1        0.030  -0.051  -0.008  0.00  0.00    +0.230 C 
ENDBRANCH  28  31
ENDBRANCH  18  27
ENDBRANCH   1  20
TORSDOF 6
