REMARK  Name = ZINCvU00000008V3.0
REMARK                            x       y       z     vdW  Elec       q    Type
REMARK                         _______ _______ _______ _____ _____    ______ ____
ROOT
ATOM      1  O   LIG    1        2.911   1.210  -4.113  0.00  0.00    -0.530 OA
ATOM      2  C   LIG    1        3.069   2.212  -3.443  0.00  0.00    +0.570 C 
ATOM      3  N   LIG    1        2.994   2.143  -2.099  0.00  0.00    -0.720 N 
ATOM      4  H   LIG    1        3.119   2.942  -1.565  0.00  0.00    +0.400 HD
ENDROOT
BRANCH   2   5
ATOM      5  C   LIG    1        3.342   3.504  -4.101  0.00  0.00    -0.150 A 
ATOM      6  C   LIG    1        3.518   4.658  -3.333  0.00  0.00    +0.070 A 
ATOM      7  C   LIG    1        3.778   5.861  -3.950  0.00  0.00    +0.010 A 
ATOM      8  C   LIG    1        3.855   5.931  -5.338  0.00  0.00    +0.170 A 
ATOM      9  C   LIG    1        3.676   4.785  -6.106  0.00  0.00    -0.010 A 
ATOM     10  C   LIG    1        3.421   3.578  -5.495  0.00  0.00    +0.100 A 
BRANCH   8  11
ATOM     11  N   LIG    1        4.113   7.151  -5.959  0.00  0.00    -0.660 N 
ATOM     12  H   LIG    1        3.717   7.349  -6.822  0.00  0.00    +0.420 HD
ATOM     13  C   LIG    1        4.913   8.056  -5.361  0.00  0.00    +0.610 C 
ATOM     14  O   LIG    1        5.487   7.771  -4.326  0.00  0.00    -0.490 OA
BRANCH  13  15
ATOM     15  C   LIG    1        5.093   9.383  -5.957  0.00  0.00    -0.090 A 
ATOM     16  C   LIG    1        5.871  10.389  -5.458  0.00  0.00    +0.050 A 
ATOM     17  C   LIG    1        5.748  11.470  -6.344  0.00  0.00    -0.070 A 
ATOM     18  C   LIG    1        4.912  11.083  -7.332  0.00  0.00    +0.220 A 
ATOM     19  O   LIG    1        4.524   9.823  -7.099  0.00  0.00    -0.170 OA
ENDBRANCH  13  15
ENDBRANCH   8  11
ENDBRANCH   2   5
BRANCH   3  20
ATOM     20  C   LIG    1        2.722   0.860  -1.446  0.00  0.00    +0.300 C 
BRANCH  20  21
ATOM     21  C   LIG    1        4.013   0.104  -1.268  0.00  0.00    -0.100 A 
ATOM     22  C   LIG    1        5.163   0.776  -0.900  0.00  0.00    +0.020 A 
ATOM     23  C   LIG    1        6.347   0.082  -0.732  0.00  0.00    +0.000 A 
ATOM     24  C   LIG    1        6.382  -1.284  -0.943  0.00  0.00    +0.000 A 
ATOM     25  C   LIG    1        5.233  -1.956  -1.316  0.00  0.00    +0.000 A 
ATOM     26  C   LIG    1        4.049  -1.262  -1.479  0.00  0.00    +0.020 A 
ENDBRANCH  20  21
BRANCH  20  27
ATOM     27  C   LIG    1        2.085   1.110  -0.077  0.00  0.00    +0.090 C 
BRANCH  27  28
ATOM     28  C   LIG    1        0.736   1.757  -0.262  0.00  0.00    -0.080 A 
ATOM     29  C   LIG    1       -0.395   0.972  -0.388  0.00  0.00    +0.010 A 
ATOM     30  C   LIG    1       -1.631   1.566  -0.563  0.00  0.00    +0.000 A 
ATOM     31  C   LIG    1       -1.738   2.943  -0.601  0.00  0.00    +0.000 A 
ATOM     32  C   LIG    1       -0.606   3.728  -0.475  0.00  0.00    +0.000 A 
ATOM     33  C   LIG    1        0.631   3.134  -0.305  0.00  0.00    +0.010 A 
ENDBRANCH  27  28
ENDBRANCH  20  27
ENDBRANCH   3  20
TORSDOF 7
