REMARK  Name = ZINCpk00000e979U.0
REMARK                            x       y       z     vdW  Elec       q    Type
REMARK                         _______ _______ _______ _____ _____    ______ ____
ROOT
ATOM      1  C   LIG    1       -3.741  -1.650  -3.494  0.00  0.00    +0.240 C 
ENDROOT
BRANCH   1   2
ATOM      2  C   LIG    1       -4.636  -2.860  -3.415  0.00  0.00    +0.510 C 
ATOM      3  N   LIG    1       -5.224  -3.337  -4.530  0.00  0.00    -0.730 N 
ATOM      4  H   LIG    1       -5.130  -2.861  -5.370  0.00  0.00    +0.400 HD
ATOM      5  O   LIG    1       -4.828  -3.404  -2.348  0.00  0.00    -0.530 OA
BRANCH   3   6
ATOM      6  C   LIG    1       -6.005  -4.575  -4.473  0.00  0.00    +0.260 C 
BRANCH   6   7
ATOM      7  C   LIG    1       -6.560  -4.892  -5.864  0.00  0.00    +0.110 C 
BRANCH   7   8
ATOM      8  C   LIG    1       -7.363  -6.166  -5.806  0.00  0.00    -0.240 A 
ATOM      9  C   LIG    1       -6.888  -7.417  -6.008  0.00  0.00    +0.230 A 
ATOM     10  N   LIG    1       -7.919  -8.276  -5.865  0.00  0.00    -0.370 N 
ATOM     11  N   LIG    1       -9.067  -7.528  -5.575  0.00  0.00    -0.300 NA
ATOM     12  C   LIG    1       -7.850  -9.733  -5.997  0.00  0.00    +0.360 C 
ATOM     13  C   LIG    1       -8.733  -6.263  -5.540  0.00  0.00    +0.240 A 
ENDBRANCH   7   8
ENDBRANCH   6   7
ENDBRANCH   3   6
ENDBRANCH   1   2
BRANCH   1  14
ATOM     14  N   LIG    1       -2.905  -1.582  -2.293  0.00  0.00    -0.710 N 
ATOM     15  H   LIG    1       -3.204  -2.000  -1.470  0.00  0.00    +0.410 HD
ATOM     16  C   LIG    1       -1.722  -0.938  -2.331  0.00  0.00    +0.520 C 
ATOM     17  O   LIG    1       -1.349  -0.415  -3.359  0.00  0.00    -0.520 OA
BRANCH  16  18
ATOM     18  C   LIG    1       -0.862  -0.868  -1.095  0.00  0.00    +0.100 C 
BRANCH  18  19
ATOM     19  C   LIG    1        0.397  -0.099  -1.402  0.00  0.00    -0.070 A 
ATOM     20  C   LIG    1        0.431   1.272  -1.223  0.00  0.00    +0.020 A 
ATOM     21  C   LIG    1        1.586   1.977  -1.504  0.00  0.00    +0.000 A 
ATOM     22  C   LIG    1        2.706   1.313  -1.966  0.00  0.00    +0.000 A 
ATOM     23  C   LIG    1        2.672  -0.058  -2.145  0.00  0.00    +0.000 A 
ATOM     24  C   LIG    1        1.518  -0.763  -1.863  0.00  0.00    +0.010 A 
ENDBRANCH  18  19
ENDBRANCH  16  18
ENDBRANCH   1  14
BRANCH   1  26
ATOM     25  C   LIG    1       -5.404  -0.216  -2.301  0.00  0.00    +0.030 C 
ATOM     26  C   LIG    1       -4.598  -0.387  -3.591  0.00  0.00    -0.020 C 
ATOM     27  C   LIG    1       -3.693   0.830  -3.791  0.00  0.00    +0.040 C 
ENDBRANCH   1  26
TORSDOF 8
