REMARK  Name = ZINCpk00000RjLiv.0
REMARK                            x       y       z     vdW  Elec       q    Type
REMARK                         _______ _______ _______ _____ _____    ______ ____
ROOT
ATOM      1  C   LIG    1       -0.518  -3.239   3.495  0.00  0.00    +0.080 C 
ATOM      2  C   LIG    1        0.167  -2.026   2.861  0.00  0.00    +0.150 C 
ATOM      3  O   LIG    1       -0.312  -1.853   1.527  0.00  0.00    -0.350 OA
ATOM      4  C   LIG    1       -0.754  -0.529   1.226  0.00  0.00    +0.200 C 
ATOM      5  C   LIG    1        0.002  -0.004   0.002  0.00  0.00    +0.030 C 
ATOM      6  C   LIG    1       -0.018   1.502   0.010  0.00  0.00    -0.040 C 
ATOM      7  C   LIG    1        1.093   2.191   0.003  0.00  0.00    -0.030 C 
ATOM      8  C   LIG    1        2.431   1.500  -0.014  0.00  0.00    +0.210 C 
ATOM      9  O   LIG    1        3.463   2.453   0.249  0.00  0.00    -0.360 OA
ATOM     10  C   LIG    1        4.695   1.873   0.681  0.00  0.00    +0.250 C 
ATOM     11  C   LIG    1        4.536   1.342   2.083  0.00  0.00    +0.480 C 
ATOM     12  N   LIG    1        4.784   0.039   2.337  0.00  0.00    -0.730 N 
ATOM     13  H   LIG    1        5.064  -0.554   1.621  0.00  0.00    +0.410 HD
ATOM     14  C   LIG    1        4.628  -0.474   3.702  0.00  0.00    +0.290 C 
ATOM     15  C   LIG    1        3.899  -1.820   3.657  0.00  0.00    +0.290 C 
ATOM     16  N   LIG    1        2.447  -1.579   3.708  0.00  0.00    -0.730 N 
ATOM     17  H   LIG    1        2.066  -0.956   4.349  0.00  0.00    +0.410 HD
ATOM     18  O   LIG    1        4.187   2.083   2.976  0.00  0.00    -0.520 OA
ATOM     19  C   LIG    1        1.658  -2.251   2.833  0.00  0.00    +0.500 C 
ATOM     20  O   LIG    1        2.140  -3.026   2.035  0.00  0.00    -0.510 OA
ENDROOT
BRANCH  15  21
ATOM     21  C   LIG    1        4.313  -2.655   4.842  0.00  0.00    -0.130 A 
ATOM     22  C   LIG    1        3.501  -2.723   5.957  0.00  0.00    +0.050 A 
ATOM     23  C   LIG    1        3.881  -3.489   7.044  0.00  0.00    +0.000 A 
ATOM     24  C   LIG    1        5.074  -4.186   7.016  0.00  0.00    +0.050 A 
ATOM     25  C   LIG    1        5.888  -4.120   5.901  0.00  0.00    -0.010 A 
ATOM     26  C   LIG    1        5.506  -3.358   4.810  0.00  0.00    +0.110 A 
ATOM     27  F   LIG    1        6.298  -3.297   3.717  0.00  0.00    -0.130 F 
ENDBRANCH  15  21
TORSDOF 1
