REMARK  Name = ZINCrD000003AVQF.0
REMARK                            x       y       z     vdW  Elec       q    Type
REMARK                         _______ _______ _______ _____ _____    ______ ____
ROOT
ATOM      1  C   LIG    1       -7.404   2.331   1.503  0.00  0.00    +0.050 C 
ATOM      2  C   LIG    1       -6.923   2.143   0.063  0.00  0.00    +0.230 C 
ENDROOT
BRANCH   2   3
ATOM      3  N   LIG    1       -5.476   1.913   0.058  0.00  0.00    -0.730 N 
ATOM      4  H   LIG    1       -5.129   1.007   0.047  0.00  0.00    +0.400 HD
ATOM      5  C   LIG    1       -4.627   2.959   0.068  0.00  0.00    +0.590 C 
ATOM      6  O   LIG    1       -5.062   4.096   0.081  0.00  0.00    -0.510 OA
BRANCH   5   7
ATOM      7  C   LIG    1       -3.181   2.729   0.063  0.00  0.00    -0.010 A 
ATOM      8  C   LIG    1       -2.211   3.704   0.082  0.00  0.00    +0.100 A 
ATOM      9  C   LIG    1       -0.961   3.059   0.067  0.00  0.00    -0.220 A 
ATOM     10  C   LIG    1       -1.183   1.695   0.048  0.00  0.00    +0.080 A 
ATOM     11  C   LIG    1       -0.000   0.949   0.037  0.00  0.00    +0.020 A 
ATOM     12  C   LIG    1        1.125   1.655   0.038  0.00  0.00    +0.000 A 
ATOM     13  S   LIG    1        0.771   3.374   0.059  0.00  0.00    +0.140 S 
ATOM     14  N   LIG    1       -2.559   1.498   0.048  0.00  0.00    -0.540 N 
ATOM     15  H   LIG    1       -3.008   0.638   0.039  0.00  0.00    +0.420 HD
ENDBRANCH   5   7
ENDBRANCH   2   3
BRANCH   2  16
ATOM     16  C   LIG    1       -7.633   0.939  -0.559  0.00  0.00    +0.280 C 
BRANCH  16  17
ATOM     17  N   LIG    1       -7.086   0.685  -1.894  0.00  0.00    -0.730 N 
ATOM     18  H   LIG    1       -6.381   1.252  -2.245  0.00  0.00    +0.400 HD
ATOM     19  C   LIG    1       -7.564  -0.334  -2.635  0.00  0.00    +0.570 C 
ATOM     20  O   LIG    1       -8.447  -1.044  -2.196  0.00  0.00    -0.530 OA
BRANCH  19  21
ATOM     21  C   LIG    1       -7.013  -0.589  -3.981  0.00  0.00    -0.120 A 
ATOM     22  C   LIG    1       -6.094   0.286  -4.540  0.00  0.00    +0.060 A 
ATOM     23  C   LIG    1       -5.568   0.045  -5.804  0.00  0.00    +0.020 A 
ATOM     24  C   LIG    1       -5.947  -1.042  -6.531  0.00  0.00    +0.080 A 
ATOM     25  C   LIG    1       -6.883  -1.954  -6.007  0.00  0.00    +0.120 A 
ATOM     26  N   LIG    1       -7.265  -3.025  -6.707  0.00  0.00    -0.480 NA
ATOM     27  C   LIG    1       -8.136  -3.879  -6.227  0.00  0.00    +0.300 A 
ATOM     28  C   LIG    1       -8.704  -3.714  -4.966  0.00  0.00    -0.030 A 
ATOM     29  C   LIG    1       -8.355  -2.638  -4.198  0.00  0.00    +0.110 A 
ATOM     30  C   LIG    1       -7.422  -1.727  -4.718  0.00  0.00    -0.070 A 
ENDBRANCH  19  21
ENDBRANCH  16  17
ENDBRANCH   2  16
TORSDOF 5
