REMARK  Name = ZINCvU00000005BV.0
REMARK                            x       y       z     vdW  Elec       q    Type
REMARK                         _______ _______ _______ _____ _____    ______ ____
ROOT
ATOM      1  C   LIG    1       -3.294   2.514   0.044  0.00  0.00    +0.290 A 
ATOM      2  N   LIG    1       -2.536   3.570   0.028  0.00  0.00    -0.480 NA
ATOM      3  C   LIG    1       -1.231   3.195   0.011  0.00  0.00    +0.050 A 
ATOM      4  C   LIG    1       -0.025   3.901  -0.010  0.00  0.00    +0.070 A 
ATOM      5  C   LIG    1        1.161   3.223  -0.025  0.00  0.00    +0.000 A 
ATOM      6  C   LIG    1        1.183   1.836  -0.019  0.00  0.00    +0.030 A 
ATOM      7  C   LIG    1        0.006   1.118   0.001  0.00  0.00    +0.010 A 
ATOM      8  C   LIG    1       -1.209   1.790   0.010  0.00  0.00    +0.060 A 
ATOM      9  N   LIG    1       -2.530   1.388   0.038  0.00  0.00    -0.480 N 
ENDROOT
BRANCH   1  12
ATOM     10  N   LIG    1       -6.526   4.028   0.801  0.00  0.00    -0.550 N 
ATOM     11  C   LIG    1       -5.325   3.333   1.280  0.00  0.00    +0.300 C 
ATOM     12  C   LIG    1       -4.801   2.533   0.067  0.00  0.00    +0.090 C 
ATOM     13  C   LIG    1       -5.362   3.352  -1.118  0.00  0.00    +0.090 C 
ATOM     14  C   LIG    1       -6.570   4.058  -0.543  0.00  0.00    +0.520 C 
ATOM     15  O   LIG    1       -7.449   4.577  -1.198  0.00  0.00    -0.510 OA
BRANCH  10  19
ATOM     16  C   LIG    1       -9.430   5.694   3.287  0.00  0.00    +0.110 A 
ATOM     17  C   LIG    1       -8.391   4.954   3.833  0.00  0.00    +0.020 A 
ATOM     18  C   LIG    1       -7.429   4.402   3.010  0.00  0.00    +0.010 A 
ATOM     19  C   LIG    1       -7.502   4.588   1.636  0.00  0.00    +0.130 A 
ATOM     20  C   LIG    1       -8.539   5.333   1.091  0.00  0.00    +0.050 A 
ATOM     21  C   LIG    1       -9.503   5.880   1.914  0.00  0.00    -0.050 A 
BRANCH  16  22
ATOM     22  O   LIG    1      -10.376   6.238   4.098  0.00  0.00    -0.320 OA
BRANCH  22  24
ATOM     23  C   LIG    1      -12.380   7.517   4.532  0.00  0.00    +0.070 C 
ATOM     24  C   LIG    1      -11.417   6.988   3.468  0.00  0.00    +0.170 C 
ENDBRANCH  22  24
ENDBRANCH  16  22
ENDBRANCH  10  19
ENDBRANCH   1  12
BRANCH   9  25
ATOM     25  C   LIG    1       -3.017   0.007   0.051  0.00  0.00    +0.350 C 
BRANCH  25  26
ATOM     26  C   LIG    1       -3.205  -0.473  -1.365  0.00  0.00    -0.120 A 
ATOM     27  C   LIG    1       -4.422  -0.299  -1.998  0.00  0.00    +0.020 A 
ATOM     28  C   LIG    1       -4.594  -0.735  -3.299  0.00  0.00    +0.010 A 
ATOM     29  C   LIG    1       -3.551  -1.353  -3.963  0.00  0.00    +0.020 A 
ATOM     30  C   LIG    1       -2.336  -1.532  -3.329  0.00  0.00    +0.010 A 
ATOM     31  C   LIG    1       -2.163  -1.091  -2.030  0.00  0.00    +0.020 A 
ENDBRANCH  25  26
ENDBRANCH   9  25
TORSDOF 6
