REMARK  Name = ZINCAx0000000fTr.0
REMARK                            x       y       z     vdW  Elec       q    Type
REMARK                         _______ _______ _______ _____ _____    ______ ____
ROOT
ATOM      1  N   LIG    1        1.405   1.924  -0.001  0.00  0.00    -0.600 N 
ATOM      2  C   LIG    1        2.200   0.814  -0.549  0.00  0.00    +0.270 C 
ATOM      3  C   LIG    1        1.221  -0.338  -0.874  0.00  0.00    +0.060 C 
ATOM      4  C   LIG    1        0.002  -0.004   0.002  0.00  0.00    -0.100 C 
ATOM      5  C   LIG    1       -1.303  -0.698  -0.367  0.00  0.00    +0.050 C 
ATOM      6  C   LIG    1       -0.923  -1.767   0.675  0.00  0.00    +0.230 C 
ATOM      7  C   LIG    1       -0.060  -0.690   1.361  0.00  0.00    +0.050 C 
ATOM      8  C   LIG    1       -0.019   1.531   0.011  0.00  0.00    +0.300 C 
ENDROOT
BRANCH   1  12
ATOM      9  C   LIG    1        2.879   5.580   1.308  0.00  0.00    -0.210 A 
ATOM     10  C   LIG    1        1.510   5.311   1.364  0.00  0.00    +0.240 A 
ATOM     11  C   LIG    1        1.039   4.083   0.921  0.00  0.00    -0.130 A 
ATOM     12  C   LIG    1        1.905   3.131   0.429  0.00  0.00    +0.510 A 
ATOM     13  N   LIG    1        3.247   3.357   0.366  0.00  0.00    -0.340 N 
ATOM     14  N   LIG    1        4.331   2.589  -0.085  0.00  0.00    -0.350 NA
ATOM     15  C   LIG    1        5.410   3.313   0.080  0.00  0.00    +0.480 A 
ATOM     16  N   LIG    1        5.082   4.491   0.599  0.00  0.00    -0.530 NA
ATOM     17  C   LIG    1        3.773   4.548   0.781  0.00  0.00    +0.360 A 
BRANCH   9  18
ATOM     18  C   LIG    1        3.410   6.867   1.768  0.00  0.00    +0.530 C 
ATOM     19  O   LIG    1        2.655   7.715   2.204  0.00  0.00    -0.520 OA
BRANCH  18  21
ATOM     20  C   LIG    1        5.189   8.407   2.180  0.00  0.00    +0.260 C 
ATOM     21  O   LIG    1        4.735   7.111   1.708  0.00  0.00    -0.330 OA
ENDBRANCH  18  21
ENDBRANCH   9  18
ENDBRANCH   1  12
BRANCH   6  22
ATOM     22  N   LIG    1       -0.144  -2.876   0.120  0.00  0.00    -0.710 N 
ATOM     23  H   LIG    1        0.784  -2.740  -0.129  0.00  0.00    +0.400 HD
ATOM     24  C   LIG    1       -0.716  -4.085  -0.046  0.00  0.00    +0.520 C 
ATOM     25  O   LIG    1       -1.876  -4.254   0.266  0.00  0.00    -0.530 OA
BRANCH  24  26
ATOM     26  C   LIG    1        0.085  -5.226  -0.617  0.00  0.00    +0.040 C 
BRANCH  26  27
ATOM     27  C   LIG    1       -0.794  -6.476  -0.699  0.00  0.00    +0.330 C 
BRANCH  27  28
ATOM     28  N   LIG    1       -0.015  -7.585  -1.255  0.00  0.00    -0.490 N 
ATOM     29  C   LIG    1        0.738  -8.495  -0.540  0.00  0.00    +0.050 A 
ATOM     30  C   LIG    1        1.006  -8.680   0.809  0.00  0.00    +0.010 A 
ATOM     31  C   LIG    1        1.823  -9.717   1.207  0.00  0.00    +0.030 A 
ATOM     32  C   LIG    1        2.377 -10.575   0.269  0.00  0.00    +0.000 A 
ATOM     33  C   LIG    1        2.124 -10.409  -1.064  0.00  0.00    +0.070 A 
ATOM     34  C   LIG    1        1.299  -9.366  -1.490  0.00  0.00    +0.050 A 
ATOM     35  N   LIG    1        0.869  -8.950  -2.709  0.00  0.00    -0.490 NA
ATOM     36  C   LIG    1        0.096  -7.913  -2.571  0.00  0.00    +0.280 A 
ATOM     37  C   LIG    1       -0.575  -7.178  -3.703  0.00  0.00    +0.190 C 
ENDBRANCH  27  28
ENDBRANCH  26  27
ENDBRANCH  24  26
ENDBRANCH   6  22
TORSDOF 7
