REMARK  Name = ZINCpk00000y6tIl.0
REMARK                            x       y       z     vdW  Elec       q    Type
REMARK                         _______ _______ _______ _____ _____    ______ ____
ROOT
ATOM      1  C   LIG    1        2.069   0.878  -0.964  0.00  0.00    +0.200 C 
ATOM      2  C   LIG    1        1.407   1.892   0.003  0.00  0.00    +0.190 C 
ATOM      3  N   LIG    1       -0.018   1.475   0.010  0.00  0.00    -0.470 N 
ATOM      4  C   LIG    1       -0.005  -0.004  -0.002  0.00  0.00    +0.180 C 
ATOM      5  C   LIG    1        1.325  -0.439  -0.646  0.00  0.00    +0.180 C 
ENDROOT
BRANCH   3   6
ATOM      6  C   LIG    1       -0.668   1.954   1.128  0.00  0.00    +0.210 A 
ATOM      7  C   LIG    1       -0.212   1.648   2.418  0.00  0.00    -0.130 A 
ATOM      8  C   LIG    1       -0.900   2.159   3.530  0.00  0.00    +0.360 A 
ATOM      9  N   LIG    1       -1.964   2.909   3.393  0.00  0.00    -0.470 NA
ATOM     10  C   LIG    1       -2.453   3.235   2.188  0.00  0.00    +0.150 A 
ATOM     11  C   LIG    1       -3.597   4.041   2.072  0.00  0.00    +0.040 A 
ATOM     12  C   LIG    1       -4.079   4.359   0.838  0.00  0.00    +0.060 A 
ATOM     13  C   LIG    1       -3.454   3.897  -0.317  0.00  0.00    +0.010 A 
ATOM     14  C   LIG    1       -2.342   3.113  -0.242  0.00  0.00    +0.070 A 
ATOM     15  C   LIG    1       -1.821   2.767   1.012  0.00  0.00    -0.090 A 
BRANCH   7  16
ATOM     16  C   LIG    1        0.946   0.825   2.600  0.00  0.00    +0.240 C 
ATOM     17  N   LIG    1        1.865   0.173   2.745  0.00  0.00    -0.380 NA
ENDBRANCH   7  16
ENDBRANCH   3   6
BRANCH   5  18
ATOM     18  O   LIG    1        1.078  -1.174  -1.846  0.00  0.00    -0.550 OA
ATOM     19  H   LIG    1        0.576  -1.989  -1.712  0.00  0.00    +0.390 HD
ENDBRANCH   5  18
BRANCH   1  20
ATOM     20  O   LIG    1        3.465   0.750  -0.685  0.00  0.00    -0.290 OA
BRANCH  20  24
ATOM     21  C   LIG    1        7.548   2.719  -2.500  0.00  0.00    +0.370 C 
ATOM     22  N   LIG    1        6.141   2.387  -2.264  0.00  0.00    -0.370 N 
ATOM     23  C   LIG    1        5.668   1.521  -1.330  0.00  0.00    +0.210 A 
ATOM     24  C   LIG    1        4.317   1.496  -1.441  0.00  0.00    -0.030 A 
ATOM     25  C   LIG    1        3.953   2.378  -2.467  0.00  0.00    +0.190 A 
ATOM     26  N   LIG    1        5.043   2.911  -2.959  0.00  0.00    -0.270 NA
ENDBRANCH  20  24
ENDBRANCH   1  20
TORSDOF 5
