REMARK  Name = ZINCvU0000000BlF.0
REMARK                            x       y       z     vdW  Elec       q    Type
REMARK                         _______ _______ _______ _____ _____    ______ ____
ROOT
ATOM      1  N   LIG    1        4.707  -4.181   0.245  0.00  0.00    -0.970 NA
ENDROOT
BRANCH   1   2
ATOM      2  S   LIG    1        4.740  -5.115  -1.122  0.00  0.00    +2.690 S 
ATOM      3  O   LIG    1        4.474  -4.242  -2.211  0.00  0.00    -0.940 OA
ATOM      4  O   LIG    1        3.957  -6.267  -0.840  0.00  0.00    -0.930 OA
BRANCH   2   5
ATOM      5  C   LIG    1        6.397  -5.678  -1.329  0.00  0.00    -0.670 A 
ATOM      6  C   LIG    1        7.292  -4.932  -2.072  0.00  0.00    +0.130 A 
ATOM      7  C   LIG    1        8.594  -5.370  -2.231  0.00  0.00    +0.030 A 
ATOM      8  C   LIG    1        8.997  -6.560  -1.656  0.00  0.00    +0.090 A 
ATOM      9  C   LIG    1        8.100  -7.311  -0.917  0.00  0.00    -0.060 A 
ATOM     10 CL   LIG    1        8.606  -8.806  -0.194  0.00  0.00    -0.050 Cl
ATOM     11  C   LIG    1        6.799  -6.869  -0.754  0.00  0.00    +0.140 A 
ENDBRANCH   2   5
ENDBRANCH   1   2
BRANCH   1  12
ATOM     12  C   LIG    1        4.955  -2.740   0.154  0.00  0.00    +0.350 C 
BRANCH  12  14
ATOM     13  O   LIG    1        2.599  -2.632   0.064  0.00  0.00    -0.480 OA
ATOM     14  C   LIG    1        3.640  -2.010   0.057  0.00  0.00    +0.500 C 
ATOM     15  N   LIG    1        3.622  -0.665  -0.037  0.00  0.00    -0.670 N 
ATOM     16  H   LIG    1        4.454  -0.173  -0.108  0.00  0.00    +0.410 HD
BRANCH  15  17
ATOM     17  C   LIG    1        2.399   0.020  -0.032  0.00  0.00    +0.180 A 
ATOM     18  C   LIG    1        1.283  -0.544  -0.628  0.00  0.00    +0.050 A 
ATOM     19  C   LIG    1        0.078   0.134  -0.623  0.00  0.00    +0.040 A 
ATOM     20  C   LIG    1       -0.018   1.377  -0.024  0.00  0.00    +0.020 A 
ATOM     21  C   LIG    1        1.090   1.948   0.574  0.00  0.00    +0.030 A 
ATOM     22  C   LIG    1        2.303   1.274   0.573  0.00  0.00    -0.120 A 
BRANCH  22  23
ATOM     23  S   LIG    1        3.717   2.000   1.333  0.00  0.00    -0.100 S 
BRANCH  23  24
ATOM     24  C   LIG    1        3.081   3.582   1.952  0.00  0.00    +0.440 C 
ATOM     25  F   LIG    1        2.045   3.344   2.861  0.00  0.00    -0.180 F 
ATOM     26  F   LIG    1        2.597   4.341   0.881  0.00  0.00    -0.180 F 
ENDBRANCH  23  24
ENDBRANCH  22  23
ENDBRANCH  15  17
ENDBRANCH  12  14
ENDBRANCH   1  12
BRANCH   1  27
ATOM     27  C   LIG    1        4.431  -4.796   1.546  0.00  0.00    +0.430 C 
BRANCH  27  28
ATOM     28  C   LIG    1        2.962  -4.670   1.859  0.00  0.00    -0.040 A 
ATOM     29  C   LIG    1        2.008  -5.558   1.526  0.00  0.00    -0.030 A 
ATOM     30  C   LIG    1        0.783  -5.046   2.014  0.00  0.00    -0.080 A 
ATOM     31  C   LIG    1        1.062  -3.873   2.609  0.00  0.00    +0.170 A 
ATOM     32  O   LIG    1        2.382  -3.650   2.512  0.00  0.00    -0.170 OA
ENDBRANCH  27  28
ENDBRANCH   1  27
TORSDOF 9
