REMARK  Name = ZINCqH0000032csk.0
REMARK                            x       y       z     vdW  Elec       q    Type
REMARK                         _______ _______ _______ _____ _____    ______ ____
ROOT
ATOM      1  N   LIG    1        7.446   1.093   0.902  0.00  0.00    -0.730 N 
ATOM      2  H   LIG    1        8.087   0.956   1.617  0.00  0.00    +0.400 HD
ATOM      3  C   LIG    1        6.637   2.171   0.920  0.00  0.00    +0.700 C 
ATOM      4  N   LIG    1        6.718   3.058   1.931  0.00  0.00    -0.680 N 
ATOM      5  H   LIG    1        7.412   2.965   2.603  0.00  0.00    +0.410 HD
ATOM      6  O   LIG    1        5.833   2.342   0.024  0.00  0.00    -0.560 OA
ENDROOT
BRANCH   4   7
ATOM      7  C   LIG    1        5.803   4.109   2.013  0.00  0.00    +0.170 A 
ATOM      8  C   LIG    1        4.586   4.023   1.372  0.00  0.00    +0.010 A 
ATOM      9  C   LIG    1        3.667   5.066   1.447  0.00  0.00    +0.040 A 
ATOM     10  C   LIG    1        3.942   6.197   2.153  0.00  0.00    +0.000 A 
ATOM     11  C   LIG    1        5.172   6.324   2.821  0.00  0.00    -0.030 A 
ATOM     12  C   LIG    1        5.484   7.480   3.557  0.00  0.00    +0.030 A 
ATOM     13  C   LIG    1        6.685   7.570   4.193  0.00  0.00    +0.000 A 
ATOM     14  C   LIG    1        7.612   6.533   4.125  0.00  0.00    +0.000 A 
ATOM     15  C   LIG    1        7.343   5.399   3.420  0.00  0.00    +0.010 A 
ATOM     16  C   LIG    1        6.116   5.270   2.752  0.00  0.00    -0.070 A 
ENDBRANCH   4   7
BRANCH   1  17
ATOM     17  C   LIG    1        7.358   0.129  -0.198  0.00  0.00    +0.240 C 
BRANCH  17  18
ATOM     18  C   LIG    1        8.296  -1.047   0.079  0.00  0.00    +0.170 C 
BRANCH  18  19
ATOM     19  N   LIG    1        8.090  -2.088  -0.937  0.00  0.00    -0.520 NA
ATOM     20  C   LIG    1        8.221  -1.534  -2.292  0.00  0.00    +0.150 C 
ATOM     21  C   LIG    1        8.058  -2.660  -3.316  0.00  0.00    +0.220 C 
ATOM     22  O   LIG    1        6.797  -3.304  -3.113  0.00  0.00    -0.380 OA
ATOM     23  C   LIG    1        6.636  -3.856  -1.804  0.00  0.00    +0.220 C 
ATOM     24  C   LIG    1        6.784  -2.741  -0.765  0.00  0.00    +0.150 C 
ENDBRANCH  18  19
BRANCH  18  25
ATOM     25  C   LIG    1        9.748  -0.565   0.028  0.00  0.00    +0.030 C 
BRANCH  25  27
ATOM     26  C   LIG    1       12.136  -1.276   0.212  0.00  0.00    +0.000 C 
ATOM     27  C   LIG    1       10.682  -1.721   0.390  0.00  0.00    -0.010 C 
ATOM     28  C   LIG    1       10.448  -2.129   1.846  0.00  0.00    +0.000 C 
ENDBRANCH  25  27
ENDBRANCH  18  25
ENDBRANCH  17  18
ENDBRANCH   1  17
TORSDOF 6
