REMARK  Name = ZINCrH000004stYM.0
REMARK                            x       y       z     vdW  Elec       q    Type
REMARK                         _______ _______ _______ _____ _____    ______ ____
ROOT
ATOM      1  N   LIG    1       -5.381   1.598  -2.356  0.00  0.00    -0.670 N 
ATOM      2  H   LIG    1       -5.740   1.296  -1.507  0.00  0.00    +0.410 HD
ATOM      3  C   LIG    1       -4.058   1.821  -2.488  0.00  0.00    +0.720 C 
ATOM      4  N   LIG    1       -3.250   1.737  -1.412  0.00  0.00    -0.630 N 
ATOM      5  C   LIG    1       -3.678   1.411  -0.040  0.00  0.00    +0.260 C 
ATOM      6  C   LIG    1       -2.412   0.840   0.646  0.00  0.00    +0.040 C 
ATOM      7  C   LIG    1       -1.298   1.727   0.029  0.00  0.00    +0.240 C 
ATOM      8  C   LIG    1       -1.796   1.955  -1.413  0.00  0.00    +0.260 C 
ATOM      9  O   LIG    1       -3.594   2.099  -3.577  0.00  0.00    -0.570 OA
ENDROOT
BRANCH   1  16
ATOM     10  C   LIG    1       -7.839   0.171  -2.428  0.00  0.00    +0.130 C 
ATOM     11  C   LIG    1       -7.447   1.128  -3.525  0.00  0.00    +0.120 A 
ATOM     12  N   LIG    1       -8.262   1.319  -4.545  0.00  0.00    -0.500 NA
ATOM     13  C   LIG    1       -7.957   2.145  -5.533  0.00  0.00    +0.290 A 
ATOM     14  C   LIG    1       -6.759   2.851  -5.526  0.00  0.00    -0.020 A 
ATOM     15  C   LIG    1       -5.883   2.680  -4.469  0.00  0.00    +0.100 A 
ATOM     16  C   LIG    1       -6.238   1.802  -3.447  0.00  0.00    +0.090 A 
BRANCH  13  17
ATOM     17  N   LIG    1       -8.846   2.309  -6.592  0.00  0.00    -0.460 N 
ATOM     18  C   LIG    1       -8.238   1.864  -7.872  0.00  0.00    +0.180 C 
ATOM     19  C   LIG    1       -9.467   1.617  -8.782  0.00  0.00    +0.040 C 
ATOM     20  C   LIG    1      -10.504   1.016  -7.806  0.00  0.00    +0.010 C 
ATOM     21  C   LIG    1      -10.052   1.473  -6.407  0.00  0.00    +0.200 C 
ENDBRANCH  13  17
ENDBRANCH   1  16
BRANCH   7  22
ATOM     22  N   LIG    1       -0.014   1.021   0.028  0.00  0.00    -0.740 N 
ATOM     23  H   LIG    1        0.006   0.051   0.030  0.00  0.00    +0.400 HD
BRANCH  22  24
ATOM     24  C   LIG    1        1.181   1.744   0.019  0.00  0.00    +0.210 A 
ATOM     25  C   LIG    1        1.154   3.133   0.011  0.00  0.00    -0.080 A 
ATOM     26  C   LIG    1        2.337   3.845   0.007  0.00  0.00    +0.050 A 
ATOM     27  C   LIG    1        3.548   3.177   0.000  0.00  0.00    -0.060 A 
ATOM     28  C   LIG    1        3.578   1.795   0.003  0.00  0.00    +0.050 A 
ATOM     29  C   LIG    1        2.399   1.077   0.012  0.00  0.00    -0.070 A 
ENDBRANCH  22  24
ENDBRANCH   7  22
TORSDOF 4
