REMARK  Name = ZINCnE000001G2LG.1
REMARK                            x       y       z     vdW  Elec       q    Type
REMARK                         _______ _______ _______ _____ _____    ______ ____
ROOT
ATOM      1  N   LIG    1        0.090  -5.484   1.774  0.00  0.00    -0.620 N 
ATOM      2  C   LIG    1        0.069  -4.400   0.972  0.00  0.00    +0.660 C 
ATOM      3  N   LIG    1        0.058  -3.164   1.510  0.00  0.00    -0.670 NA
ATOM      4  O   LIG    1        0.059  -4.538  -0.236  0.00  0.00    -0.660 OA
ENDROOT
BRANCH   3   5
ATOM      5  C   LIG    1        0.035  -2.050   0.685  0.00  0.00    +0.480 A 
ATOM      6  N   LIG    1        0.023  -0.803   1.085  0.00  0.00    -0.570 NA
ATOM      7  C   LIG    1        0.002  -0.004   0.002  0.00  0.00    +0.000 A 
ATOM      8  C   LIG    1       -0.003  -0.789  -1.086  0.00  0.00    -0.160 A 
ATOM      9  C   LIG    1       -0.029  -0.328  -2.521  0.00  0.00    +0.150 C 
ATOM     10  C   LIG    1       -0.018   1.503   0.010  0.00  0.00    +0.120 C 
ATOM     11  O   LIG    1        0.023  -2.069  -0.657  0.00  0.00    -0.230 OA
ENDBRANCH   3   5
BRANCH   1  13
ATOM     12  C   LIG    1       -1.336  -5.279   3.749  0.00  0.00    -0.010 C 
ATOM     13  C   LIG    1        0.102  -5.318   3.229  0.00  0.00    +0.260 C 
ENDBRANCH   1  13
BRANCH   1  14
ATOM     14  C   LIG    1        0.103  -6.827   1.189  0.00  0.00    +0.330 C 
BRANCH  14  15
ATOM     15  C   LIG    1        1.527  -7.269   0.976  0.00  0.00    -0.140 A 
ATOM     16  C   LIG    1        2.161  -6.998  -0.223  0.00  0.00    +0.090 A 
ATOM     17  C   LIG    1        3.469  -7.397  -0.420  0.00  0.00    -0.090 A 
ATOM     18  C   LIG    1        4.143  -8.081   0.583  0.00  0.00    +0.200 A 
ATOM     19  C   LIG    1        3.502  -8.356   1.784  0.00  0.00    -0.080 A 
ATOM     20  C   LIG    1        2.196  -7.949   1.977  0.00  0.00    +0.060 A 
BRANCH  18  21
ATOM     21  N   LIG    1        5.464  -8.491   0.385  0.00  0.00    -0.640 N 
ATOM     22  C   LIG    1        6.139  -8.200  -0.882  0.00  0.00    +0.270 C 
ATOM     23  C   LIG    1        6.174  -9.212   1.444  0.00  0.00    +0.270 C 
ENDBRANCH  18  21
ENDBRANCH  14  15
ENDBRANCH   1  14
TORSDOF 5
