REMARK  Name = ZINCpe000000YmCS.0
REMARK                            x       y       z     vdW  Elec       q    Type
REMARK                         _______ _______ _______ _____ _____    ______ ____
ROOT
ATOM      1  C   LIG    1       -0.755   2.058   2.319  0.00  0.00    +0.630 C 
ATOM      2  N   LIG    1       -0.895   1.656   1.040  0.00  0.00    -0.630 N 
ATOM      3  C   LIG    1       -1.998   1.596   0.065  0.00  0.00    +0.280 C 
ATOM      4  C   LIG    1       -0.946   1.687  -1.036  0.00  0.00    -0.110 C 
ATOM      5  C   LIG    1       -1.148   1.046  -2.406  0.00  0.00    +0.050 C 
ATOM      6  C   LIG    1       -1.462   2.463  -2.922  0.00  0.00    +0.010 C 
ATOM      7  C   LIG    1       -0.628   3.000  -1.745  0.00  0.00    +0.060 C 
ATOM      8  C   LIG    1       -0.013   1.086   0.008  0.00  0.00    +0.270 C 
ATOM      9  O   LIG    1        0.329   1.978   2.867  0.00  0.00    -0.480 OA
ENDROOT
BRANCH   1  15
ATOM     10  C   LIG    1       -2.876   4.584   8.175  0.00  0.00    +0.330 C 
ATOM     11  N   LIG    1       -2.600   4.058   6.836  0.00  0.00    -0.550 N 
ATOM     12  C   LIG    1       -1.344   3.642   6.524  0.00  0.00    +0.580 A 
ATOM     13  N   LIG    1       -1.019   3.163   5.361  0.00  0.00    -0.480 NA
ATOM     14  C   LIG    1       -1.926   3.046   4.365  0.00  0.00    +0.100 A 
ATOM     15  C   LIG    1       -1.907   2.592   3.049  0.00  0.00    -0.010 A 
ATOM     16  N   LIG    1       -3.183   2.750   2.573  0.00  0.00    -0.340 N 
ATOM     17  H   LIG    1       -3.472   2.521   1.676  0.00  0.00    +0.450 HD
ATOM     18  N   LIG    1       -3.942   3.243   3.486  0.00  0.00    -0.190 NA
ATOM     19  C   LIG    1       -3.271   3.456   4.595  0.00  0.00    -0.070 A 
ATOM     20  C   LIG    1       -3.599   3.993   5.925  0.00  0.00    +0.590 A 
ATOM     21  O   LIG    1       -4.726   4.363   6.197  0.00  0.00    -0.490 OA
ENDBRANCH   1  15
BRANCH   8  22
ATOM     22  C   LIG    1        1.390   1.697  -0.002  0.00  0.00    +0.150 C 
ATOM     23  C   LIG    1        2.263   1.059   1.101  0.00  0.00    +0.010 C 
ATOM     24  C   LIG    1        3.119   2.232   1.628  0.00  0.00    +0.010 C 
ATOM     25  C   LIG    1        2.661   3.441   0.782  0.00  0.00    +0.190 C 
ATOM     26  O   LIG    1        1.329   3.099   0.340  0.00  0.00    -0.350 OA
ENDBRANCH   8  22
TORSDOF 2
