REMARK  Name = ZINCpe000000UTHD.0
REMARK                            x       y       z     vdW  Elec       q    Type
REMARK                         _______ _______ _______ _____ _____    ______ ____
ROOT
ATOM      1  C   LIG    1       -0.055   0.102   0.171  0.00  0.00    +0.170 A 
ATOM      2  N   LIG    1        0.076   1.409   0.162  0.00  0.00    -0.290 NA
ATOM      3  N   LIG    1        1.300   1.729  -0.064  0.00  0.00    -0.250 NA
ATOM      4  C   LIG    1        2.026   0.645  -0.215  0.00  0.00    +0.200 A 
ATOM      5  N   LIG    1        1.181  -0.430  -0.069  0.00  0.00    -0.300 N 
ENDROOT
BRANCH   4   6
ATOM      6  C   LIG    1        3.477   0.591  -0.490  0.00  0.00    -0.040 A 
ATOM      7  C   LIG    1        4.274   1.717  -0.270  0.00  0.00    +0.120 A 
ATOM      8  C   LIG    1        5.628   1.661  -0.523  0.00  0.00    -0.040 A 
ATOM      9  C   LIG    1        6.198   0.490  -1.006  0.00  0.00    +0.120 A 
ATOM     10  C   LIG    1        5.408  -0.630  -1.231  0.00  0.00    +0.030 A 
ATOM     11  C   LIG    1        4.054  -0.584  -0.976  0.00  0.00    +0.050 A 
BRANCH   9  12
ATOM     12  O   LIG    1        7.532   0.440  -1.259  0.00  0.00    -0.320 OA
BRANCH  12  13
ATOM     13  C   LIG    1        8.285   1.628  -1.005  0.00  0.00    +0.600 C 
ATOM     14  F   LIG    1        8.171   1.973   0.346  0.00  0.00    -0.200 F 
ATOM     15  F   LIG    1        7.791   2.671  -1.796  0.00  0.00    -0.200 F 
ENDBRANCH  12  13
ENDBRANCH   9  12
ENDBRANCH   4   6
BRANCH   5  16
ATOM     16  N   LIG    1        1.508  -1.754  -0.148  0.00  0.00    -0.590 N 
ATOM     17  H   LIG    1        2.398  -1.933   0.293  0.00  0.00    +0.380 HD
ATOM     18  H   LIG    1        1.509  -2.070  -1.107  0.00  0.00    +0.370 HD
ENDBRANCH   5  16
BRANCH   1  19
ATOM     19  S   LIG    1       -1.546  -0.797   0.441  0.00  0.00    +0.130 S 
BRANCH  19  20
ATOM     20  C   LIG    1       -2.702   0.575   0.676  0.00  0.00    +0.110 C 
BRANCH  20  27
ATOM     21  C   LIG    1       -8.724   0.700   1.814  0.00  0.00    +0.300 C 
ATOM     22  N   LIG    1       -7.380   1.230   1.567  0.00  0.00    -0.740 N 
ATOM     23  H   LIG    1       -7.233   2.189   1.551  0.00  0.00    +0.400 HD
ATOM     24  C   LIG    1       -6.350   0.386   1.362  0.00  0.00    +0.690 C 
ATOM     25  N   LIG    1       -5.114   0.874   1.135  0.00  0.00    -0.690 N 
ATOM     26  H   LIG    1       -4.967   1.832   1.119  0.00  0.00    +0.410 HD
ATOM     27  C   LIG    1       -4.084   0.030   0.930  0.00  0.00    +0.540 C 
ATOM     28  O   LIG    1       -4.268  -1.168   0.950  0.00  0.00    -0.450 OA
ATOM     29  O   LIG    1       -6.535  -0.815   1.382  0.00  0.00    -0.520 OA
ENDBRANCH  20  27
ENDBRANCH  19  20
ENDBRANCH   1  19
TORSDOF 7
