REMARK  Name = ZINCqH0000006O69.0
REMARK                            x       y       z     vdW  Elec       q    Type
REMARK                         _______ _______ _______ _____ _____    ______ ____
ROOT
ATOM      1  N   LIG    1       -1.974   2.548   3.429  0.00  0.00    -0.650 N 
ATOM      2  H   LIG    1       -1.972   1.590   3.277  0.00  0.00    +0.420 HD
ATOM      3  C   LIG    1       -2.508   3.050   4.560  0.00  0.00    +0.540 C 
ATOM      4  O   LIG    1       -2.602   4.250   4.706  0.00  0.00    -0.500 OA
ENDROOT
BRANCH   1  12
ATOM      5  C   LIG    1       -1.341   3.015   1.139  0.00  0.00    +0.110 A 
ATOM      6  C   LIG    1       -0.800   3.873   0.196  0.00  0.00    -0.040 A 
ATOM      7  C   LIG    1       -0.338   5.120   0.580  0.00  0.00    -0.010 A 
ATOM      8  C   LIG    1       -0.413   5.511   1.905  0.00  0.00    -0.090 A 
ATOM      9  C   LIG    1       -0.951   4.659   2.851  0.00  0.00    +0.080 A 
ATOM     10  C   LIG    1        0.093   6.870   2.317  0.00  0.00    +0.100 C 
ATOM     11 CL   LIG    1        0.339   6.195  -0.604  0.00  0.00    -0.060 Cl
ATOM     12  C   LIG    1       -1.422   3.411   2.472  0.00  0.00    +0.130 A 
BRANCH   5  14
ATOM     13  C   LIG    1       -1.685   1.453  -0.621  0.00  0.00    +0.260 C 
ATOM     14  O   LIG    1       -1.795   1.789   0.763  0.00  0.00    -0.320 OA
ENDBRANCH   5  14
ENDBRANCH   1  12
BRANCH   3  15
ATOM     15  C   LIG    1       -2.987   2.119   5.644  0.00  0.00    +0.110 C 
BRANCH  15  16
ATOM     16  S   LIG    1       -3.646   3.088   7.024  0.00  0.00    +0.100 S 
BRANCH  16  17
ATOM     17  C   LIG    1       -4.120   1.786   8.113  0.00  0.00    +0.150 A 
ATOM     18  N   LIG    1       -3.994   0.498   7.888  0.00  0.00    -0.280 NA
ATOM     19  N   LIG    1       -4.436  -0.172   8.892  0.00  0.00    -0.250 NA
ATOM     20  C   LIG    1       -4.882   0.649   9.818  0.00  0.00    +0.260 A 
ATOM     21  N   LIG    1       -4.693   1.929   9.346  0.00  0.00    -0.460 N 
ATOM     22  C   LIG    1       -5.034   3.183  10.023  0.00  0.00    +0.360 C 
BRANCH  20  23
ATOM     23  C   LIG    1       -5.472   0.272  11.112  0.00  0.00    +0.030 A 
ATOM     24  C   LIG    1       -5.923  -0.968  11.454  0.00  0.00    +0.030 A 
ATOM     25  C   LIG    1       -6.398  -0.874  12.777  0.00  0.00    -0.050 A 
ATOM     26  C   LIG    1       -6.225   0.403  13.170  0.00  0.00    +0.200 A 
ATOM     27  O   LIG    1       -5.665   1.093  12.163  0.00  0.00    -0.180 OA
ENDBRANCH  20  23
ENDBRANCH  16  17
ENDBRANCH  15  16
ENDBRANCH   3  15
TORSDOF 6
