REMARK  Name = ZINCAx0000000iiP.0
REMARK                            x       y       z     vdW  Elec       q    Type
REMARK                         _______ _______ _______ _____ _____    ______ ____
ROOT
ATOM      1  C   LIG    1        0.458  -4.584   4.032  0.00  0.00    -0.120 A 
ATOM      2  C   LIG    1        0.559  -3.742   5.142  0.00  0.00    +0.200 A 
ATOM      3  C   LIG    1        0.684  -4.280   6.404  0.00  0.00    -0.690 A 
ATOM      4  C   LIG    1        0.721  -5.654   6.579  0.00  0.00    +0.180 A 
ATOM      5  C   LIG    1        0.627  -6.500   5.492  0.00  0.00    -0.040 A 
ATOM      6  C   LIG    1        0.495  -5.977   4.212  0.00  0.00    +0.210 A 
ENDROOT
BRANCH   6   7
ATOM      7  N   LIG    1        0.401  -6.825   3.118  0.00  0.00    -0.490 N 
ATOM      8  C   LIG    1       -0.816  -7.647   3.191  0.00  0.00    +0.160 C 
ATOM      9  C   LIG    1       -0.911  -8.522   1.939  0.00  0.00    +0.240 C 
ATOM     10  O   LIG    1        0.273  -9.317   1.828  0.00  0.00    -0.380 OA
ATOM     11  C   LIG    1        1.477  -8.549   1.754  0.00  0.00    +0.240 C 
ATOM     12  C   LIG    1        1.596  -7.674   3.004  0.00  0.00    +0.160 C 
ENDBRANCH   6   7
BRANCH   3  13
ATOM     13  S   LIG    1        0.805  -3.216   7.803  0.00  0.00    +2.690 S 
ATOM     14  O   LIG    1        0.378  -3.976   8.924  0.00  0.00    -0.950 OA
ATOM     15  O   LIG    1        0.204  -1.985   7.424  0.00  0.00    -0.940 OA
BRANCH  13  16
ATOM     16  N   LIG    1        2.413  -2.897   8.039  0.00  0.00    -0.990 NA
ATOM     17  C   LIG    1        3.226  -3.757   8.910  0.00  0.00    +0.290 C 
ATOM     18  C   LIG    1        4.457  -4.227   8.120  0.00  0.00    +0.010 C 
ATOM     19  C   LIG    1        5.200  -3.007   7.571  0.00  0.00    +0.010 C 
ATOM     20  C   LIG    1        4.283  -2.236   6.619  0.00  0.00    +0.010 C 
ATOM     21  C   LIG    1        3.052  -1.746   7.387  0.00  0.00    +0.290 C 
ENDBRANCH  13  16
ENDBRANCH   3  13
BRANCH   1  22
ATOM     22  C   LIG    1        0.319  -4.016   2.680  0.00  0.00    +0.510 C 
ATOM     23  O   LIG    1        0.235  -4.752   1.717  0.00  0.00    -0.460 OA
BRANCH  22  24
ATOM     24  O   LIG    1        0.283  -2.679   2.512  0.00  0.00    -0.330 OA
BRANCH  24  25
ATOM     25  C   LIG    1        0.144  -2.190   1.152  0.00  0.00    +0.250 C 
BRANCH  25  28
ATOM     26  N   LIG    1        0.002  -0.004   0.002  0.00  0.00    -0.720 N 
ATOM     27  H   LIG    1       -0.072  -0.485  -0.837  0.00  0.00    +0.400 HD
ATOM     28  C   LIG    1        0.124  -0.683   1.160  0.00  0.00    +0.520 C 
ATOM     29  O   LIG    1        0.217  -0.081   2.209  0.00  0.00    -0.510 OA
BRANCH  26  32
ATOM     30  C   LIG    1       -2.193   1.438  -1.219  0.00  0.00    +0.020 C 
ATOM     31  C   LIG    1       -0.758   1.968  -1.230  0.00  0.00    -0.010 C 
ATOM     32  C   LIG    1       -0.018   1.461   0.010  0.00  0.00    +0.240 C 
ATOM     33  C   LIG    1        1.418   1.990  -0.001  0.00  0.00    +0.000 C 
ATOM     34  C   LIG    1        1.397   3.520   0.008  0.00  0.00    +0.020 C 
ATOM     35  C   LIG    1        0.657   4.027  -1.232  0.00  0.00    +0.010 C 
ATOM     36  C   LIG    1       -0.778   3.497  -1.221  0.00  0.00    -0.010 C 
ATOM     37  C   LIG    1       -1.518   4.004  -2.461  0.00  0.00    +0.020 C 
ENDBRANCH  26  32
ENDBRANCH  25  28
ENDBRANCH  24  25
ENDBRANCH  22  24
ENDBRANCH   1  22
TORSDOF 8
