REMARK  Name = ZINCrH000004jzgH.0
REMARK                            x       y       z     vdW  Elec       q    Type
REMARK                         _______ _______ _______ _____ _____    ______ ____
ROOT
ATOM      1  C   LIG    1        2.059   6.135   0.038  0.00  0.00    -0.200 A 
ATOM      2  C   LIG    1        2.991   5.258  -0.526  0.00  0.00    +0.120 A 
ATOM      3  C   LIG    1        2.754   3.902  -0.512  0.00  0.00    -0.080 A 
ATOM      4  C   LIG    1        1.588   3.404   0.063  0.00  0.00    +0.240 A 
ATOM      5  C   LIG    1        0.655   4.275   0.619  0.00  0.00    -0.080 A 
ATOM      6  C   LIG    1        0.889   5.631   0.614  0.00  0.00    +0.090 A 
ENDROOT
BRANCH   1   9
ATOM      7  C   LIG    1       -0.098   7.947  -0.056  0.00  0.00    +0.280 C 
ATOM      8  N   LIG    1        1.278   8.450  -0.067  0.00  0.00    -0.610 N 
ATOM      9  C   LIG    1        2.310   7.588   0.024  0.00  0.00    +0.570 C 
ATOM     10  O   LIG    1        3.449   8.010   0.095  0.00  0.00    -0.540 OA
BRANCH   8  11
ATOM     11  C   LIG    1        1.531   9.888  -0.176  0.00  0.00    +0.240 C 
ATOM     12  C   LIG    1        0.873  10.616   1.000  0.00  0.00    +0.000 C 
ATOM     13  C   LIG    1        1.076  12.124   0.835  0.00  0.00    +0.210 C 
ATOM     14  O   LIG    1        0.527  12.543  -0.416  0.00  0.00    -0.380 OA
ATOM     15  C   LIG    1        1.136  11.932  -1.554  0.00  0.00    +0.210 C 
ATOM     16  C   LIG    1        0.936  10.415  -1.486  0.00  0.00    -0.010 C 
ENDBRANCH   8  11
ENDBRANCH   1   9
BRANCH   4  17
ATOM     17  N   LIG    1        1.351   2.034   0.075  0.00  0.00    -0.740 N 
ATOM     18  H   LIG    1        1.998   1.427  -0.316  0.00  0.00    +0.400 HD
BRANCH  17  19
ATOM     19  C   LIG    1        0.124   1.508   0.679  0.00  0.00    +0.270 C 
BRANCH  19  20
ATOM     20  C   LIG    1        0.111  -0.017   0.561  0.00  0.00    -0.010 C 
ATOM     21  C   LIG    1       -0.138  -0.452  -0.898  0.00  0.00    +0.080 C 
ATOM     22  C   LIG    1       -0.974  -1.710  -0.800  0.00  0.00    -0.100 A 
ATOM     23  C   LIG    1       -1.228  -2.695  -1.739  0.00  0.00    +0.010 A 
ATOM     24  C   LIG    1       -2.035  -3.770  -1.419  0.00  0.00    +0.000 A 
ATOM     25  C   LIG    1       -2.592  -3.862  -0.158  0.00  0.00    +0.000 A 
ATOM     26  C   LIG    1       -2.340  -2.881   0.781  0.00  0.00    +0.010 A 
ATOM     27  C   LIG    1       -1.531  -1.803   0.462  0.00  0.00    -0.100 A 
ATOM     28  C   LIG    1       -1.107  -0.614   1.297  0.00  0.00    +0.090 C 
ENDBRANCH  19  20
ENDBRANCH  17  19
ENDBRANCH   4  17
TORSDOF 5
