REMARK  Name = ZINCvU0000000G37.0
REMARK                            x       y       z     vdW  Elec       q    Type
REMARK                         _______ _______ _______ _____ _____    ______ ____
ROOT
ATOM      1  C   LIG    1        3.493  -2.262   3.344  0.00  0.00    +0.130 A 
ATOM      2  N   LIG    1        4.051  -2.479   4.501  0.00  0.00    -0.450 NA
ATOM      3  C   LIG    1        5.238  -3.042   4.495  0.00  0.00    +0.070 A 
ATOM      4  C   LIG    1        5.744  -3.321   3.289  0.00  0.00    -0.040 A 
ATOM      5  S   LIG    1        4.577  -2.814   2.070  0.00  0.00    +0.110 S 
ENDROOT
BRANCH   1   9
ATOM      6  C   LIG    1       -0.326  -0.490   2.747  0.00  0.00    +0.130 A 
ATOM      7  C   LIG    1        0.160  -0.674   4.032  0.00  0.00    -0.040 A 
ATOM      8  C   LIG    1        1.399  -1.248   4.230  0.00  0.00    +0.080 A 
ATOM      9  C   LIG    1        2.166  -1.646   3.134  0.00  0.00    -0.040 A 
ATOM     10  C   LIG    1        1.675  -1.465   1.840  0.00  0.00    -0.010 A 
ATOM     11  C   LIG    1        0.436  -0.884   1.648  0.00  0.00    +0.100 A 
BRANCH  11  12
ATOM     12  O   LIG    1       -0.043  -0.702   0.388  0.00  0.00    -0.300 OA
ATOM     13  C   LIG    1        0.792  -1.129  -0.690  0.00  0.00    +0.240 C 
ENDBRANCH  11  12
BRANCH   6  14
ATOM     14  O   LIG    1       -1.547   0.077   2.557  0.00  0.00    -0.300 OA
BRANCH  14  16
ATOM     15  C   LIG    1       -3.614   1.072   3.317  0.00  0.00    +0.070 C 
ATOM     16  C   LIG    1       -2.274   0.457   3.727  0.00  0.00    +0.170 C 
ENDBRANCH  14  16
ENDBRANCH   6  14
ENDBRANCH   1   9
BRANCH   3  17
ATOM     17  C   LIG    1        5.985  -3.350   5.767  0.00  0.00    +0.200 C 
BRANCH  17  18
ATOM     18  S   LIG    1        7.008  -1.929   6.224  0.00  0.00    +0.070 S 
BRANCH  18  19
ATOM     19  C   LIG    1        7.746  -2.546   7.700  0.00  0.00    +0.210 A 
ATOM     20  N   LIG    1        7.545  -3.728   8.241  0.00  0.00    -0.330 NA
ATOM     21  N   LIG    1        8.239  -3.857   9.313  0.00  0.00    -0.030 NA
ATOM     22  N   LIG    1        8.924  -2.788   9.537  0.00  0.00    -0.070 NA
ATOM     23  N   LIG    1        8.634  -1.893   8.492  0.00  0.00    -0.310 N 
BRANCH  23  24
ATOM     24  C   LIG    1        9.150  -0.602   8.309  0.00  0.00    +0.100 A 
ATOM     25  C   LIG    1        9.643  -0.220   7.069  0.00  0.00    +0.050 A 
ATOM     26  C   LIG    1       10.151   1.053   6.891  0.00  0.00    +0.030 A 
ATOM     27  C   LIG    1       10.169   1.945   7.947  0.00  0.00    -0.060 A 
ATOM     28  C   LIG    1        9.678   1.567   9.184  0.00  0.00    +0.030 A 
ATOM     29  C   LIG    1       10.724   3.332   7.751  0.00  0.00    +0.100 C 
ATOM     30  C   LIG    1        9.164   0.298   9.366  0.00  0.00    -0.050 A 
ATOM     31  C   LIG    1        8.624  -0.111  10.712  0.00  0.00    +0.110 C 
ENDBRANCH  23  24
ENDBRANCH  18  19
ENDBRANCH  17  18
ENDBRANCH   3  17
TORSDOF 8
