REMARK  Name = ZINCrH000004rrhQ.0
REMARK                            x       y       z     vdW  Elec       q    Type
REMARK                         _______ _______ _______ _____ _____    ______ ____
ROOT
ATOM      1  C   LIG    1        0.287   9.819  -0.073  0.00  0.00    -0.690 A 
ATOM      2  C   LIG    1       -0.776  10.691  -0.217  0.00  0.00    +0.170 A 
ATOM      3  C   LIG    1       -2.060  10.285   0.101  0.00  0.00    -0.010 A 
ATOM      4  C   LIG    1       -2.288   9.004   0.559  0.00  0.00    +0.040 A 
ATOM      5  C   LIG    1       -1.218   8.120   0.712  0.00  0.00    -0.160 A 
ATOM      6  C   LIG    1       -3.688   8.561   0.899  0.00  0.00    +0.130 C 
ATOM      7  C   LIG    1        0.074   8.536   0.390  0.00  0.00    +0.160 A 
ENDROOT
BRANCH   5   8
ATOM      8  C   LIG    1       -1.454   6.748   1.208  0.00  0.00    +0.550 C 
ATOM      9  N   LIG    1       -0.442   5.858   1.237  0.00  0.00    -0.660 N 
ATOM     10  H   LIG    1        0.453   6.134   0.985  0.00  0.00    +0.420 HD
ATOM     11  O   LIG    1       -2.561   6.421   1.590  0.00  0.00    -0.450 OA
BRANCH   9  12
ATOM     12  C   LIG    1       -0.681   4.543   1.629  0.00  0.00    +0.360 A 
ATOM     13  C   LIG    1        0.340   3.603   1.547  0.00  0.00    -0.070 A 
ATOM     14  C   LIG    1        0.091   2.302   1.946  0.00  0.00    +0.090 A 
ATOM     15  C   LIG    1       -1.180   1.981   2.402  0.00  0.00    -0.060 A 
ATOM     16  C   LIG    1       -2.148   2.965   2.456  0.00  0.00    +0.290 A 
ATOM     17  N   LIG    1       -1.879   4.199   2.075  0.00  0.00    -0.480 NA
ENDBRANCH   9  12
ENDBRANCH   5   8
BRANCH   1  18
ATOM     18  S   LIG    1        1.918  10.346  -0.481  0.00  0.00    +2.690 S 
ATOM     19  O   LIG    1        2.800   9.605   0.351  0.00  0.00    -0.950 OA
ATOM     20  O   LIG    1        1.886  11.766  -0.508  0.00  0.00    -0.940 OA
BRANCH  18  21
ATOM     21  N   LIG    1        2.218   9.855  -2.034  0.00  0.00    -1.060 N 
ATOM     22  H   LIG    1        2.910   9.199  -2.211  0.00  0.00    +0.430 HD
BRANCH  21  27
ATOM     23  C   LIG    1       -0.803  12.011  -6.322  0.00  0.00    +0.090 C 
ATOM     24  C   LIG    1       -0.000  11.438  -5.183  0.00  0.00    -0.070 A 
ATOM     25  C   LIG    1        0.955  12.215  -4.553  0.00  0.00    +0.020 A 
ATOM     26  C   LIG    1        1.692  11.693  -3.508  0.00  0.00    +0.040 A 
ATOM     27  C   LIG    1        1.473  10.386  -3.090  0.00  0.00    +0.110 A 
ATOM     28  C   LIG    1        0.517   9.607  -3.728  0.00  0.00    +0.020 A 
ATOM     29  C   LIG    1       -0.221  10.137  -4.769  0.00  0.00    +0.010 A 
ENDBRANCH  21  27
ENDBRANCH  18  21
ENDBRANCH   1  18
TORSDOF 5
