REMARK  Name = ZINCvU0000000660.0
REMARK                            x       y       z     vdW  Elec       q    Type
REMARK                         _______ _______ _______ _____ _____    ______ ____
ROOT
ATOM      1  C   LIG    1        3.145  -2.575   4.968  0.00  0.00    +0.560 C 
ATOM      2  N   LIG    1        4.217  -1.760   5.021  0.00  0.00    -0.660 N 
ATOM      3  H   LIG    1        4.293  -1.018   4.401  0.00  0.00    +0.410 HD
ATOM      4  O   LIG    1        3.095  -3.561   5.679  0.00  0.00    -0.500 OA
ENDROOT
BRANCH   1  13
ATOM      5  O   LIG    1       -2.727  -4.679   1.778  0.00  0.00    -0.520 OA
ATOM      6  C   LIG    1       -1.658  -4.113   1.861  0.00  0.00    +0.530 C 
ATOM      7  C   LIG    1       -0.829  -3.918   0.626  0.00  0.00    +0.060 C 
ATOM      8  C   LIG    1       -1.196  -2.595  -0.066  0.00  0.00    +0.140 C 
ATOM      9  S   LIG    1       -1.397  -1.333   1.234  0.00  0.00    -0.130 S 
ATOM     10  C   LIG    1       -0.056  -1.691   2.322  0.00  0.00    -0.110 A 
ATOM     11  C   LIG    1        1.050  -0.852   2.375  0.00  0.00    +0.100 A 
ATOM     12  C   LIG    1        2.090  -1.139   3.233  0.00  0.00    +0.040 A 
ATOM     13  C   LIG    1        2.032  -2.272   4.050  0.00  0.00    -0.090 A 
ATOM     14  C   LIG    1        0.919  -3.118   3.995  0.00  0.00    +0.080 A 
ATOM     15  C   LIG    1       -0.117  -2.827   3.132  0.00  0.00    +0.170 A 
ATOM     16  N   LIG    1       -1.236  -3.673   3.053  0.00  0.00    -0.670 N 
ATOM     17  H   LIG    1       -1.703  -3.937   3.861  0.00  0.00    +0.420 HD
ENDBRANCH   1  13
BRANCH   2  18
ATOM     18  C   LIG    1        5.222  -1.985   5.970  0.00  0.00    +0.130 A 
ATOM     19  C   LIG    1        6.548  -1.692   5.658  0.00  0.00    +0.030 A 
ATOM     20  C   LIG    1        7.547  -1.908   6.582  0.00  0.00    +0.040 A 
ATOM     21  C   LIG    1        7.233  -2.421   7.833  0.00  0.00    +0.050 A 
ATOM     22  N   LIG    1        7.982  -2.743   8.950  0.00  0.00    -0.590 N 
ATOM     23  H   LIG    1        8.943  -2.652   9.045  0.00  0.00    +0.420 HD
ATOM     24  C   LIG    1        7.114  -3.215   9.897  0.00  0.00    +0.330 A 
ATOM     25  N   LIG    1        5.891  -3.200   9.425  0.00  0.00    -0.470 NA
ATOM     26  C   LIG    1        5.898  -2.720   8.157  0.00  0.00    +0.070 A 
ATOM     27  C   LIG    1        4.892  -2.492   7.213  0.00  0.00    +0.080 A 
BRANCH  24  28
ATOM     28  C   LIG    1        7.497  -3.674  11.250  0.00  0.00    -0.000 A 
ATOM     29  C   LIG    1        6.523  -4.137  12.135  0.00  0.00    +0.070 A 
ATOM     30  C   LIG    1        6.886  -4.563  13.396  0.00  0.00    +0.050 A 
ATOM     31  C   LIG    1        8.213  -4.534  13.784  0.00  0.00    +0.000 A 
ATOM     32  C   LIG    1        9.186  -4.075  12.911  0.00  0.00    +0.100 A 
ATOM     33  F   LIG    1       10.481  -4.050  13.297  0.00  0.00    -0.130 F 
ATOM     34  C   LIG    1        8.835  -3.651  11.644  0.00  0.00    -0.010 A 
ENDBRANCH  24  28
ENDBRANCH   2  18
TORSDOF 3
