REMARK  Name = ZINCvU0000000660.1
REMARK                            x       y       z     vdW  Elec       q    Type
REMARK                         _______ _______ _______ _____ _____    ______ ____
ROOT
ATOM      1  C   LIG    1        5.917   2.855  -0.649  0.00  0.00    +0.560 C 
ATOM      2  N   LIG    1        5.567   2.537  -1.911  0.00  0.00    -0.660 N 
ATOM      3  H   LIG    1        4.631   2.437  -2.144  0.00  0.00    +0.410 HD
ATOM      4  O   LIG    1        7.091   2.887  -0.333  0.00  0.00    -0.510 OA
ENDROOT
BRANCH   1  13
ATOM      5  O   LIG    1        4.173   3.885   6.058  0.00  0.00    -0.520 OA
ATOM      6  C   LIG    1        4.014   3.474   4.928  0.00  0.00    +0.530 C 
ATOM      7  C   LIG    1        3.156   2.267   4.697  0.00  0.00    +0.060 C 
ATOM      8  C   LIG    1        1.689   2.674   4.486  0.00  0.00    +0.140 C 
ATOM      9  S   LIG    1        1.678   4.146   3.411  0.00  0.00    -0.130 S 
ATOM     10  C   LIG    1        2.913   3.753   2.215  0.00  0.00    -0.110 A 
ATOM     11  C   LIG    1        2.553   3.421   0.915  0.00  0.00    +0.100 A 
ATOM     12  C   LIG    1        3.527   3.129  -0.015  0.00  0.00    +0.040 A 
ATOM     13  C   LIG    1        4.876   3.165   0.348  0.00  0.00    -0.100 A 
ATOM     14  C   LIG    1        5.239   3.496   1.659  0.00  0.00    +0.080 A 
ATOM     15  C   LIG    1        4.259   3.784   2.586  0.00  0.00    +0.170 A 
ATOM     16  N   LIG    1        4.604   4.110   3.908  0.00  0.00    -0.670 N 
ATOM     17  H   LIG    1        5.271   4.792   4.082  0.00  0.00    +0.420 HD
ENDBRANCH   1  13
BRANCH   2  18
ATOM     18  C   LIG    1        6.554   2.352  -2.885  0.00  0.00    +0.160 A 
ATOM     19  C   LIG    1        6.361   1.415  -3.899  0.00  0.00    +0.000 A 
ATOM     20  C   LIG    1        7.313   1.222  -4.858  0.00  0.00    +0.100 A 
ATOM     21  C   LIG    1        8.497   1.967  -4.827  0.00  0.00    +0.040 A 
ATOM     22  N   LIG    1        9.597   1.998  -5.619  0.00  0.00    -0.470 NA
ATOM     23  C   LIG    1       10.446   2.884  -5.160  0.00  0.00    +0.320 A 
ATOM     24  N   LIG    1        9.934   3.478  -4.037  0.00  0.00    -0.590 N 
ATOM     25  H   LIG    1       10.361   4.167  -3.505  0.00  0.00    +0.420 HD
ATOM     26  C   LIG    1        8.696   2.913  -3.805  0.00  0.00    +0.080 A 
ATOM     27  C   LIG    1        7.717   3.103  -2.840  0.00  0.00    +0.030 A 
BRANCH  23  28
ATOM     28  C   LIG    1       11.759   3.196  -5.764  0.00  0.00    +0.000 A 
ATOM     29  C   LIG    1       12.179   2.525  -6.913  0.00  0.00    +0.070 A 
ATOM     30  C   LIG    1       13.405   2.820  -7.473  0.00  0.00    +0.050 A 
ATOM     31  C   LIG    1       14.219   3.779  -6.899  0.00  0.00    +0.000 A 
ATOM     32  C   LIG    1       13.809   4.450  -5.757  0.00  0.00    +0.100 A 
ATOM     33  F   LIG    1       14.609   5.386  -5.202  0.00  0.00    -0.130 F 
ATOM     34  C   LIG    1       12.582   4.166  -5.190  0.00  0.00    -0.010 A 
ENDBRANCH  23  28
ENDBRANCH   2  18
TORSDOF 3
