REMARK  Name = ZINCnE00000kDfGD.0
REMARK                            x       y       z     vdW  Elec       q    Type
REMARK                         _______ _______ _______ _____ _____    ______ ____
ROOT
ATOM      1  N   LIG    1        6.268   0.151  -0.058  0.00  0.00    -0.610 NA
ATOM      2  C   LIG    1        4.970   0.334  -0.044  0.00  0.00    +0.340 A 
ATOM      3  N   LIG    1        3.991  -0.621  -0.040  0.00  0.00    -0.500 NA
ATOM      4  N   LIG    1        2.693  -0.161  -0.025  0.00  0.00    -0.230 NA
ATOM      5  C   LIG    1        2.487   1.119  -0.016  0.00  0.00    -0.030 A 
ATOM      6  S   LIG    1        4.091   1.874  -0.034  0.00  0.00    -0.130 S 
ENDROOT
BRANCH   5   7
ATOM      7  C   LIG    1        1.179   1.810   0.001  0.00  0.00    -0.000 A 
ATOM      8  C   LIG    1       -0.013   1.076   0.008  0.00  0.00    +0.080 A 
ATOM      9  C   LIG    1       -1.210   1.769   0.017  0.00  0.00    -0.040 A 
ATOM     10  C   LIG    1       -1.192   3.152   0.029  0.00  0.00    +0.220 A 
ATOM     11  N   LIG    1       -0.053   3.818   0.022  0.00  0.00    -0.480 NA
ATOM     12  C   LIG    1        1.112   3.203   0.008  0.00  0.00    +0.250 A 
ENDBRANCH   5   7
BRANCH   1  13
ATOM     13  C   LIG    1        6.816  -1.207  -0.070  0.00  0.00    +0.280 C 
BRANCH  13  14
ATOM     14  C   LIG    1        7.651  -1.400  -1.310  0.00  0.00    +0.200 A 
ATOM     15  N   LIG    1        8.527  -0.566  -1.786  0.00  0.00    -0.360 NA
ATOM     16  O   LIG    1        9.029  -1.014  -2.794  0.00  0.00    +0.070 OA
ATOM     17  C   LIG    1        8.506  -2.213  -3.067  0.00  0.00    +0.180 A 
ATOM     18  N   LIG    1        7.631  -2.470  -2.124  0.00  0.00    -0.470 NA
BRANCH  17  19
ATOM     19  C   LIG    1        8.859  -3.103  -4.231  0.00  0.00    +0.080 C 
ATOM     20  C   LIG    1       10.058  -2.698  -5.091  0.00  0.00    +0.060 C 
ATOM     21  C   LIG    1        8.636  -2.545  -5.638  0.00  0.00    +0.050 C 
ENDBRANCH  17  19
ENDBRANCH  13  14
BRANCH  13  23
ATOM     22  C   LIG    1        6.816  -1.343   2.424  0.00  0.00    +0.020 C 
ATOM     23  C   LIG    1        7.689  -1.416   1.169  0.00  0.00    +0.010 C 
ENDBRANCH  13  23
ENDBRANCH   1  13
TORSDOF 5
