REMARK  Name = ZINCrH000004sAbh.0
REMARK                            x       y       z     vdW  Elec       q    Type
REMARK                         _______ _______ _______ _____ _____    ______ ____
ROOT
ATOM      1  S   LIG    1        1.683   2.154  -0.002  0.00  0.00    +1.260 S 
ATOM      2  O   LIG    1        2.322   1.765  -1.211  0.00  0.00    -0.820 OA
ENDROOT
BRANCH   1   3
ATOM      3  C   LIG    1        1.454   3.953   0.009  0.00  0.00    -0.150 C 
BRANCH   3  14
ATOM      4  C   LIG    1        2.706   4.609  -2.509  0.00  0.00    +0.140 C 
ATOM      5  C   LIG    1        3.406   4.948  -1.218  0.00  0.00    +0.120 A 
ATOM      6  N   LIG    1        4.579   5.538  -1.250  0.00  0.00    -0.420 NA
ATOM      7  C   LIG    1        5.201   5.840  -0.106  0.00  0.00    +0.080 A 
ATOM      8  C   LIG    1        6.457   6.471  -0.106  0.00  0.00    +0.050 A 
ATOM      9  C   LIG    1        7.065   6.764   1.075  0.00  0.00    +0.040 A 
ATOM     10  C   LIG    1        6.461   6.448   2.291  0.00  0.00    +0.040 A 
ATOM     11  C   LIG    1        5.245   5.837   2.331  0.00  0.00    +0.060 A 
ATOM     12  C   LIG    1        4.586   5.518   1.131  0.00  0.00    +0.080 A 
ATOM     13  N   LIG    1        3.389   4.921   1.138  0.00  0.00    -0.410 NA
ATOM     14  C   LIG    1        2.800   4.631   0.000  0.00  0.00    +0.120 A 
ENDBRANCH   3  14
ENDBRANCH   1   3
BRANCH   1  15
ATOM     15  C   LIG    1       -0.019   1.526   0.010  0.00  0.00    -0.230 C 
BRANCH  15  16
ATOM     16  C   LIG    1        0.002  -0.004   0.002  0.00  0.00    +0.120 C 
BRANCH  16  17
ATOM     17  C   LIG    1       -1.412  -0.526   0.013  0.00  0.00    -0.060 A 
ATOM     18  C   LIG    1       -2.070  -0.758  -1.180  0.00  0.00    +0.050 A 
ATOM     19  C   LIG    1       -3.367  -1.237  -1.175  0.00  0.00    +0.070 A 
ATOM     20  C   LIG    1       -4.010  -1.485   0.026  0.00  0.00    +0.020 A 
ATOM     21  O   LIG    1       -5.263  -1.951   0.303  0.00  0.00    -0.290 OA
ATOM     22  C   LIG    1       -5.503  -1.612   1.681  0.00  0.00    +0.570 C 
ATOM     23  O   LIG    1       -4.184  -1.569   2.258  0.00  0.00    -0.290 OA
ATOM     24  F   LIG    1       -6.282  -2.596   2.301  0.00  0.00    -0.110 F 
ATOM     25  F   LIG    1       -6.123  -0.362   1.780  0.00  0.00    -0.150 F 
ATOM     26  C   LIG    1       -3.347  -1.251   1.228  0.00  0.00    +0.030 A 
ATOM     27  C   LIG    1       -2.046  -0.776   1.216  0.00  0.00    +0.070 A 
ENDBRANCH  16  17
ENDBRANCH  15  16
ENDBRANCH   1  15
TORSDOF 5
