REMARK  Name = ZINCtV000002vMkz.0
REMARK                            x       y       z     vdW  Elec       q    Type
REMARK                         _______ _______ _______ _____ _____    ______ ____
ROOT
ATOM      1  C   LIG    1       -0.984   3.709   0.018  0.00  0.00    +0.290 C 
ENDROOT
BRANCH   1   2
ATOM      2  C   LIG    1       -2.235   4.308  -0.571  0.00  0.00    -0.090 A 
ATOM      3  C   LIG    1       -3.464   3.726  -0.320  0.00  0.00    +0.040 A 
ATOM      4  C   LIG    1       -4.613   4.276  -0.854  0.00  0.00    +0.010 A 
ATOM      5  C   LIG    1       -4.532   5.408  -1.652  0.00  0.00    +0.090 A 
ATOM      6  C   LIG    1       -3.298   5.988  -1.907  0.00  0.00    +0.000 A 
ATOM      7  C   LIG    1       -2.152   5.437  -1.366  0.00  0.00    +0.040 A 
BRANCH   5   8
ATOM      8  O   LIG    1       -5.660   5.949  -2.182  0.00  0.00    -0.260 OA
BRANCH   8   9
ATOM      9  C   LIG    1       -5.823   5.891  -3.530  0.00  0.00    +0.120 A 
ATOM     10  C   LIG    1       -4.915   5.189  -4.310  0.00  0.00    -0.060 A 
ATOM     11  C   LIG    1       -5.085   5.128  -5.679  0.00  0.00    +0.050 A 
ATOM     12  C   LIG    1       -6.153   5.775  -6.274  0.00  0.00    -0.020 A 
ATOM     13  C   LIG    1       -7.056   6.479  -5.500  0.00  0.00    +0.050 A 
ATOM     14  C   LIG    1       -6.893   6.539  -4.129  0.00  0.00    -0.020 A 
ENDBRANCH   8   9
ENDBRANCH   5   8
ENDBRANCH   1   2
BRANCH   1  15
ATOM     15  N   LIG    1       -1.066   2.248  -0.046  0.00  0.00    -0.730 N 
ATOM     16  H   LIG    1       -1.932   1.811  -0.074  0.00  0.00    +0.400 HD
BRANCH  15  17
ATOM     17  C   LIG    1        0.112   1.477  -0.067  0.00  0.00    +0.070 A 
ATOM     18  C   LIG    1        0.180   0.124  -0.125  0.00  0.00    +0.170 A 
ATOM     19  N   LIG    1        1.498  -0.221  -0.132  0.00  0.00    -0.320 N 
ATOM     20  N   LIG    1        2.250   0.960  -0.076  0.00  0.00    -0.260 NA
ATOM     21  C   LIG    1        1.424   1.974  -0.038  0.00  0.00    +0.230 A 
BRANCH  19  22
ATOM     22  C   LIG    1        2.009  -1.521  -0.184  0.00  0.00    +0.380 A 
ATOM     23  C   LIG    1        3.384  -1.720  -0.190  0.00  0.00    -0.020 A 
ATOM     24  C   LIG    1        3.877  -3.013  -0.238  0.00  0.00    +0.090 A 
ATOM     25  C   LIG    1        2.973  -4.064  -0.289  0.00  0.00    -0.050 A 
ATOM     26  C   LIG    1        1.619  -3.792  -0.284  0.00  0.00    +0.300 A 
ATOM     27  N   LIG    1        1.179  -2.550  -0.233  0.00  0.00    -0.510 NA
ENDBRANCH  19  22
ENDBRANCH  15  17
ENDBRANCH   1  15
BRANCH   1  28
ATOM     28  C   LIG    1       -0.846   4.149   1.476  0.00  0.00    +0.010 C 
BRANCH  28  30
ATOM     29  C   LIG    1        0.624   4.084   3.496  0.00  0.00    +0.000 C 
ATOM     30  C   LIG    1        0.486   3.644   2.037  0.00  0.00    +0.000 C 
ENDBRANCH  28  30
ENDBRANCH   1  28
TORSDOF 8
