REMARK  Name = ZINCpe00000gN0Cd.0
REMARK                            x       y       z     vdW  Elec       q    Type
REMARK                         _______ _______ _______ _____ _____    ______ ____
ROOT
ATOM      1  N   LIG    1       -2.260   6.450   4.189  0.00  0.00    -0.530 NA
ATOM      2  C   LIG    1       -2.380   7.655   5.010  0.00  0.00    +0.170 C 
ATOM      3  C   LIG    1       -1.091   8.247   5.414  0.00  0.00    +0.030 C 
ATOM      4  C   LIG    1       -0.302   8.692   4.157  0.00  0.00    +0.270 C 
ATOM      5  N   LIG    1        0.136   7.525   3.423  0.00  0.00    -0.580 N 
ATOM      6  C   LIG    1       -0.683   6.882   2.374  0.00  0.00    +0.280 C 
ATOM      7  C   LIG    1        1.345   7.001   3.708  0.00  0.00    +0.570 C 
ATOM      8  O   LIG    1        1.659   5.916   3.257  0.00  0.00    -0.520 OA
ATOM      9  C   LIG    1       -2.164   6.795   2.787  0.00  0.00    +0.170 C 
ENDROOT
BRANCH   7  10
ATOM     10  C   LIG    1        2.288   7.744   4.567  0.00  0.00    -0.140 A 
ATOM     11  C   LIG    1        3.469   8.195   4.052  0.00  0.00    +0.300 A 
ATOM     12  N   LIG    1        4.342   8.880   4.835  0.00  0.00    -0.400 N 
ATOM     13  C   LIG    1        5.564   9.440   4.611  0.00  0.00    +0.360 A 
ATOM     14  N   LIG    1        5.959   9.982   5.733  0.00  0.00    -0.250 NA
ATOM     15  N   LIG    1        5.075   9.805   6.650  0.00  0.00    -0.280 NA
ATOM     16  C   LIG    1        4.052   9.130   6.155  0.00  0.00    +0.200 A 
ATOM     17  C   LIG    1        2.837   8.673   6.708  0.00  0.00    +0.090 A 
ATOM     18  C   LIG    1        1.963   7.994   5.924  0.00  0.00    +0.080 A 
ENDBRANCH   7  10
BRANCH   1  19
ATOM     19  C   LIG    1       -3.384   5.535   4.430  0.00  0.00    +0.260 C 
BRANCH  19  23
ATOM     20  C   LIG    1       -2.436   1.201   2.098  0.00  0.00    +0.360 C 
ATOM     21  N   LIG    1       -2.946   2.542   2.394  0.00  0.00    -0.370 N 
ATOM     22  C   LIG    1       -2.720   3.247   3.522  0.00  0.00    +0.250 A 
ATOM     23  C   LIG    1       -3.363   4.432   3.404  0.00  0.00    -0.250 A 
ATOM     24  C   LIG    1       -4.004   4.452   2.161  0.00  0.00    +0.230 A 
ATOM     25  N   LIG    1       -3.751   3.322   1.552  0.00  0.00    -0.290 NA
ENDBRANCH  19  23
ENDBRANCH   1  19
TORSDOF 3
