REMARK  Name = ZINCrH000004t9jr.0
REMARK                            x       y       z     vdW  Elec       q    Type
REMARK                         _______ _______ _______ _____ _____    ______ ____
ROOT
ATOM      1  N   LIG    1        0.626  -0.083   0.578  0.00  0.00    -0.660 N 
ATOM      2  H   LIG    1        1.535  -0.418   0.521  0.00  0.00    +0.400 HD
ATOM      3  C   LIG    1        0.381   1.233   0.420  0.00  0.00    +0.710 C 
ATOM      4  N   LIG    1        1.399   2.084   0.183  0.00  0.00    -0.710 N 
ATOM      5  H   LIG    1        2.314   1.763   0.201  0.00  0.00    +0.400 HD
ATOM      6  O   LIG    1       -0.758   1.651   0.486  0.00  0.00    -0.540 OA
ENDROOT
BRANCH   1  12
ATOM      7  C   LIG    1        0.912  -3.083   0.969  0.00  0.00    +0.360 C 
ATOM      8  N   LIG    1       -0.326  -2.301   1.000  0.00  0.00    -0.390 N 
ATOM      9  N   LIG    1       -1.615  -2.805   1.219  0.00  0.00    -0.270 NA
ATOM     10  C   LIG    1       -2.461  -1.808   1.175  0.00  0.00    +0.090 A 
ATOM     11  C   LIG    1       -1.743  -0.634   0.933  0.00  0.00    -0.080 A 
ATOM     12  C   LIG    1       -0.427  -0.964   0.823  0.00  0.00    +0.320 A 
BRANCH  10  13
ATOM     13  C   LIG    1       -3.953  -1.909   1.359  0.00  0.00    +0.250 C 
ATOM     14  C   LIG    1       -4.546  -2.959   0.387  0.00  0.00    +0.030 C 
ATOM     15  C   LIG    1       -5.841  -3.364   1.145  0.00  0.00    +0.000 C 
ATOM     16  C   LIG    1       -5.404  -3.259   2.622  0.00  0.00    +0.190 C 
ATOM     17  O   LIG    1       -4.261  -2.397   2.675  0.00  0.00    -0.370 OA
ENDBRANCH  10  13
ENDBRANCH   1  12
BRANCH   4  18
ATOM     18  C   LIG    1        1.123   3.494  -0.101  0.00  0.00    +0.210 C 
ATOM     19  C   LIG    1        0.648   3.752  -1.540  0.00  0.00    +0.040 C 
ATOM     20  C   LIG    1        2.131   3.911  -1.917  0.00  0.00    +0.020 C 
ATOM     21  C   LIG    1        2.379   4.309  -0.453  0.00  0.00    +0.050 C 
BRANCH  18  22
ATOM     22  C   LIG    1        0.257   4.144   0.948  0.00  0.00    -0.170 A 
ATOM     23  C   LIG    1       -1.122   4.085   0.841  0.00  0.00    +0.200 A 
ATOM     24  C   LIG    1       -1.917   4.677   1.808  0.00  0.00    -0.040 A 
ATOM     25  C   LIG    1       -1.334   5.336   2.873  0.00  0.00    +0.090 A 
ATOM     26  C   LIG    1        0.043   5.401   2.978  0.00  0.00    -0.040 A 
ATOM     27  F   LIG    1       -1.692   3.445  -0.204  0.00  0.00    -0.100 F 
ATOM     28  C   LIG    1        0.840   4.805   2.016  0.00  0.00    +0.140 A 
ATOM     29  F   LIG    1        2.185   4.867   2.119  0.00  0.00    -0.130 F 
ENDBRANCH  18  22
ENDBRANCH   4  18
TORSDOF 4
