REMARK  Name = ZINCvU0000000AW5.0
REMARK                            x       y       z     vdW  Elec       q    Type
REMARK                         _______ _______ _______ _____ _____    ______ ____
ROOT
ATOM      1  C   LIG    1        0.002  -0.004   0.002  0.00  0.00    +0.170 A 
ATOM      2  N   LIG    1       -0.016   1.310   0.009  0.00  0.00    -0.280 NA
ATOM      3  N   LIG    1        1.185   1.769   0.000  0.00  0.00    -0.260 NA
ATOM      4  C   LIG    1        2.045   0.777  -0.013  0.00  0.00    +0.240 A 
ATOM      5  N   LIG    1        1.314  -0.391  -0.013  0.00  0.00    -0.410 N 
ENDROOT
BRANCH   4   6
ATOM      6  C   LIG    1        3.518   0.892  -0.028  0.00  0.00    -0.070 A 
ATOM      7  C   LIG    1        4.134   2.110  -0.339  0.00  0.00    +0.120 A 
ATOM      8  C   LIG    1        5.517   2.165  -0.338  0.00  0.00    -0.020 A 
ATOM      9  C   LIG    1        6.239   1.026  -0.032  0.00  0.00    +0.270 A 
ATOM     10  N   LIG    1        5.632  -0.109   0.257  0.00  0.00    -0.480 NA
ATOM     11  C   LIG    1        4.319  -0.210   0.275  0.00  0.00    +0.280 A 
ENDBRANCH   4   6
BRANCH   5  12
ATOM     12  C   LIG    1        1.812  -1.702  -0.024  0.00  0.00    +0.090 A 
ATOM     13  C   LIG    1        2.042  -2.348  -1.231  0.00  0.00    +0.040 A 
ATOM     14  C   LIG    1        2.537  -3.637  -1.239  0.00  0.00    +0.030 A 
ATOM     15  C   LIG    1        2.792  -4.288  -0.046  0.00  0.00    +0.050 A 
ATOM     16  C   LIG    1        2.559  -3.649   1.158  0.00  0.00    +0.030 A 
ATOM     17  C   LIG    1        2.069  -2.358   1.172  0.00  0.00    -0.050 A 
BRANCH  17  18
ATOM     18  C   LIG    1        1.815  -1.663   2.484  0.00  0.00    +0.010 C 
ATOM     19  C   LIG    1        3.122  -1.570   3.275  0.00  0.00    +0.030 C 
ATOM     20  C   LIG    1        0.786  -2.457   3.292  0.00  0.00    +0.040 C 
ENDBRANCH  17  18
ENDBRANCH   5  12
BRANCH   1  21
ATOM     21  S   LIG    1       -1.402  -1.069   0.010  0.00  0.00    +0.030 S 
BRANCH  21  22
ATOM     22  C   LIG    1       -2.729   0.162   0.029  0.00  0.00    +0.160 C 
BRANCH  22  26
ATOM     23  C   LIG    1       -6.514  -1.825   0.058  0.00  0.00    +0.110 A 
ATOM     24  C   LIG    1       -5.887  -1.508   1.253  0.00  0.00    -0.040 A 
ATOM     25  C   LIG    1       -4.662  -0.866   1.241  0.00  0.00    +0.080 A 
ATOM     26  C   LIG    1       -4.063  -0.539   0.039  0.00  0.00    -0.090 A 
ATOM     27  C   LIG    1       -4.689  -0.849  -1.155  0.00  0.00    +0.060 A 
ATOM     28  C   LIG    1       -5.911  -1.496  -1.149  0.00  0.00    +0.070 A 
ATOM     29  F   LIG    1       -6.519  -1.804  -2.316  0.00  0.00    -0.130 F 
BRANCH  23  31
ATOM     30  C   LIG    1       -8.280  -2.762   1.346  0.00  0.00    +0.250 C 
ATOM     31  O   LIG    1       -7.719  -2.456   0.068  0.00  0.00    -0.310 OA
ENDBRANCH  23  31
ENDBRANCH  22  26
ENDBRANCH  21  22
ENDBRANCH   1  21
TORSDOF 7
