REMARK  Name = ZINCpe00000bI4td.0
REMARK                            x       y       z     vdW  Elec       q    Type
REMARK                         _______ _______ _______ _____ _____    ______ ____
ROOT
ATOM      1  N   LIG    1       -2.063  -0.584  -4.750  0.00  0.00    -0.360 N 
ATOM      2  N   LIG    1       -3.280  -0.386  -5.427  0.00  0.00    -0.080 NA
ATOM      3  N   LIG    1       -4.184  -0.213  -4.524  0.00  0.00    -0.030 NA
ATOM      4  N   LIG    1       -3.664  -0.287  -3.352  0.00  0.00    -0.350 NA
ATOM      5  C   LIG    1       -2.370  -0.506  -3.435  0.00  0.00    +0.420 A 
ENDROOT
BRANCH   5   6
ATOM      6  N   LIG    1       -1.490  -0.638  -2.376  0.00  0.00    -0.460 N 
ATOM      7  C   LIG    1       -2.126  -1.327  -1.246  0.00  0.00    +0.220 C 
ATOM      8  C   LIG    1       -1.085  -1.585  -0.153  0.00  0.00    +0.030 C 
ATOM      9  C   LIG    1       -0.493  -0.249   0.306  0.00  0.00    +0.120 C 
ATOM     10  C   LIG    1        0.121   0.470  -0.897  0.00  0.00    +0.100 C 
ATOM     11  C   LIG    1       -0.955   0.668  -1.969  0.00  0.00    +0.210 C 
BRANCH   9  12
ATOM     12  O   LIG    1       -1.526   0.561   0.872  0.00  0.00    -0.360 OA
ATOM     13  C   LIG    1       -2.104   0.020   2.061  0.00  0.00    +0.190 C 
ENDBRANCH   9  12
BRANCH   9  14
ATOM     14  C   LIG    1        0.589  -0.505   1.357  0.00  0.00    +0.160 C 
BRANCH  14  15
ATOM     15  O   LIG    1        1.162   0.740   1.763  0.00  0.00    -0.560 OA
ATOM     16  H   LIG    1        1.857   0.654   2.429  0.00  0.00    +0.380 HD
ENDBRANCH  14  15
ENDBRANCH   9  14
ENDBRANCH   5   6
BRANCH   1  17
ATOM     17  C   LIG    1       -0.745  -0.823  -5.343  0.00  0.00    +0.400 C 
BRANCH  17  22
ATOM     18  C   LIG    1        0.107  -4.477  -4.924  0.00  0.00    -0.100 A 
ATOM     19  C   LIG    1       -0.280  -4.993  -6.147  0.00  0.00    +0.050 A 
ATOM     20  C   LIG    1       -0.818  -4.159  -7.109  0.00  0.00    +0.010 A 
ATOM     21  C   LIG    1       -0.968  -2.810  -6.849  0.00  0.00    +0.050 A 
ATOM     22  C   LIG    1       -0.581  -2.294  -5.627  0.00  0.00    -0.130 A 
ATOM     23  C   LIG    1       -0.038  -3.127  -4.666  0.00  0.00    +0.060 A 
BRANCH  18  24
ATOM     24  C   LIG    1        0.693  -5.386  -3.875  0.00  0.00    +0.220 C 
BRANCH  24  26
ATOM     25  C   LIG    1        2.769  -6.281  -3.080  0.00  0.00    +0.200 C 
ATOM     26  O   LIG    1        2.112  -5.442  -4.031  0.00  0.00    -0.380 OA
ENDBRANCH  24  26
ENDBRANCH  18  24
ENDBRANCH  17  22
ENDBRANCH   1  17
TORSDOF 8
