REMARK  Name = ZINCzw0000000de1.0
REMARK                            x       y       z     vdW  Elec       q    Type
REMARK                         _______ _______ _______ _____ _____    ______ ____
ROOT
ATOM      1  C   LIG    1        0.083  -4.018   2.807  0.00  0.00    +0.220 C 
ENDROOT
BRANCH   1   2
ATOM      2  O   LIG    1        1.305  -4.474   2.224  0.00  0.00    -0.540 OA
ATOM      3  H   LIG    1        2.099  -4.181   2.692  0.00  0.00    +0.390 HD
ENDBRANCH   1   2
BRANCH   1   4
ATOM      4  C   LIG    1       -0.022  -4.537   4.243  0.00  0.00    +0.170 C 
BRANCH   4   5
ATOM      5  O   LIG    1       -0.120  -5.962   4.227  0.00  0.00    -0.360 OA
BRANCH   5   6
ATOM      6  C   LIG    1       -0.223  -6.552   5.525  0.00  0.00    +0.270 C 
BRANCH   6  10
ATOM      7  C   LIG    1       -4.341  -6.861   6.625  0.00  0.00    +0.140 A 
ATOM      8  C   LIG    1       -3.395  -6.489   7.570  0.00  0.00    -0.020 A 
ATOM      9  C   LIG    1       -2.065  -6.390   7.212  0.00  0.00    +0.060 A 
ATOM     10  C   LIG    1       -1.675  -6.661   5.913  0.00  0.00    -0.160 A 
ATOM     11  C   LIG    1       -2.616  -7.027   4.968  0.00  0.00    +0.080 A 
ATOM     12  C   LIG    1       -3.947  -7.134   5.323  0.00  0.00    -0.080 A 
BRANCH   7  14
ATOM     13  C   LIG    1       -6.568  -7.348   5.951  0.00  0.00    +0.250 C 
ATOM     14  O   LIG    1       -5.650  -6.959   6.975  0.00  0.00    -0.320 OA
ENDBRANCH   7  14
ENDBRANCH   6  10
BRANCH   6  15
ATOM     15  C   LIG    1        0.396  -7.926   5.503  0.00  0.00    -0.130 A 
ATOM     16  C   LIG    1        0.285  -8.715   4.374  0.00  0.00    +0.080 A 
ATOM     17  C   LIG    1        0.856  -9.973   4.349  0.00  0.00    -0.080 A 
ATOM     18  C   LIG    1        1.532 -10.448   5.464  0.00  0.00    +0.140 A 
ATOM     19  C   LIG    1        1.637  -9.656   6.598  0.00  0.00    -0.010 A 
ATOM     20  C   LIG    1        1.069  -8.397   6.615  0.00  0.00    +0.060 A 
BRANCH  18  21
ATOM     21  O   LIG    1        2.089 -11.687   5.445  0.00  0.00    -0.320 OA
ATOM     22  C   LIG    1        1.941 -12.447   4.243  0.00  0.00    +0.250 C 
ENDBRANCH  18  21
ENDBRANCH   6  15
ENDBRANCH   5   6
ENDBRANCH   4   5
ENDBRANCH   1   4
BRANCH   1  23
ATOM     23  C   LIG    1        0.063  -2.488   2.816  0.00  0.00    +0.250 C 
BRANCH  23  24
ATOM     24  N   LIG    1        0.043  -1.991   1.433  0.00  0.00    -0.500 N 
ATOM     25  H   LIG    1        0.866  -2.313   0.948  0.00  0.00    +0.430 HD
ATOM     26  H   LIG    1       -0.781  -2.336   0.964  0.00  0.00    +0.430 HD
BRANCH  24  27
ATOM     27  C   LIG    1        0.023  -0.522   1.442  0.00  0.00    +0.270 C 
BRANCH  27  28
ATOM     28  C   LIG    1        0.002  -0.004   0.002  0.00  0.00    +0.090 C 
BRANCH  28  29
ATOM     29  C   LIG    1       -0.018   1.503   0.010  0.00  0.00    -0.050 A 
ATOM     30  C   LIG    1       -1.225   2.178   0.020  0.00  0.00    +0.010 A 
ATOM     31  C   LIG    1       -1.244   3.560   0.032  0.00  0.00    +0.140 A 
ATOM     32  C   LIG    1       -0.056   4.267   0.025  0.00  0.00    -0.670 A 
ATOM     33  C   LIG    1        1.151   3.592   0.010  0.00  0.00    +0.130 A 
ATOM     34  C   LIG    1        1.169   2.210   0.003  0.00  0.00    +0.010 A 
BRANCH  32  35
ATOM     35  S   LIG    1       -0.080   6.029   0.033  0.00  0.00    +2.700 S 
ATOM     36  O   LIG    1        1.170   6.445   0.568  0.00  0.00    -0.950 OA
ATOM     37  O   LIG    1       -1.330   6.411   0.592  0.00  0.00    -0.950 OA
BRANCH  35  38
ATOM     38  N   LIG    1       -0.102   6.527  -1.546  0.00  0.00    -1.250 NA
ATOM     39  H   LIG    1        0.319   5.984  -2.231  0.00  0.00    +0.420 HD
ATOM     40  H   LIG    1       -0.535   7.361  -1.786  0.00  0.00    +0.430 HD
ENDBRANCH  35  38
ENDBRANCH  32  35
ENDBRANCH  28  29
ENDBRANCH  27  28
ENDBRANCH  24  27
ENDBRANCH  23  24
ENDBRANCH   1  23
TORSDOF 15
