REMARK  Name = ZINCrH00000No4Ta.0
REMARK                            x       y       z     vdW  Elec       q    Type
REMARK                         _______ _______ _______ _____ _____    ______ ____
ROOT
ATOM      1  N   LIG    1       -1.097   1.783  -0.170  0.00  0.00    -0.600 NA
ATOM      2  C   LIG    1       -2.200   1.219   0.328  0.00  0.00    +0.380 A 
ATOM      3  S   LIG    1       -3.638   2.020   0.835  0.00  0.00    +0.170 S 
ATOM      4  C   LIG    1       -4.479   0.534   1.309  0.00  0.00    -0.050 A 
ATOM      5  C   LIG    1       -3.624  -0.450   1.062  0.00  0.00    +0.260 A 
ATOM      6  N   LIG    1       -2.418  -0.099   0.543  0.00  0.00    -0.520 N 
ENDROOT
BRANCH   1   7
ATOM      7  C   LIG    1       -0.067   1.025  -0.522  0.00  0.00    +0.500 C 
ATOM      8  O   LIG    1        0.811   0.780   0.283  0.00  0.00    -0.450 OA
BRANCH   7  17
ATOM      9  C   LIG    1        3.166   1.296  -2.198  0.00  0.00    +0.080 C 
ATOM     10  C   LIG    1        2.247   0.318  -2.933  0.00  0.00    +0.170 C 
ATOM     11  C   LIG    1        3.016  -0.846  -3.579  0.00  0.00    +0.090 C 
ATOM     12  C   LIG    1        2.991  -1.880  -2.426  0.00  0.00    +0.090 C 
ATOM     13  C   LIG    1        1.765  -1.514  -1.621  0.00  0.00    +0.550 C 
ATOM     14  O   LIG    1        1.308  -2.181  -0.717  0.00  0.00    -0.500 OA
ATOM     15  S   LIG    1        1.181   1.145  -4.178  0.00  0.00    -0.250 S 
ATOM     16  C   LIG    1       -0.082   1.631  -2.926  0.00  0.00    +0.180 C 
ATOM     17  C   LIG    1        0.013   0.464  -1.919  0.00  0.00    +0.230 C 
ATOM     18  N   LIG    1        1.250  -0.316  -2.041  0.00  0.00    -0.620 N 
ENDBRANCH   7  17
ENDBRANCH   1   7
BRANCH   6  19
ATOM     19  C   LIG    1       -1.397  -1.103   0.232  0.00  0.00    +0.330 C 
BRANCH  19  20
ATOM     20  C   LIG    1       -1.275  -2.068   1.383  0.00  0.00    -0.090 A 
ATOM     21  C   LIG    1       -1.631  -3.393   1.215  0.00  0.00    +0.070 A 
ATOM     22  C   LIG    1       -1.519  -4.279   2.270  0.00  0.00    +0.030 A 
ATOM     23  C   LIG    1       -1.049  -3.840   3.495  0.00  0.00    -0.010 A 
ATOM     24  C   LIG    1       -0.692  -2.514   3.664  0.00  0.00    +0.050 A 
ATOM     25 CL   LIG    1       -0.908  -4.952   4.820  0.00  0.00    -0.050 Cl
ATOM     26  C   LIG    1       -0.800  -1.629   2.606  0.00  0.00    -0.010 A 
ATOM     27 CL   LIG    1       -0.346   0.033   2.815  0.00  0.00    -0.030 Cl
ENDBRANCH  19  20
ENDBRANCH   6  19
TORSDOF 4
