REMARK  Name = ZINCrH000004m8jo.0
REMARK                            x       y       z     vdW  Elec       q    Type
REMARK                         _______ _______ _______ _____ _____    ______ ____
ROOT
ATOM      1  N   LIG    1       -1.974   2.548   3.429  0.00  0.00    -0.660 N 
ATOM      2  H   LIG    1       -1.971   1.590   3.277  0.00  0.00    +0.420 HD
ATOM      3  C   LIG    1       -2.508   3.050   4.560  0.00  0.00    +0.520 C 
ATOM      4  O   LIG    1       -2.602   4.250   4.706  0.00  0.00    -0.510 OA
ENDROOT
BRANCH   1  12
ATOM      5  C   LIG    1       -1.341   3.014   1.139  0.00  0.00    +0.100 A 
ATOM      6  C   LIG    1       -0.800   3.873   0.196  0.00  0.00    -0.040 A 
ATOM      7  C   LIG    1       -0.338   5.120   0.580  0.00  0.00    -0.020 A 
ATOM      8  C   LIG    1       -0.413   5.511   1.904  0.00  0.00    -0.090 A 
ATOM      9  C   LIG    1       -0.952   4.659   2.851  0.00  0.00    +0.070 A 
ATOM     10  C   LIG    1        0.092   6.870   2.317  0.00  0.00    +0.100 C 
ATOM     11 CL   LIG    1        0.339   6.195  -0.604  0.00  0.00    -0.060 Cl
ATOM     12  C   LIG    1       -1.422   3.411   2.472  0.00  0.00    +0.130 A 
BRANCH   5  14
ATOM     13  C   LIG    1       -1.685   1.453  -0.621  0.00  0.00    +0.250 C 
ATOM     14  O   LIG    1       -1.795   1.789   0.763  0.00  0.00    -0.320 OA
ENDBRANCH   5  14
ENDBRANCH   1  12
BRANCH   3  15
ATOM     15  C   LIG    1       -2.987   2.119   5.644  0.00  0.00    -0.010 C 
ATOM     16  C   LIG    1       -4.093   1.215   5.090  0.00  0.00    +0.060 C 
ATOM     17  C   LIG    1       -4.618   0.315   6.211  0.00  0.00    +0.210 C 
ATOM     18  N   LIG    1       -5.141   1.145   7.303  0.00  0.00    -0.480 N 
ATOM     19  C   LIG    1       -4.086   1.987   7.882  0.00  0.00    +0.230 C 
ATOM     20  C   LIG    1       -3.545   2.937   6.812  0.00  0.00    +0.060 C 
BRANCH  18  21
ATOM     21  C   LIG    1       -5.743   0.363   8.277  0.00  0.00    +0.340 A 
ATOM     22  C   LIG    1       -6.771  -0.506   7.920  0.00  0.00    -0.040 A 
ATOM     23  C   LIG    1       -7.364  -1.277   8.885  0.00  0.00    +0.150 A 
ATOM     24  C   LIG    1       -6.909  -1.162  10.207  0.00  0.00    -0.110 A 
ATOM     25  C   LIG    1       -5.873  -0.270  10.492  0.00  0.00    +0.360 A 
ATOM     26  N   LIG    1       -5.327   0.449   9.533  0.00  0.00    -0.520 NA
BRANCH  24  27
ATOM     27  C   LIG    1       -7.498  -1.948  11.249  0.00  0.00    +0.260 C 
ATOM     28  N   LIG    1       -7.965  -2.572  12.075  0.00  0.00    -0.410 NA
ENDBRANCH  24  27
ENDBRANCH  18  21
ENDBRANCH   3  15
TORSDOF 5
