REMARK  Name = ZINCAx0000000dXy.0
REMARK                            x       y       z     vdW  Elec       q    Type
REMARK                         _______ _______ _______ _____ _____    ______ ____
ROOT
ATOM      1  C   LIG    1       -2.353   2.306   0.350  0.00  0.00    +0.400 A 
ATOM      2  N   LIG    1       -3.245   2.087  -0.554  0.00  0.00    -0.550 NA
ATOM      3  C   LIG    1       -4.540   2.249  -0.213  0.00  0.00    +0.190 A 
ATOM      4  C   LIG    1       -5.691   2.073  -1.010  0.00  0.00    +0.040 A 
ATOM      5  C   LIG    1       -6.940   2.287  -0.483  0.00  0.00    +0.150 A 
ATOM      6  C   LIG    1       -7.091   2.677   0.839  0.00  0.00    -0.690 A 
ATOM      7  C   LIG    1       -5.982   2.854   1.636  0.00  0.00    +0.200 A 
ATOM      8  C   LIG    1       -4.707   2.642   1.118  0.00  0.00    -0.220 A 
ATOM      9  S   LIG    1       -3.115   2.775   1.863  0.00  0.00    +0.060 S 
ENDROOT
BRANCH   6  10
ATOM     10  S   LIG    1       -8.703   2.947   1.499  0.00  0.00    +2.700 S 
ATOM     11  O   LIG    1       -9.546   3.236   0.393  0.00  0.00    -0.950 OA
ATOM     12  O   LIG    1       -8.541   3.827   2.603  0.00  0.00    -0.950 OA
BRANCH  10  13
ATOM     13  N   LIG    1       -9.225   1.505   2.122  0.00  0.00    -1.120 NA
ATOM     14  H   LIG    1       -9.989   1.055   1.729  0.00  0.00    +0.420 HD
BRANCH  13  15
ATOM     15  C   LIG    1       -8.533   0.908   3.267  0.00  0.00    +0.300 C 
BRANCH  15  16
ATOM     16  C   LIG    1       -9.406  -0.193   3.874  0.00  0.00    -0.090 C 
ATOM     17  C   LIG    1       -8.713  -0.793   5.114  0.00  0.00    +0.050 C 
ATOM     18  C   LIG    1       -9.057  -2.302   5.049  0.00  0.00    +0.010 C 
ATOM     19  C   LIG    1       -8.985  -2.603   3.531  0.00  0.00    +0.020 C 
ATOM     20  C   LIG    1       -9.579  -1.343   2.867  0.00  0.00    +0.050 C 
BRANCH  16  21
ATOM     21  C   LIG    1      -10.752   0.368   4.254  0.00  0.00    +0.530 C 
ATOM     22  O   LIG    1      -11.762  -0.105   3.777  0.00  0.00    -0.530 OA
ATOM     23  N   LIG    1      -10.834   1.394   5.123  0.00  0.00    -0.850 N 
ATOM     24  H   LIG    1      -11.702   1.708   5.423  0.00  0.00    +0.400 HD
ATOM     25  H   LIG    1      -10.026   1.820   5.449  0.00  0.00    +0.400 HD
ENDBRANCH  16  21
ENDBRANCH  15  16
ENDBRANCH  13  15
ENDBRANCH  10  13
ENDBRANCH   6  10
BRANCH   1  26
ATOM     26  N   LIG    1       -0.992   2.184   0.158  0.00  0.00    -0.680 N 
ATOM     27  H   LIG    1       -0.381   2.366   0.889  0.00  0.00    +0.420 HD
BRANCH  26  32
ATOM     28  N   LIG    1        1.495   1.872  -2.611  0.00  0.00    -0.490 N 
ATOM     29  C   LIG    1        1.546   0.408  -2.713  0.00  0.00    +0.190 C 
ATOM     30  C   LIG    1        0.131  -0.164  -2.595  0.00  0.00    +0.050 C 
ATOM     31  C   LIG    1       -0.472   0.252  -1.251  0.00  0.00    +0.020 C 
ATOM     32  C   LIG    1       -0.469   1.780  -1.150  0.00  0.00    +0.270 C 
ATOM     33  C   LIG    1        0.963   2.295  -1.309  0.00  0.00    +0.200 C 
BRANCH  28  38
ATOM     34  C   LIG    1        6.312   3.084  -2.152  0.00  0.00    +0.160 C 
ATOM     35  C   LIG    1        4.899   2.992  -2.666  0.00  0.00    +0.080 A 
ATOM     36  N   LIG    1        4.431   3.585  -3.734  0.00  0.00    -0.290 NA
ATOM     37  N   LIG    1        3.080   3.245  -3.873  0.00  0.00    -0.350 N 
ATOM     38  C   LIG    1        2.747   2.432  -2.844  0.00  0.00    +0.260 A 
ATOM     39  C   LIG    1        2.183   3.694  -4.941  0.00  0.00    +0.350 C 
ATOM     40  C   LIG    1        3.862   2.257  -2.082  0.00  0.00    -0.150 A 
ENDBRANCH  28  38
ENDBRANCH  26  32
ENDBRANCH   1  26
TORSDOF 8
