REMARK  Name = ZINCrD000000Bnyl.0
REMARK                            x       y       z     vdW  Elec       q    Type
REMARK                         _______ _______ _______ _____ _____    ______ ____
ROOT
ATOM      1  O   LIG    1       10.426   0.425   0.605  0.00  0.00    -0.590 OA
ATOM      2  C   LIG    1        9.646   0.442   1.538  0.00  0.00    +0.710 C 
ATOM      3  N   LIG    1       10.107   0.422   2.804  0.00  0.00    -0.740 N 
ATOM      4  H   LIG    1        9.484   0.436   3.547  0.00  0.00    +0.400 HD
ATOM      5  N   LIG    1        8.319   0.481   1.304  0.00  0.00    -0.740 N 
ATOM      6  H   LIG    1        7.696   0.495   2.048  0.00  0.00    +0.400 HD
ENDROOT
BRANCH   3   7
ATOM      7  C   LIG    1       11.549   0.379   3.057  0.00  0.00    +0.330 C 
BRANCH   7   8
ATOM      8  C   LIG    1       11.802   0.364   4.566  0.00  0.00    +0.080 C 
ATOM      9  S   LIG    1       11.015  -1.100   5.291  0.00  0.00    -0.230 S 
ATOM     10  C   LIG    1       11.791  -1.125   6.938  0.00  0.00    +0.120 C 
ATOM     11  C   LIG    1       13.282  -1.361   6.744  0.00  0.00    +0.100 C 
ATOM     12  C   LIG    1       13.923  -0.403   5.781  0.00  0.00    -0.070 A 
ATOM     13  C   LIG    1       15.312  -0.295   5.908  0.00  0.00    +0.000 A 
ATOM     14  C   LIG    1       16.047   0.529   5.090  0.00  0.00    +0.020 A 
ATOM     15  C   LIG    1       15.405   1.271   4.116  0.00  0.00    +0.010 A 
ATOM     16  C   LIG    1       14.038   1.175   3.989  0.00  0.00    +0.020 A 
ATOM     17  C   LIG    1       13.289   0.343   4.823  0.00  0.00    -0.080 A 
ENDBRANCH   7   8
ENDBRANCH   3   7
BRANCH   5  18
ATOM     18  C   LIG    1        7.817   0.503  -0.072  0.00  0.00    +0.340 C 
BRANCH  18  19
ATOM     19  C   LIG    1        6.311   0.546  -0.057  0.00  0.00    -0.090 A 
ATOM     20  C   LIG    1        5.656   1.765  -0.043  0.00  0.00    +0.030 A 
ATOM     21  C   LIG    1        4.277   1.810  -0.029  0.00  0.00    +0.040 A 
ATOM     22  C   LIG    1        3.543   0.626  -0.029  0.00  0.00    -0.010 A 
ATOM     23  C   LIG    1        4.208  -0.599  -0.036  0.00  0.00    +0.060 A 
ATOM     24  C   LIG    1        5.587  -0.633  -0.056  0.00  0.00    +0.030 A 
BRANCH  22  25
ATOM     25  C   LIG    1        2.060   0.668  -0.014  0.00  0.00    +0.270 A 
ATOM     26  N   LIG    1        1.325   1.758  -0.001  0.00  0.00    -0.300 NA
ATOM     27  N   LIG    1       -0.016   1.341   0.009  0.00  0.00    -0.480 N 
ATOM     28  H   LIG    1       -0.801   1.911   0.016  0.00  0.00    +0.450 HD
ATOM     29  C   LIG    1        0.002  -0.004   0.002  0.00  0.00    +0.500 A 
ATOM     30  N   LIG    1        1.248  -0.397  -0.012  0.00  0.00    -0.540 NA
ENDBRANCH  22  25
ENDBRANCH  18  19
ENDBRANCH   5  18
TORSDOF 5
