REMARK  Name = ZINCqH0000005GRV.0
REMARK                            x       y       z     vdW  Elec       q    Type
REMARK                         _______ _______ _______ _____ _____    ______ ____
ROOT
ATOM      1  C   LIG    1       -0.939   7.189   1.412  0.00  0.00    +0.110 C 
ATOM      2  C   LIG    1       -0.203   5.853   1.300  0.00  0.00    +0.260 C 
ATOM      3  N   LIG    1       -0.595   5.210   0.036  0.00  0.00    -0.460 N 
ATOM      4  C   LIG    1       -0.007   5.924  -1.101  0.00  0.00    +0.270 C 
ATOM      5  C   LIG    1       -0.328   7.394  -1.025  0.00  0.00    -0.100 A 
ATOM      6  C   LIG    1       -0.184   8.161  -2.172  0.00  0.00    +0.060 A 
ATOM      7  C   LIG    1       -0.463   9.512  -2.150  0.00  0.00    -0.070 A 
ATOM      8  C   LIG    1       -0.891  10.108  -0.973  0.00  0.00    +0.130 A 
ATOM      9  C   LIG    1       -1.036   9.341   0.172  0.00  0.00    +0.000 A 
ATOM     10  C   LIG    1       -0.757   7.984   0.145  0.00  0.00    -0.040 A 
ENDROOT
BRANCH   3  11
ATOM     11  C   LIG    1       -0.231   3.878   0.025  0.00  0.00    +0.280 A 
ATOM     12  N   LIG    1        0.983   3.447   0.011  0.00  0.00    -0.480 NA
ATOM     13  C   LIG    1        1.179   2.112   0.002  0.00  0.00    +0.080 A 
ATOM     14  C   LIG    1        2.396   1.399  -0.013  0.00  0.00    +0.120 A 
ATOM     15  C   LIG    1        2.398   0.027  -0.021  0.00  0.00    +0.010 A 
ATOM     16  C   LIG    1        1.204  -0.681  -0.013  0.00  0.00    +0.120 A 
ATOM     17  C   LIG    1        0.002  -0.004   0.002  0.00  0.00    +0.040 A 
ATOM     18  F   LIG    1        1.218  -2.032  -0.020  0.00  0.00    -0.130 F 
ATOM     19  C   LIG    1       -0.017   1.388   0.010  0.00  0.00    -0.150 A 
ATOM     20  S   LIG    1       -1.359   2.530   0.021  0.00  0.00    +0.130 S 
ENDBRANCH   3  11
BRANCH   1  21
ATOM     21  C   LIG    1       -0.383   7.968   2.576  0.00  0.00    +0.470 C 
ATOM     22  O   LIG    1        0.514   7.504   3.240  0.00  0.00    -0.500 OA
BRANCH  21  24
ATOM     23  C   LIG    1       -0.300   9.869   4.011  0.00  0.00    +0.270 C 
ATOM     24  O   LIG    1       -0.884   9.176   2.876  0.00  0.00    -0.350 OA
ENDBRANCH  21  24
ENDBRANCH   1  21
BRANCH   8  25
ATOM     25  O   LIG    1       -1.165  11.439  -0.942  0.00  0.00    -0.310 OA
ATOM     26  C   LIG    1       -0.993  12.165  -2.161  0.00  0.00    +0.250 C 
ENDBRANCH   8  25
TORSDOF 4
