REMARK  Name = ZINCvU0000000967.0
REMARK                            x       y       z     vdW  Elec       q    Type
REMARK                         _______ _______ _______ _____ _____    ______ ____
ROOT
ATOM      1  S   LIG    1        1.092   8.019  -0.640  0.00  0.00    +0.060 S 
ENDROOT
BRANCH   1   2
ATOM      2  C   LIG    1        1.206   6.269  -0.472  0.00  0.00    +0.070 A 
ATOM      3  C   LIG    1        2.317   5.680   0.177  0.00  0.00    -0.060 A 
ATOM      4  C   LIG    1        3.365   6.435   0.713  0.00  0.00    +0.050 A 
ATOM      5  C   LIG    1        4.404   5.797   1.326  0.00  0.00    +0.050 A 
ATOM      6  C   LIG    1        4.435   4.409   1.425  0.00  0.00    +0.050 A 
ATOM      7  C   LIG    1        3.428   3.644   0.913  0.00  0.00    +0.050 A 
ATOM      8  C   LIG    1        2.346   4.267   0.284  0.00  0.00    -0.050 A 
ATOM      9  C   LIG    1        1.265   3.541  -0.277  0.00  0.00    +0.150 A 
ATOM     10  N   LIG    1        0.283   4.207  -0.860  0.00  0.00    -0.240 NA
ATOM     11  N   LIG    1        0.255   5.484  -0.952  0.00  0.00    -0.270 NA
BRANCH   9  12
ATOM     12  C   LIG    1        1.234   2.063  -0.205  0.00  0.00    -0.050 A 
ATOM     13  C   LIG    1        1.564   1.412   0.983  0.00  0.00    +0.030 A 
ATOM     14  C   LIG    1        1.533   0.034   1.044  0.00  0.00    +0.010 A 
ATOM     15  C   LIG    1        1.175  -0.702  -0.072  0.00  0.00    +0.030 A 
ATOM     16  C   LIG    1        0.847  -0.063  -1.254  0.00  0.00    +0.010 A 
ATOM     17  C   LIG    1        0.874   1.315  -1.327  0.00  0.00    +0.050 A 
ENDBRANCH   9  12
ENDBRANCH   1   2
BRANCH   1  18
ATOM     18  C   LIG    1       -0.485   8.148  -1.520  0.00  0.00    +0.020 C 
ATOM     19  C   LIG    1       -0.350   7.508  -2.904  0.00  0.00    +0.090 C 
BRANCH  18  22
ATOM     20  N   LIG    1       -2.151   9.951  -1.818  0.00  0.00    -0.670 N 
ATOM     21  H   LIG    1       -2.847   9.278  -1.758  0.00  0.00    +0.420 HD
ATOM     22  C   LIG    1       -0.858   9.600  -1.672  0.00  0.00    +0.540 C 
ATOM     23  O   LIG    1        0.005  10.452  -1.663  0.00  0.00    -0.500 OA
BRANCH  20  27
ATOM     24  C   LIG    1       -3.158  13.925  -2.527  0.00  0.00    -0.190 A 
ATOM     25  C   LIG    1       -2.087  13.612  -1.681  0.00  0.00    +0.100 A 
ATOM     26  C   LIG    1       -1.759  12.301  -1.450  0.00  0.00    +0.010 A 
ATOM     27  C   LIG    1       -2.489  11.282  -2.055  0.00  0.00    +0.180 A 
ATOM     28  C   LIG    1       -3.550  11.588  -2.902  0.00  0.00    -0.030 A 
ATOM     29  C   LIG    1       -3.889  12.896  -3.134  0.00  0.00    +0.090 A 
BRANCH  24  31
ATOM     30  C   LIG    1       -4.667  15.662  -3.689  0.00  0.00    +0.070 C 
ATOM     31  C   LIG    1       -3.514  15.328  -2.777  0.00  0.00    +0.390 C 
ATOM     32  O   LIG    1       -2.880  16.217  -2.250  0.00  0.00    -0.460 OA
ENDBRANCH  24  31
ENDBRANCH  20  27
ENDBRANCH  18  22
ENDBRANCH   1  18
TORSDOF 6
