REMARK  Name = ZINCrg000000rpVO.0
REMARK                            x       y       z     vdW  Elec       q    Type
REMARK                         _______ _______ _______ _____ _____    ______ ____
ROOT
ATOM      1  N   LIG    1        0.992   3.910   1.558  0.00  0.00    -1.010 NA
ATOM      2  C   LIG    1        2.310   3.427   1.121  0.00  0.00    +0.300 C 
ATOM      3  C   LIG    1        2.141   2.675  -0.205  0.00  0.00    +0.290 C 
ATOM      4  N   LIG    1        1.044   1.708  -0.060  0.00  0.00    -0.600 N 
ATOM      5  C   LIG    1       -0.275   2.192   0.371  0.00  0.00    +0.270 C 
ATOM      6  C   LIG    1        1.243   0.401  -0.324  0.00  0.00    +0.570 C 
ATOM      7  O   LIG    1        2.314   0.025  -0.758  0.00  0.00    -0.520 OA
ATOM      8  C   LIG    1       -0.104   2.943   1.703  0.00  0.00    +0.290 C 
ENDROOT
BRANCH   6   9
ATOM      9  C   LIG    1        0.159  -0.574  -0.084  0.00  0.00    -0.110 A 
ATOM     10  C   LIG    1       -1.139  -0.300  -0.520  0.00  0.00    +0.070 A 
ATOM     11  C   LIG    1       -2.147  -1.212  -0.295  0.00  0.00    +0.030 A 
ATOM     12  C   LIG    1       -1.876  -2.401   0.363  0.00  0.00    +0.090 A 
ATOM     13  C   LIG    1       -0.587  -2.680   0.800  0.00  0.00    +0.070 A 
ATOM     14  F   LIG    1       -0.329  -3.841   1.441  0.00  0.00    -0.120 F 
ATOM     15  F   LIG    1       -2.868  -3.292   0.581  0.00  0.00    -0.120 F 
ATOM     16  C   LIG    1        0.430  -1.775   0.574  0.00  0.00    +0.090 A 
ENDBRANCH   6   9
BRANCH   1  17
ATOM     17  S   LIG    1        0.748   5.516   1.882  0.00  0.00    +2.780 S 
ATOM     18  O   LIG    1        2.034   6.082   2.098  0.00  0.00    -0.970 OA
ATOM     19  O   LIG    1       -0.299   5.577   2.840  0.00  0.00    -0.970 OA
BRANCH  17  23
ATOM     20  C   LIG    1        1.306   8.890  -1.912  0.00  0.00    +0.070 C 
ATOM     21  C   LIG    1        0.502   8.260  -0.773  0.00  0.00    +0.140 C 
ATOM     22  C   LIG    1        1.058   6.866  -0.463  0.00  0.00    +0.270 C 
ATOM     23  N   LIG    1        0.158   6.210   0.499  0.00  0.00    -1.010 NA
ATOM     24  C   LIG    1       -1.281   6.185   0.193  0.00  0.00    +0.270 C 
ATOM     25  C   LIG    1       -1.724   7.617  -0.146  0.00  0.00    +0.200 C 
ATOM     26  C   LIG    1       -1.632   8.495   1.104  0.00  0.00    +0.010 C 
ATOM     27  O   LIG    1       -0.868   8.144  -1.163  0.00  0.00    -0.370 OA
ENDBRANCH  17  23
ENDBRANCH   1  17
TORSDOF 3
