REMARK  Name = ZINCqH0000006iIf.0
REMARK                            x       y       z     vdW  Elec       q    Type
REMARK                         _______ _______ _______ _____ _____    ______ ____
ROOT
ATOM      1  N   LIG    1       -0.020   1.094   2.454  0.00  0.00    -0.470 N 
ATOM      2  C   LIG    1       -0.258  -0.096   3.124  0.00  0.00    +0.060 A 
ATOM      3  C   LIG    1       -1.141  -1.147   2.932  0.00  0.00    +0.040 A 
ATOM      4  C   LIG    1       -1.125  -2.224   3.794  0.00  0.00    +0.050 A 
ATOM      5  C   LIG    1       -0.226  -2.265   4.851  0.00  0.00    -0.040 A 
ATOM      6  C   LIG    1        0.663  -1.232   5.053  0.00  0.00    +0.080 A 
ATOM      7 CL   LIG    1       -0.221  -3.628   5.925  0.00  0.00    -0.060 Cl
ATOM      8  C   LIG    1        0.658  -0.134   4.188  0.00  0.00    +0.070 A 
ATOM      9  N   LIG    1        1.391   1.009   4.128  0.00  0.00    -0.490 NA
ATOM     10  C   LIG    1        0.994   1.732   3.110  0.00  0.00    +0.260 A 
ENDROOT
BRANCH   1  11
ATOM     11  C   LIG    1       -0.729   1.579   1.267  0.00  0.00    +0.330 C 
BRANCH  11  12
ATOM     12  C   LIG    1       -0.013   1.086   0.008  0.00  0.00    +0.170 C 
BRANCH  12  14
ATOM     13  C   LIG    1       -0.114   1.152  -2.386  0.00  0.00    +0.210 C 
ATOM     14  O   LIG    1       -0.704   1.559  -1.150  0.00  0.00    -0.390 OA
ENDBRANCH  12  14
ENDBRANCH  11  12
ENDBRANCH   1  11
BRANCH  10  15
ATOM     15  S   LIG    1        1.669   3.295   2.654  0.00  0.00    +0.080 S 
BRANCH  15  16
ATOM     16  C   LIG    1        2.927   3.481   3.942  0.00  0.00    +0.020 C 
ATOM     17  C   LIG    1        3.992   2.396   3.775  0.00  0.00    +0.080 C 
BRANCH  16  18
ATOM     18  C   LIG    1        3.571   4.839   3.822  0.00  0.00    +0.540 C 
ATOM     19  N   LIG    1        4.227   5.368   4.874  0.00  0.00    -0.720 N 
ATOM     20  H   LIG    1        4.285   4.876   5.708  0.00  0.00    +0.410 HD
ATOM     21  O   LIG    1        3.498   5.455   2.780  0.00  0.00    -0.520 OA
BRANCH  19  22
ATOM     22  C   LIG    1        4.853   6.688   4.758  0.00  0.00    +0.390 C 
BRANCH  22  23
ATOM     23  C   LIG    1        5.515   7.046   6.063  0.00  0.00    -0.050 A 
ATOM     24  C   LIG    1        6.786   6.765   6.404  0.00  0.00    -0.030 A 
ATOM     25  C   LIG    1        6.985   7.279   7.705  0.00  0.00    -0.070 A 
ATOM     26  C   LIG    1        5.824   7.845   8.082  0.00  0.00    +0.190 A 
ATOM     27  O   LIG    1        4.939   7.705   7.082  0.00  0.00    -0.170 OA
ENDBRANCH  22  23
ENDBRANCH  19  22
ENDBRANCH  16  18
ENDBRANCH  15  16
ENDBRANCH  10  15
TORSDOF 8
