REMARK  Name = ZINCrH00000No4SC.0
REMARK                            x       y       z     vdW  Elec       q    Type
REMARK                         _______ _______ _______ _____ _____    ______ ____
ROOT
ATOM      1  C   LIG    1        0.162   6.042  -0.442  0.00  0.00    +0.270 C 
ATOM      2  C   LIG    1       -0.030   7.401  -0.322  0.00  0.00    -0.150 C 
ENDROOT
BRANCH   1   6
ATOM      3  C   LIG    1       -1.636   3.398   2.342  0.00  0.00    +0.140 A 
ATOM      4  C   LIG    1       -2.219   4.631   2.081  0.00  0.00    -0.040 A 
ATOM      5  C   LIG    1       -1.640   5.494   1.177  0.00  0.00    +0.050 A 
ATOM      6  C   LIG    1       -0.458   5.127   0.518  0.00  0.00    -0.120 A 
ATOM      7  C   LIG    1        0.132   3.883   0.787  0.00  0.00    +0.020 A 
ATOM      8  C   LIG    1       -0.459   3.025   1.690  0.00  0.00    +0.100 A 
BRANCH   3  10
ATOM      9  C   LIG    1       -3.415   2.997   3.865  0.00  0.00    +0.250 C 
ATOM     10  O   LIG    1       -2.212   2.553   3.234  0.00  0.00    -0.300 OA
ENDBRANCH   3  10
BRANCH   8  11
ATOM     11  O   LIG    1        0.107   1.816   1.950  0.00  0.00    -0.300 OA
ATOM     12  C   LIG    1        1.310   1.499   1.247  0.00  0.00    +0.240 C 
ENDBRANCH   8  11
ENDBRANCH   1   6
BRANCH   2  13
ATOM     13  C   LIG    1        0.443   8.307  -1.379  0.00  0.00    +0.580 C 
ATOM     14  N   LIG    1        0.256   9.637  -1.261  0.00  0.00    -0.660 N 
ATOM     15  H   LIG    1       -0.119  10.003  -0.445  0.00  0.00    +0.410 HD
ATOM     16  O   LIG    1        1.004   7.857  -2.361  0.00  0.00    -0.500 OA
BRANCH  14  17
ATOM     17  C   LIG    1        0.601  10.485  -2.312  0.00  0.00    +0.160 A 
ATOM     18  C   LIG    1        0.645  10.009  -3.606  0.00  0.00    +0.020 A 
ATOM     19  C   LIG    1        0.983  10.852  -4.660  0.00  0.00    +0.060 A 
ATOM     20  C   LIG    1        1.289  12.161  -4.446  0.00  0.00    +0.030 A 
ATOM     21  C   LIG    1        1.262  12.686  -3.142  0.00  0.00    +0.140 A 
ATOM     22  N   LIG    1        1.560  13.969  -2.911  0.00  0.00    -0.470 NA
ATOM     23  C   LIG    1        1.537  14.466  -1.697  0.00  0.00    +0.290 A 
ATOM     24  C   LIG    1        1.203  13.686  -0.593  0.00  0.00    -0.030 A 
ATOM     25  C   LIG    1        0.888  12.366  -0.761  0.00  0.00    +0.070 A 
ATOM     26  C   LIG    1        0.914  11.838  -2.062  0.00  0.00    -0.120 A 
ENDBRANCH  14  17
ENDBRANCH   2  13
BRANCH   2  27
ATOM     27  C   LIG    1       -0.690   7.932   0.833  0.00  0.00    +0.240 C 
ATOM     28  N   LIG    1       -1.213   8.352   1.750  0.00  0.00    -0.400 NA
ENDBRANCH   2  27
TORSDOF 6
