REMARK  Name = ZINCnE000001FIL5.0
REMARK                            x       y       z     vdW  Elec       q    Type
REMARK                         _______ _______ _______ _____ _____    ______ ____
ROOT
ATOM      1  C   LIG    1        0.840   6.658   2.418  0.00  0.00    +0.610 C 
ATOM      2  N   LIG    1        0.603   7.957   2.151  0.00  0.00    -0.610 N 
ATOM      3  C   LIG    1       -0.512   8.534   1.364  0.00  0.00    +0.260 C 
ATOM      4  C   LIG    1       -0.911   9.812   2.141  0.00  0.00    +0.070 C 
ATOM      5  C   LIG    1        0.353  10.206   2.933  0.00  0.00    -0.200 C 
ATOM      6  C   LIG    1        1.401   9.132   2.571  0.00  0.00    +0.310 C 
ATOM      7  O   LIG    1        1.745   6.347   3.171  0.00  0.00    -0.530 OA
ENDROOT
BRANCH   1  11
ATOM      8  C   LIG    1       -0.828   3.533   1.365  0.00  0.00    -0.120 A 
ATOM      9  C   LIG    1       -1.590   4.226   0.511  0.00  0.00    -0.220 A 
ATOM     10  S   LIG    1       -1.219   5.890   0.575  0.00  0.00    +0.210 S 
ATOM     11  C   LIG    1        0.009   5.619   1.803  0.00  0.00    -0.250 A 
ATOM     12  C   LIG    1       -2.636   3.617  -0.387  0.00  0.00    +0.150 C 
ATOM     13  C   LIG    1        0.062   4.285   2.095  0.00  0.00    +0.100 A 
BRANCH   8  14
ATOM     14  C   LIG    1       -0.940   2.038   1.520  0.00  0.00    +0.080 C 
BRANCH  14  16
ATOM     15  C   LIG    1       -0.196  -0.168   0.614  0.00  0.00    +0.000 C 
ATOM     16  C   LIG    1       -0.081   1.349   0.457  0.00  0.00    +0.000 C 
ENDBRANCH  14  16
ENDBRANCH   8  14
ENDBRANCH   1  11
BRANCH   5  17
ATOM     17  C   LIG    1        0.840  11.591   2.502  0.00  0.00    +0.480 C 
ATOM     18  F   LIG    1        2.023  11.901   3.181  0.00  0.00    -0.170 F 
ATOM     19  F   LIG    1       -0.137  12.545   2.809  0.00  0.00    -0.180 F 
ATOM     20  F   LIG    1        1.078  11.594   1.124  0.00  0.00    -0.200 F 
ENDBRANCH   5  17
BRANCH   5  21
ATOM     21  C   LIG    1        0.071  10.185   4.413  0.00  0.00    +0.520 C 
ATOM     22  O   LIG    1       -1.052   9.938   4.816  0.00  0.00    -0.670 OA
ATOM     23  O   LIG    1        0.967  10.416   5.207  0.00  0.00    -0.660 OA
ENDBRANCH   5  21
TORSDOF 5
