REMARK  Name = ZINCrH000004lBUf.0
REMARK                            x       y       z     vdW  Elec       q    Type
REMARK                         _______ _______ _______ _____ _____    ______ ____
ROOT
ATOM      1  N   LIG    1       -3.631   3.291   0.053  0.00  0.00    -0.720 N 
ATOM      2  H   LIG    1       -3.660   2.321   0.048  0.00  0.00    +0.400 HD
ATOM      3  C   LIG    1       -2.445   3.930   0.046  0.00  0.00    +0.560 C 
ATOM      4  O   LIG    1       -2.409   5.145   0.053  0.00  0.00    -0.510 OA
ENDROOT
BRANCH   3   5
ATOM      5  C   LIG    1       -1.191   3.155   0.030  0.00  0.00    -0.180 A 
ATOM      6  C   LIG    1       -1.217   1.756   0.017  0.00  0.00    +0.120 A 
ATOM      7  C   LIG    1       -0.013   1.076   0.008  0.00  0.00    -0.040 A 
ATOM      8  C   LIG    1        1.173   1.789   0.001  0.00  0.00    +0.320 A 
ATOM      9  N   LIG    1        1.178   3.107   0.008  0.00  0.00    -0.500 NA
ATOM     10  C   LIG    1        0.054   3.809   0.022  0.00  0.00    +0.150 A 
BRANCH  10  11
ATOM     11  S   LIG    1        0.121   5.570   0.032  0.00  0.00    +0.080 S 
BRANCH  11  12
ATOM     12  C   LIG    1        1.913   5.817   0.017  0.00  0.00    +0.150 C 
BRANCH  12  13
ATOM     13  C   LIG    1        2.217   7.293   0.022  0.00  0.00    +0.030 A 
ATOM     14  N   LIG    1        2.384   8.051   1.067  0.00  0.00    -0.350 NA
ATOM     15  O   LIG    1        2.617   9.196   0.755  0.00  0.00    +0.110 OA
ATOM     16  C   LIG    1        2.634   9.349  -0.577  0.00  0.00    -0.030 A 
ATOM     17  C   LIG    1        2.889  10.626  -1.335  0.00  0.00    +0.180 C 
ATOM     18  C   LIG    1        2.383   8.128  -1.107  0.00  0.00    -0.060 A 
ENDBRANCH  12  13
ENDBRANCH  11  12
ENDBRANCH  10  11
ENDBRANCH   3   5
BRANCH   1  19
ATOM     19  C   LIG    1       -4.878   4.061   0.069  0.00  0.00    +0.320 C 
BRANCH  19  24
ATOM     20  C   LIG    1       -7.656   1.808   1.278  0.00  0.00    -0.090 A 
ATOM     21  C   LIG    1       -8.206   1.383   0.084  0.00  0.00    +0.040 A 
ATOM     22  C   LIG    1       -7.679   1.824  -1.116  0.00  0.00    +0.010 A 
ATOM     23  C   LIG    1       -6.605   2.694  -1.121  0.00  0.00    +0.040 A 
ATOM     24  C   LIG    1       -6.052   3.116   0.074  0.00  0.00    -0.120 A 
ATOM     25  C   LIG    1       -6.579   2.675   1.274  0.00  0.00    +0.050 A 
BRANCH  20  26
ATOM     26  C   LIG    1       -8.231   1.327   2.586  0.00  0.00    +0.220 C 
BRANCH  26  28
ATOM     27  C   LIG    1       -9.871   1.858   4.251  0.00  0.00    +0.200 C 
ATOM     28  O   LIG    1       -9.257   2.225   3.014  0.00  0.00    -0.390 OA
ENDBRANCH  26  28
ENDBRANCH  20  26
ENDBRANCH  19  24
ENDBRANCH   1  19
TORSDOF 8
