REMARK  Name = ZINCpk00000Fdax8.0
REMARK                            x       y       z     vdW  Elec       q    Type
REMARK                         _______ _______ _______ _____ _____    ______ ____
ROOT
ATOM      1  O   LIG    1       -2.346  -3.033  -3.544  0.00  0.00    -0.510 OA
ATOM      2  C   LIG    1       -3.118  -2.479  -2.791  0.00  0.00    +0.530 C 
ATOM      3  N   LIG    1       -2.653  -1.850  -1.693  0.00  0.00    -0.610 N 
ATOM      4  C   LIG    1       -3.475  -1.141  -0.696  0.00  0.00    +0.250 C 
ATOM      5  C   LIG    1       -2.511  -0.119  -0.036  0.00  0.00    +0.090 C 
ATOM      6  C   LIG    1       -1.188  -0.928   0.009  0.00  0.00    +0.210 C 
ATOM      7  C   LIG    1       -1.242  -1.759  -1.290  0.00  0.00    +0.270 C 
ENDROOT
BRANCH   6   8
ATOM      8  C   LIG    1        0.002  -0.004   0.002  0.00  0.00    -0.020 A 
ATOM      9  N   LIG    1       -0.016   1.310   0.009  0.00  0.00    -0.260 NA
ATOM     10  N   LIG    1        1.196   1.739   0.000  0.00  0.00    -0.240 N 
ATOM     11  H   LIG    1        1.450   2.675   0.002  0.00  0.00    +0.470 HD
ATOM     12  N   LIG    1        2.027   0.757  -0.013  0.00  0.00    -0.280 NA
ATOM     13  C   LIG    1        1.350  -0.368  -0.013  0.00  0.00    +0.190 A 
ENDBRANCH   6   8
BRANCH   6  14
ATOM     14  O   LIG    1       -1.156  -1.782   1.154  0.00  0.00    -0.530 OA
ATOM     15  H   LIG    1       -0.366  -2.337   1.209  0.00  0.00    +0.390 HD
ENDBRANCH   6  14
BRANCH   2  16
ATOM     16  C   LIG    1       -4.596  -2.493  -3.081  0.00  0.00    +0.250 C 
BRANCH  16  17
ATOM     17  O   LIG    1       -4.837  -3.216  -4.290  0.00  0.00    -0.290 OA
BRANCH  17  18
ATOM     18  C   LIG    1       -6.128  -3.323  -4.697  0.00  0.00    +0.150 A 
ATOM     19  C   LIG    1       -7.131  -2.760  -3.960  0.00  0.00    -0.100 A 
ATOM     20  C   LIG    1       -8.460  -2.856  -4.367  0.00  0.00    +0.050 A 
ATOM     21  C   LIG    1       -8.799  -3.524  -5.504  0.00  0.00    -0.010 A 
ATOM     22  C   LIG    1       -7.797  -4.122  -6.288  0.00  0.00    -0.020 A 
ATOM     23  C   LIG    1       -8.112  -4.818  -7.467  0.00  0.00    +0.010 A 
ATOM     24  C   LIG    1       -7.115  -5.385  -8.201  0.00  0.00    +0.030 A 
ATOM     25  C   LIG    1       -5.785  -5.285  -7.801  0.00  0.00    +0.000 A 
ATOM     26  C   LIG    1       -5.443  -4.618  -6.664  0.00  0.00    +0.050 A 
ATOM     27  C   LIG    1       -6.444  -4.021  -5.881  0.00  0.00    -0.070 A 
ENDBRANCH  17  18
ENDBRANCH  16  17
ENDBRANCH   2  16
TORSDOF 5
