REMARK  Name = ZINCpk00000Fdax8.1
REMARK                            x       y       z     vdW  Elec       q    Type
REMARK                         _______ _______ _______ _____ _____    ______ ____
ROOT
ATOM      1  O   LIG    1       -1.071  -2.228   3.509  0.00  0.00    -0.510 OA
ATOM      2  C   LIG    1       -0.125  -2.484   2.795  0.00  0.00    +0.530 C 
ATOM      3  N   LIG    1        0.123  -1.726   1.708  0.00  0.00    -0.610 N 
ATOM      4  C   LIG    1        1.232  -1.925   0.757  0.00  0.00    +0.250 C 
ATOM      5  C   LIG    1        1.456  -0.534   0.113  0.00  0.00    +0.090 C 
ATOM      6  C   LIG    1        0.002  -0.004   0.002  0.00  0.00    +0.210 C 
ATOM      7  C   LIG    1       -0.669  -0.566   1.273  0.00  0.00    +0.260 C 
ENDROOT
BRANCH   6   8
ATOM      8  C   LIG    1       -0.018   1.503   0.010  0.00  0.00    -0.050 A 
ATOM      9  C   LIG    1       -1.114   2.298   0.019  0.00  0.00    +0.170 A 
ATOM     10  N   LIG    1       -0.655   3.571   0.028  0.00  0.00    -0.390 N 
ATOM     11  H   LIG    1       -1.202   4.372   0.037  0.00  0.00    +0.450 HD
ATOM     12  N   LIG    1        0.631   3.537   0.015  0.00  0.00    -0.070 NA
ATOM     13  N   LIG    1        1.042   2.318   0.005  0.00  0.00    -0.240 NA
ENDBRANCH   6   8
BRANCH   6  14
ATOM     14  O   LIG    1       -0.636  -0.510  -1.172  0.00  0.00    -0.530 OA
ATOM     15  H   LIG    1       -1.559  -0.239  -1.266  0.00  0.00    +0.380 HD
ENDBRANCH   6  14
BRANCH   2  16
ATOM     16  C   LIG    1        0.773  -3.649   3.122  0.00  0.00    +0.250 C 
BRANCH  16  17
ATOM     17  O   LIG    1        0.308  -4.290   4.311  0.00  0.00    -0.290 OA
BRANCH  17  18
ATOM     18  C   LIG    1        1.011  -5.366   4.747  0.00  0.00    +0.150 A 
ATOM     19  C   LIG    1        2.108  -5.798   4.055  0.00  0.00    -0.090 A 
ATOM     20  C   LIG    1        2.843  -6.897   4.492  0.00  0.00    +0.050 A 
ATOM     21  C   LIG    1        2.485  -7.580   5.614  0.00  0.00    -0.010 A 
ATOM     22  C   LIG    1        1.360  -7.172   6.351  0.00  0.00    -0.020 A 
ATOM     23  C   LIG    1        0.963  -7.854   7.513  0.00  0.00    +0.010 A 
ATOM     24  C   LIG    1       -0.132  -7.429   8.202  0.00  0.00    +0.030 A 
ATOM     25  C   LIG    1       -0.867  -6.326   7.772  0.00  0.00    +0.000 A 
ATOM     26  C   LIG    1       -0.511  -5.641   6.651  0.00  0.00    +0.050 A 
ATOM     27  C   LIG    1        0.612  -6.050   5.914  0.00  0.00    -0.070 A 
ENDBRANCH  17  18
ENDBRANCH  16  17
ENDBRANCH   2  16
TORSDOF 5
