REMARK  Name = ZINCnE000001GuRX.0
REMARK                            x       y       z     vdW  Elec       q    Type
REMARK                         _______ _______ _______ _____ _____    ______ ____
ROOT
ATOM      1  C   LIG    1       -2.455   0.869   0.018  0.00  0.00    -0.280 A 
ATOM      2  C   LIG    1       -2.439  -0.526   0.011  0.00  0.00    +0.100 A 
ATOM      3  C   LIG    1       -3.637  -1.230   0.013  0.00  0.00    -0.210 A 
ATOM      4  C   LIG    1       -4.852  -0.543   0.023  0.00  0.00    +0.090 A 
ATOM      5  C   LIG    1       -4.871   0.836   0.030  0.00  0.00    -0.160 A 
ATOM      6 CL   LIG    1       -6.387   1.681   0.041  0.00  0.00    -0.100 Cl
ATOM      7  C   LIG    1       -3.680   1.550   0.034  0.00  0.00    +0.320 A 
ATOM      8  O   LIG    1       -3.702   2.907   0.047  0.00  0.00    -0.620 OA
ENDROOT
BRANCH   3   9
ATOM      9  C   LIG    1       -3.624  -2.714   0.005  0.00  0.00    +0.020 A 
ATOM     10  C   LIG    1       -2.413  -3.403  -0.011  0.00  0.00    -0.020 A 
ATOM     11  C   LIG    1       -2.407  -4.783  -0.012  0.00  0.00    +0.000 A 
ATOM     12  C   LIG    1       -3.601  -5.482  -0.010  0.00  0.00    -0.050 A 
ATOM     13  C   LIG    1       -4.806  -4.804  -0.000  0.00  0.00    +0.000 A 
ATOM     14  C   LIG    1       -4.824  -3.424   0.007  0.00  0.00    -0.020 A 
ENDBRANCH   3   9
BRANCH   1  17
ATOM     15  N   LIG    1       -0.011   0.966   0.007  0.00  0.00    -0.610 N 
ATOM     16  H   LIG    1        0.002  -0.004   0.002  0.00  0.00    +0.400 HD
ATOM     17  C   LIG    1       -1.187   1.624   0.017  0.00  0.00    +0.580 C 
ATOM     18  O   LIG    1       -1.204   2.840   0.023  0.00  0.00    -0.500 OA
BRANCH  15  19
ATOM     19  O   LIG    1        1.205   1.690  -0.000  0.00  0.00    -0.140 OA
BRANCH  19  20
ATOM     20  C   LIG    1        2.373   0.866  -0.016  0.00  0.00    +0.170 C 
BRANCH  20  21
ATOM     21  C   LIG    1        3.621   1.751  -0.023  0.00  0.00    +0.200 C 
BRANCH  21  22
ATOM     22  O   LIG    1        3.693   2.484   1.201  0.00  0.00    -0.380 OA
BRANCH  22  24
ATOM     23  C   LIG    1        4.802   4.076   2.641  0.00  0.00    +0.050 C 
ATOM     24  C   LIG    1        4.829   3.346   1.297  0.00  0.00    +0.160 C 
ENDBRANCH  22  24
ENDBRANCH  21  22
ENDBRANCH  20  21
ENDBRANCH  19  20
ENDBRANCH  15  19
ENDBRANCH   1  17
TORSDOF 7
