REMARK  Name = ZINCnE000001TyIt.0
REMARK                            x       y       z     vdW  Elec       q    Type
REMARK                         _______ _______ _______ _____ _____    ______ ____
ROOT
ATOM      1  C   LIG    1        1.431   2.061   0.014  0.00  0.00    -0.030 C 
ATOM      2  C   LIG    1       -0.002   1.526   0.052  0.00  0.00    +0.010 C 
ATOM      3  C   LIG    1        0.023  -0.005   0.051  0.00  0.00    +0.000 C 
ATOM      4  C   LIG    1        0.691  -0.500  -1.236  0.00  0.00    +0.270 C 
ATOM      5  N   LIG    1        2.015   0.126  -1.353  0.00  0.00    -0.600 N 
ATOM      6  C   LIG    1        3.118  -0.629  -1.529  0.00  0.00    +0.550 C 
ATOM      7  O   LIG    1        4.194  -0.099  -1.707  0.00  0.00    -0.530 OA
ATOM      8  C   LIG    1        2.114   1.589  -1.274  0.00  0.00    +0.280 C 
ENDROOT
BRANCH   6   9
ATOM      9  C   LIG    1        3.014  -2.132  -1.504  0.00  0.00    -0.120 C 
ATOM     10  C   LIG    1        3.744  -2.909  -2.602  0.00  0.00    +0.090 C 
ATOM     11  C   LIG    1        2.218  -2.804  -2.626  0.00  0.00    +0.060 C 
BRANCH   9  12
ATOM     12  C   LIG    1        2.949  -2.757  -0.135  0.00  0.00    -0.020 A 
ATOM     13  C   LIG    1        2.267  -3.945   0.051  0.00  0.00    +0.010 A 
ATOM     14  C   LIG    1        2.212  -4.522   1.307  0.00  0.00    +0.030 A 
ATOM     15  C   LIG    1        2.829  -3.906   2.378  0.00  0.00    +0.020 A 
ATOM     16  C   LIG    1        3.507  -2.714   2.194  0.00  0.00    -0.030 A 
ATOM     17 CL   LIG    1        4.283  -1.939   3.540  0.00  0.00    -0.060 Cl
ATOM     18  C   LIG    1        3.567  -2.140   0.937  0.00  0.00    +0.030 A 
ENDBRANCH   9  12
ENDBRANCH   6   9
BRANCH   1  19
ATOM     19  C   LIG    1        1.406   3.591   0.047  0.00  0.00    +0.040 C 
BRANCH  19  20
ATOM     20  C   LIG    1        0.833   4.062   1.386  0.00  0.00    -0.070 C 
BRANCH  20  22
ATOM     21  O   LIG    1        1.211   6.206   0.461  0.00  0.00    -0.700 OA
ATOM     22  C   LIG    1        0.808   5.568   1.419  0.00  0.00    +0.490 C 
ATOM     23  O   LIG    1        0.386   6.149   2.404  0.00  0.00    -0.710 OA
ENDBRANCH  20  22
ENDBRANCH  19  20
ENDBRANCH   1  19
TORSDOF 5
