REMARK  Name = ZINCpk00000xIabY.0
REMARK                            x       y       z     vdW  Elec       q    Type
REMARK                         _______ _______ _______ _____ _____    ______ ____
ROOT
ATOM      1  C   LIG    1        0.901  -2.050  -0.902  0.00  0.00    -0.150 A 
ATOM      2  C   LIG    1        0.297  -2.801   0.108  0.00  0.00    +0.150 A 
ATOM      3  C   LIG    1        0.241  -4.176   0.001  0.00  0.00    -0.010 A 
ATOM      4  C   LIG    1        0.789  -4.810  -1.099  0.00  0.00    +0.060 A 
ATOM      5  C   LIG    1        1.394  -4.072  -2.102  0.00  0.00    -0.690 A 
ATOM      6  C   LIG    1        0.729  -6.312  -1.207  0.00  0.00    +0.100 C 
ATOM      7  C   LIG    1        1.453  -2.697  -2.010  0.00  0.00    +0.210 A 
ENDROOT
BRANCH   5   8
ATOM      8  S   LIG    1        2.089  -4.890  -3.499  0.00  0.00    +2.690 S 
ATOM      9  O   LIG    1        2.585  -3.870  -4.356  0.00  0.00    -0.950 OA
ATOM     10  O   LIG    1        1.133  -5.857  -3.914  0.00  0.00    -0.950 OA
BRANCH   8  11
ATOM     11  N   LIG    1        3.409  -5.736  -2.966  0.00  0.00    -0.990 NA
ATOM     12  C   LIG    1        4.714  -5.076  -2.828  0.00  0.00    +0.290 C 
ATOM     13  C   LIG    1        5.232  -5.311  -1.400  0.00  0.00    +0.010 C 
ATOM     14  C   LIG    1        5.253  -6.814  -1.112  0.00  0.00    +0.020 C 
ATOM     15  C   LIG    1        3.832  -7.373  -1.207  0.00  0.00    +0.010 C 
ATOM     16  C   LIG    1        3.298  -7.161  -2.627  0.00  0.00    +0.290 C 
ENDBRANCH   8  11
ENDBRANCH   5   8
BRANCH   1  17
ATOM     17  C   LIG    1        0.961  -0.578  -0.797  0.00  0.00    +0.510 C 
ATOM     18  O   LIG    1        1.491   0.073  -1.675  0.00  0.00    -0.500 OA
BRANCH  17  19
ATOM     19  O   LIG    1        0.427   0.043   0.273  0.00  0.00    -0.350 OA
BRANCH  19  20
ATOM     20  C   LIG    1        0.523   1.492   0.310  0.00  0.00    +0.220 C 
BRANCH  20  21
ATOM     21  C   LIG    1       -0.133   2.013   1.590  0.00  0.00    +0.300 C 
BRANCH  21  24
ATOM     22  C   LIG    1        1.010   1.402   5.192  0.00  0.00    +0.110 C 
ATOM     23  C   LIG    1        0.230   1.884   3.996  0.00  0.00    +0.510 C 
ATOM     24  N   LIG    1        0.626   1.545   2.753  0.00  0.00    -0.730 N 
ATOM     25  H   LIG    1        1.412   0.992   2.628  0.00  0.00    +0.400 HD
ATOM     26  O   LIG    1       -0.753   2.576   4.152  0.00  0.00    -0.550 OA
ENDBRANCH  21  24
ENDBRANCH  20  21
ENDBRANCH  19  20
ENDBRANCH  17  19
ENDBRANCH   1  17
TORSDOF 7
