REMARK  Name = ZINCc70000003T8Y.0
REMARK                            x       y       z     vdW  Elec       q    Type
REMARK                         _______ _______ _______ _____ _____    ______ ____
ROOT
ATOM      1  C   LIG    1       -1.384  -3.336  -0.705  0.00  0.00    +0.310 C 
ATOM      2  N   LIG    1       -0.480  -2.273  -0.257  0.00  0.00    -0.750 N 
ATOM      3  H   LIG    1        0.371  -2.501   0.150  0.00  0.00    +0.400 HD
ATOM      4  C   LIG    1       -0.830  -0.981  -0.410  0.00  0.00    +0.740 C 
ATOM      5  N   LIG    1        0.002  -0.004   0.002  0.00  0.00    -0.670 N 
ATOM      6  C   LIG    1       -0.018   1.468   0.010  0.00  0.00    +0.360 C 
ATOM      7  C   LIG    1        1.508   1.428  -0.005  0.00  0.00    -0.160 C 
ATOM      8  C   LIG    1        2.514   2.525   0.305  0.00  0.00    +0.130 C 
ATOM      9  C   LIG    1        2.483   1.876  -1.082  0.00  0.00    +0.120 C 
ATOM     10  C   LIG    1        1.327   0.057   0.641  0.00  0.00    +0.320 C 
ATOM     11  O   LIG    1       -1.897  -0.697  -0.919  0.00  0.00    -0.580 OA
ENDROOT
BRANCH   9  12
ATOM     12  C   LIG    1        3.582   0.959  -1.429  0.00  0.00    +0.230 C 
ATOM     13  N   LIG    1        4.430   0.252  -1.696  0.00  0.00    -0.420 NA
ENDBRANCH   9  12
TORSDOF 1
