REMARK  Name = ZINCtV000002sQcH.1
REMARK                            x       y       z     vdW  Elec       q    Type
REMARK                         _______ _______ _______ _____ _____    ______ ____
ROOT
ATOM      1  N   LIG    1        2.740  10.934  -1.234  0.00  0.00    -0.670 N 
ATOM      2  H   LIG    1        2.825  10.963  -2.200  0.00  0.00    +0.410 HD
ATOM      3  C   LIG    1        2.679   9.747  -0.599  0.00  0.00    +0.530 C 
ATOM      4  O   LIG    1        2.666   9.708   0.614  0.00  0.00    -0.500 OA
ENDROOT
BRANCH   1  10
ATOM      5  C   LIG    1        3.665  12.417   0.432  0.00  0.00    -0.050 A 
ATOM      6  C   LIG    1        3.605  13.596   1.150  0.00  0.00    +0.010 A 
ATOM      7  C   LIG    1        2.559  14.477   0.949  0.00  0.00    +0.010 A 
ATOM      8  C   LIG    1        1.573  14.186   0.024  0.00  0.00    +0.020 A 
ATOM      9  C   LIG    1        1.630  13.012  -0.701  0.00  0.00    -0.070 A 
ATOM     10  C   LIG    1        2.679  12.124  -0.501  0.00  0.00    +0.130 A 
BRANCH   5  12
ATOM     11  C   LIG    1        5.957  11.800  -0.283  0.00  0.00    +0.030 C 
ATOM     12  C   LIG    1        4.801  11.454   0.657  0.00  0.00    +0.020 C 
ATOM     13  C   LIG    1        5.276  11.555   2.108  0.00  0.00    +0.040 C 
ENDBRANCH   5  12
BRANCH   9  14
ATOM     14  C   LIG    1        0.555  12.694  -1.708  0.00  0.00    +0.020 C 
ATOM     15  C   LIG    1        0.520  13.787  -2.778  0.00  0.00    +0.040 C 
ATOM     16  C   LIG    1       -0.801  12.628  -1.003  0.00  0.00    +0.040 C 
ENDBRANCH   9  14
ENDBRANCH   1  10
BRANCH   3  17
ATOM     17  C   LIG    1        2.628   8.468  -1.394  0.00  0.00    +0.110 C 
BRANCH  17  18
ATOM     18  S   LIG    1        2.553   7.057  -0.263  0.00  0.00    +0.100 S 
BRANCH  18  19
ATOM     19  C   LIG    1        2.504   5.734  -1.426  0.00  0.00    +0.250 A 
ATOM     20  N   LIG    1        2.527   5.856  -2.736  0.00  0.00    -0.530 NA
ATOM     21  C   LIG    1        2.471   4.642  -3.302  0.00  0.00    +0.280 A 
ATOM     22  N   LIG    1        2.421   3.733  -2.355  0.00  0.00    -0.290 NA
ATOM     23  N   LIG    1        2.440   4.417  -1.129  0.00  0.00    -0.460 N 
ATOM     24  H   LIG    1        2.414   4.023  -0.243  0.00  0.00    +0.450 HD
BRANCH  21  25
ATOM     25  C   LIG    1        2.473   4.369  -4.761  0.00  0.00    -0.000 A 
ATOM     26  C   LIG    1        2.418   3.057  -5.227  0.00  0.00    +0.060 A 
ATOM     27  C   LIG    1        2.421   2.809  -6.584  0.00  0.00    +0.050 A 
ATOM     28  C   LIG    1        2.484   3.861  -7.482  0.00  0.00    -0.080 A 
ATOM     29  C   LIG    1        2.533   5.166  -7.024  0.00  0.00    +0.050 A 
ATOM     30 BR   LIG    1        2.496   3.513  -9.341  0.00  0.00    -0.040 Br
ATOM     31  C   LIG    1        2.531   5.425  -5.669  0.00  0.00    +0.070 A 
ENDBRANCH  21  25
ENDBRANCH  18  19
ENDBRANCH  17  18
ENDBRANCH   3  17
TORSDOF 7
