REMARK  Name = ZINCtV000002sQcH.0
REMARK                            x       y       z     vdW  Elec       q    Type
REMARK                         _______ _______ _______ _____ _____    ______ ____
ROOT
ATOM      1  N   LIG    1        1.274  13.627  -1.205  0.00  0.00    -0.670 N 
ATOM      2  H   LIG    1        1.363  13.623  -2.171  0.00  0.00    +0.410 HD
ATOM      3  C   LIG    1        0.823  12.530  -0.565  0.00  0.00    +0.540 C 
ATOM      4  O   LIG    1        0.799  12.502   0.647  0.00  0.00    -0.490 OA
ENDROOT
BRANCH   1  10
ATOM      5  C   LIG    1        2.642  14.723   0.456  0.00  0.00    -0.050 A 
ATOM      6  C   LIG    1        2.979  15.856   1.170  0.00  0.00    +0.010 A 
ATOM      7  C   LIG    1        2.286  17.035   0.966  0.00  0.00    +0.010 A 
ATOM      8  C   LIG    1        1.259  17.086   0.042  0.00  0.00    +0.020 A 
ATOM      9  C   LIG    1        0.921  15.957  -0.679  0.00  0.00    -0.070 A 
ATOM     10  C   LIG    1        1.614  14.772  -0.476  0.00  0.00    +0.130 A 
BRANCH   5  12
ATOM     11  C   LIG    1        4.597  13.375  -0.257  0.00  0.00    +0.030 C 
ATOM     12  C   LIG    1        3.393  13.437   0.685  0.00  0.00    +0.020 C 
ATOM     13  C   LIG    1        3.876  13.379   2.135  0.00  0.00    +0.030 C 
ENDBRANCH   5  12
BRANCH   9  14
ATOM     14  C   LIG    1       -0.200  16.013  -1.685  0.00  0.00    +0.010 C 
ATOM     15  C   LIG    1        0.130  17.052  -2.759  0.00  0.00    +0.040 C 
ATOM     16  C   LIG    1       -1.500  16.404  -0.980  0.00  0.00    +0.040 C 
ENDBRANCH   9  14
ENDBRANCH   1  10
BRANCH   3  17
ATOM     17  C   LIG    1        0.348  11.338  -1.356  0.00  0.00    +0.090 C 
BRANCH  17  18
ATOM     18  S   LIG    1       -0.193  10.034  -0.218  0.00  0.00    +0.120 S 
BRANCH  18  19
ATOM     19  C   LIG    1       -0.704   8.745  -1.306  0.00  0.00    +0.200 A 
ATOM     20  N   LIG    1       -0.670   8.797  -2.618  0.00  0.00    -0.310 NA
ATOM     21  N   LIG    1       -1.163   7.569  -3.089  0.00  0.00    -0.470 N 
ATOM     22  H   LIG    1       -1.263   7.300  -4.015  0.00  0.00    +0.440 HD
ATOM     23  C   LIG    1       -1.471   6.837  -1.995  0.00  0.00    +0.340 A 
ATOM     24  N   LIG    1       -1.194   7.562  -0.930  0.00  0.00    -0.500 NA
BRANCH  23  25
ATOM     25  C   LIG    1       -2.026   5.466  -1.994  0.00  0.00    -0.020 A 
ATOM     26  C   LIG    1       -2.300   4.822  -0.786  0.00  0.00    +0.090 A 
ATOM     27  C   LIG    1       -2.818   3.543  -0.791  0.00  0.00    +0.060 A 
ATOM     28  C   LIG    1       -3.067   2.899  -1.991  0.00  0.00    -0.070 A 
ATOM     29  C   LIG    1       -2.793   3.531  -3.192  0.00  0.00    +0.050 A 
ATOM     30 BR   LIG    1       -3.777   1.147  -1.989  0.00  0.00    -0.040 Br
ATOM     31  C   LIG    1       -2.280   4.812  -3.200  0.00  0.00    +0.040 A 
ENDBRANCH  23  25
ENDBRANCH  18  19
ENDBRANCH  17  18
ENDBRANCH   3  17
TORSDOF 7
