REMARK  Name = ZINCrg00000cg1us.2
REMARK                            x       y       z     vdW  Elec       q    Type
REMARK                         _______ _______ _______ _____ _____    ______ ____
ROOT
ATOM      1  C   LIG    1        0.658  10.468   0.054  0.00  0.00    +0.460 C 
ENDROOT
BRANCH   1  10
ATOM      2  O   LIG    1        2.413   9.387  -1.655  0.00  0.00    -0.560 OA
ATOM      3  C   LIG    1        1.855  10.389  -2.056  0.00  0.00    +0.710 C 
ATOM      4  N   LIG    1        2.237  10.928  -3.224  0.00  0.00    -0.720 N 
ATOM      5  H   LIG    1        2.892  10.468  -3.772  0.00  0.00    +0.430 HD
ATOM      6  C   LIG    1        1.682  12.204  -3.681  0.00  0.00    +0.300 C 
ATOM      7  C   LIG    1        0.210  12.297  -3.272  0.00  0.00    +0.030 C 
ATOM      8  C   LIG    1        0.070  11.886  -1.828  0.00  0.00    +0.520 C 
ATOM      9  O   LIG    1       -0.760  12.420  -1.123  0.00  0.00    -0.460 OA
ATOM     10  N   LIG    1        0.867  10.927  -1.321  0.00  0.00    -0.570 N 
BRANCH   7  11
ATOM     11  C   LIG    1       -0.625  11.364  -4.152  0.00  0.00    -0.030 C 
ATOM     12  C   LIG    1       -2.140  11.534  -3.856  0.00  0.00    +0.030 C 
ATOM     13  C   LIG    1       -2.753  11.134  -5.222  0.00  0.00    +0.200 C 
ATOM     14  O   LIG    1       -1.838  11.642  -6.207  0.00  0.00    -0.380 OA
ATOM     15  C   LIG    1       -0.532  11.780  -5.636  0.00  0.00    +0.210 C 
ENDBRANCH   7  11
ENDBRANCH   1  10
BRANCH   1  16
ATOM     16  C   LIG    1       -0.313   9.315   0.057  0.00  0.00    +0.160 A 
ATOM     17  N   LIG    1       -1.615   9.400   0.070  0.00  0.00    -0.260 NA
ATOM     18  N   LIG    1       -2.126   8.220   0.067  0.00  0.00    -0.280 NA
ATOM     19  C   LIG    1       -1.173   7.329   0.053  0.00  0.00    +0.180 A 
ATOM     20  N   LIG    1        0.005   7.998   0.051  0.00  0.00    -0.550 N 
ATOM     21  H   LIG    1        0.895   7.612   0.044  0.00  0.00    +0.440 HD
BRANCH  19  22
ATOM     22  C   LIG    1       -1.350   5.832   0.047  0.00  0.00    +0.350 C 
BRANCH  22  23
ATOM     23  O   LIG    1       -0.069   5.201   0.031  0.00  0.00    -0.320 OA
BRANCH  23  24
ATOM     24  C   LIG    1       -0.050   3.842   0.024  0.00  0.00    +0.130 A 
ATOM     25  C   LIG    1        1.160   3.163   0.008  0.00  0.00    -0.020 A 
ATOM     26  C   LIG    1        1.176   1.782   0.000  0.00  0.00    +0.050 A 
ATOM     27  C   LIG    1       -0.013   1.076   0.008  0.00  0.00    -0.020 A 
ATOM     28  C   LIG    1       -1.220   1.750   0.017  0.00  0.00    +0.050 A 
ATOM     29  C   LIG    1       -1.241   3.131   0.031  0.00  0.00    -0.080 A 
ENDBRANCH  23  24
ENDBRANCH  22  23
ENDBRANCH  19  22
ENDBRANCH   1  16
TORSDOF 6
