REMARK  Name = ZINCrg00000cg1us.1
REMARK                            x       y       z     vdW  Elec       q    Type
REMARK                         _______ _______ _______ _____ _____    ______ ____
ROOT
ATOM      1  C   LIG    1       -1.301   2.046   0.019  0.00  0.00    +0.460 C 
ENDROOT
BRANCH   1  10
ATOM      2  O   LIG    1        1.086   3.242   0.230  0.00  0.00    -0.540 OA
ATOM      3  C   LIG    1        1.126   2.049   0.002  0.00  0.00    +0.710 C 
ATOM      4  N   LIG    1        2.311   1.469  -0.250  0.00  0.00    -0.730 N 
ATOM      5  H   LIG    1        3.125   1.989  -0.167  0.00  0.00    +0.430 HD
ATOM      6  C   LIG    1        2.390   0.063  -0.650  0.00  0.00    +0.300 C 
ATOM      7  C   LIG    1        1.316  -0.740   0.087  0.00  0.00    +0.020 C 
ATOM      8  C   LIG    1        0.002  -0.004   0.002  0.00  0.00    +0.520 C 
ATOM      9  O   LIG    1       -1.037  -0.624  -0.073  0.00  0.00    -0.470 OA
ATOM     10  N   LIG    1       -0.016   1.341   0.009  0.00  0.00    -0.570 N 
BRANCH   7  11
ATOM     11  C   LIG    1        1.716  -0.904   1.554  0.00  0.00    -0.020 C 
ATOM     12  C   LIG    1        0.716  -1.829   2.300  0.00  0.00    +0.020 C 
ATOM     13  C   LIG    1        1.627  -2.415   3.408  0.00  0.00    +0.200 C 
ATOM     14  O   LIG    1        2.911  -2.585   2.786  0.00  0.00    -0.380 OA
ATOM     15  C   LIG    1        3.041  -1.687   1.678  0.00  0.00    +0.210 C 
ENDBRANCH   7  11
ENDBRANCH   1  10
BRANCH   1  16
ATOM     16  C   LIG    1       -1.735   2.279   1.443  0.00  0.00    +0.210 A 
ATOM     17  N   LIG    1       -1.442   3.330   2.164  0.00  0.00    -0.270 NA
ATOM     18  N   LIG    1       -2.042   3.141   3.419  0.00  0.00    -0.460 N 
ATOM     19  H   LIG    1       -2.010   3.747   4.176  0.00  0.00    +0.450 HD
ATOM     20  C   LIG    1       -2.672   1.954   3.363  0.00  0.00    +0.280 A 
ATOM     21  N   LIG    1       -2.483   1.451   2.171  0.00  0.00    -0.510 NA
BRANCH  20  22
ATOM     22  C   LIG    1       -3.462   1.318   4.478  0.00  0.00    +0.350 C 
BRANCH  22  23
ATOM     23  O   LIG    1       -3.445   2.174   5.622  0.00  0.00    -0.320 OA
BRANCH  23  24
ATOM     24  C   LIG    1       -4.117   1.745   6.723  0.00  0.00    +0.130 A 
ATOM     25  C   LIG    1       -4.783   0.528   6.700  0.00  0.00    -0.080 A 
ATOM     26  C   LIG    1       -5.460   0.092   7.823  0.00  0.00    +0.050 A 
ATOM     27  C   LIG    1       -5.483   0.872   8.964  0.00  0.00    -0.020 A 
ATOM     28  C   LIG    1       -4.825   2.087   8.988  0.00  0.00    +0.050 A 
ATOM     29  C   LIG    1       -4.142   2.526   7.870  0.00  0.00    -0.020 A 
ENDBRANCH  23  24
ENDBRANCH  22  23
ENDBRANCH  20  22
ENDBRANCH   1  16
TORSDOF 6
