REMARK  Name = ZINCrg00000cg1us.0
REMARK                            x       y       z     vdW  Elec       q    Type
REMARK                         _______ _______ _______ _____ _____    ______ ____
ROOT
ATOM      1  C   LIG    1        1.608   3.242   0.004  0.00  0.00    +0.450 C 
ENDROOT
BRANCH   1  10
ATOM      2  O   LIG    1       -0.439   4.546  -1.128  0.00  0.00    -0.530 OA
ATOM      3  C   LIG    1        0.485   4.290  -1.875  0.00  0.00    +0.710 C 
ATOM      4  N   LIG    1        0.359   4.551  -3.187  0.00  0.00    -0.720 N 
ATOM      5  H   LIG    1       -0.429   5.015  -3.508  0.00  0.00    +0.430 HD
ATOM      6  C   LIG    1        1.396   4.146  -4.138  0.00  0.00    +0.300 C 
ATOM      7  C   LIG    1        2.773   4.286  -3.484  0.00  0.00    +0.010 C 
ATOM      8  C   LIG    1        2.733   3.679  -2.104  0.00  0.00    +0.530 C 
ATOM      9  O   LIG    1        3.713   3.123  -1.658  0.00  0.00    -0.490 OA
ATOM     10  N   LIG    1        1.607   3.752  -1.370  0.00  0.00    -0.560 N 
BRANCH   7  11
ATOM     11  C   LIG    1        3.140   5.767  -3.376  0.00  0.00    -0.020 C 
ATOM     12  C   LIG    1        4.548   5.933  -2.762  0.00  0.00    +0.010 C 
ATOM     13  C   LIG    1        5.359   6.643  -3.868  0.00  0.00    +0.210 C 
ATOM     14  O   LIG    1        4.370   7.323  -4.672  0.00  0.00    -0.370 OA
ATOM     15  C   LIG    1        3.263   6.398  -4.781  0.00  0.00    +0.220 C 
ENDBRANCH   7  11
ENDBRANCH   1  10
BRANCH   1  16
ATOM     16  C   LIG    1        1.209   1.789   0.000  0.00  0.00    +0.260 A 
ATOM     17  N   LIG    1       -0.016   1.328   0.009  0.00  0.00    -0.500 NA
ATOM     18  C   LIG    1        0.002  -0.004   0.002  0.00  0.00    +0.220 A 
ATOM     19  N   LIG    1        1.244  -0.412  -0.012  0.00  0.00    -0.280 NA
ATOM     20  N   LIG    1        2.049   0.739  -0.013  0.00  0.00    -0.460 N 
ATOM     21  H   LIG    1        3.018   0.771  -0.023  0.00  0.00    +0.450 HD
BRANCH  18  22
ATOM     22  C   LIG    1       -1.212  -0.896   0.009  0.00  0.00    +0.350 C 
BRANCH  22  23
ATOM     23  O   LIG    1       -1.610  -1.171  -1.336  0.00  0.00    -0.310 OA
BRANCH  23  24
ATOM     24  C   LIG    1       -2.697  -1.968  -1.507  0.00  0.00    +0.130 A 
ATOM     25  C   LIG    1       -3.365  -2.479  -0.404  0.00  0.00    -0.080 A 
ATOM     26  C   LIG    1       -4.473  -3.285  -0.581  0.00  0.00    +0.050 A 
ATOM     27  C   LIG    1       -4.911  -3.590  -1.856  0.00  0.00    -0.040 A 
ATOM     28  C   LIG    1       -4.244  -3.086  -2.958  0.00  0.00    +0.050 A 
ATOM     29  C   LIG    1       -3.138  -2.276  -2.786  0.00  0.00    -0.020 A 
ENDBRANCH  23  24
ENDBRANCH  22  23
ENDBRANCH  18  22
ENDBRANCH   1  16
TORSDOF 6
