REMARK  Name = ZINCnE000001Ox9i.0
REMARK                            x       y       z     vdW  Elec       q    Type
REMARK                         _______ _______ _______ _____ _____    ______ ____
ROOT
ATOM      1  C   LIG    1       -6.125   3.953  -0.149  0.00  0.00    +0.090 C 
ATOM      2  C   LIG    1       -6.078   2.446  -0.149  0.00  0.00    -0.120 A 
ATOM      3  C   LIG    1       -7.247   1.718  -0.240  0.00  0.00    -0.070 A 
ATOM      4  C   LIG    1       -7.205   0.336  -0.240  0.00  0.00    +0.010 A 
ATOM      5  C   LIG    1       -5.992  -0.322  -0.150  0.00  0.00    +0.020 A 
ATOM      6  C   LIG    1       -4.818   0.400  -0.065  0.00  0.00    +0.020 A 
ATOM      7  C   LIG    1       -4.857   1.789  -0.059  0.00  0.00    +0.160 A 
ENDROOT
BRANCH   7   8
ATOM      8  N   LIG    1       -3.671   2.523   0.033  0.00  0.00    -0.660 N 
ATOM      9  H   LIG    1       -3.633   3.428  -0.313  0.00  0.00    +0.420 HD
ATOM     10  C   LIG    1       -2.580   1.972   0.601  0.00  0.00    +0.570 C 
ATOM     11  O   LIG    1       -2.654   0.877   1.123  0.00  0.00    -0.490 OA
BRANCH  10  12
ATOM     12  C   LIG    1       -1.288   2.703   0.589  0.00  0.00    +0.140 A 
ATOM     13  C   LIG    1       -0.168   2.143   1.169  0.00  0.00    -0.260 A 
ATOM     14  C   LIG    1        1.046   2.874   1.129  0.00  0.00    +0.500 A 
ATOM     15  N   LIG    1        1.051   4.084   0.531  0.00  0.00    -0.640 NA
ATOM     16  C   LIG    1       -0.080   4.578  -0.013  0.00  0.00    +0.500 A 
ATOM     17  O   LIG    1        2.063   2.419   1.623  0.00  0.00    -0.580 OA
ATOM     18 BR   LIG    1       -0.248   0.442   1.990  0.00  0.00    -0.040 Br
ATOM     19  N   LIG    1       -1.203   3.916   0.017  0.00  0.00    -0.610 NA
ENDBRANCH  10  12
ENDBRANCH   7   8
BRANCH   3  20
ATOM     20  C   LIG    1       -8.572   2.431  -0.338  0.00  0.00    +0.230 C 
BRANCH  20  21
ATOM     21  O   LIG    1       -9.625   1.469  -0.420  0.00  0.00    -0.380 OA
BRANCH  21  22
ATOM     22  C   LIG    1      -10.930   2.043  -0.517  0.00  0.00    +0.140 C 
ATOM     23  C   LIG    1      -11.505   2.243   0.887  0.00  0.00    +0.000 C 
ATOM     24  C   LIG    1      -11.842   1.106  -1.312  0.00  0.00    +0.040 C 
ENDBRANCH  21  22
ENDBRANCH  20  21
ENDBRANCH   3  20
TORSDOF 5
