REMARK  Name = ZINCvU00000009d0.0
REMARK                            x       y       z     vdW  Elec       q    Type
REMARK                         _______ _______ _______ _____ _____    ______ ____
ROOT
ATOM      1  C   LIG    1        4.202  -0.590   0.147  0.00  0.00    +0.260 C 
ENDROOT
BRANCH   1   2
ATOM      2  C   LIG    1        4.616  -0.827   1.577  0.00  0.00    -0.130 A 
ATOM      3  C   LIG    1        3.704  -1.330   2.486  0.00  0.00    +0.040 A 
ATOM      4  C   LIG    1        4.085  -1.552   3.796  0.00  0.00    +0.010 A 
ATOM      5  C   LIG    1        5.375  -1.261   4.200  0.00  0.00    +0.030 A 
ATOM      6  C   LIG    1        6.285  -0.753   3.292  0.00  0.00    +0.010 A 
ATOM      7  C   LIG    1        5.905  -0.535   1.981  0.00  0.00    +0.030 A 
ENDBRANCH   1   2
BRANCH   1   8
ATOM      8  C   LIG    1        4.235  -1.893  -0.608  0.00  0.00    +0.530 C 
ATOM      9  N   LIG    1        5.388  -2.583  -0.713  0.00  0.00    -0.660 N 
ATOM     10  H   LIG    1        6.211  -2.209  -0.359  0.00  0.00    +0.420 HD
ATOM     11  O   LIG    1        3.223  -2.322  -1.121  0.00  0.00    -0.490 OA
BRANCH   9  12
ATOM     12  C   LIG    1        5.400  -3.837  -1.332  0.00  0.00    +0.170 A 
ATOM     13  C   LIG    1        6.248  -4.834  -0.868  0.00  0.00    +0.020 A 
ATOM     14  C   LIG    1        6.253  -6.075  -1.477  0.00  0.00    -0.000 A 
ATOM     15  C   LIG    1        5.422  -6.320  -2.557  0.00  0.00    +0.040 A 
ATOM     16  C   LIG    1        4.580  -5.326  -3.025  0.00  0.00    -0.000 A 
ATOM     17 CL   LIG    1        3.541  -5.638  -4.380  0.00  0.00    -0.050 Cl
ATOM     18 CL   LIG    1        7.306  -7.324  -0.892  0.00  0.00    -0.050 Cl
ATOM     19  C   LIG    1        4.567  -4.086  -2.415  0.00  0.00    +0.050 A 
ENDBRANCH   9  12
ENDBRANCH   1   8
BRANCH   1  20
ATOM     20  O   LIG    1        2.856  -0.046   0.117  0.00  0.00    -0.320 OA
BRANCH  20  21
ATOM     21  C   LIG    1        2.737   1.296   0.159  0.00  0.00    +0.520 C 
ATOM     22  O   LIG    1        3.731   1.992   0.219  0.00  0.00    -0.490 OA
BRANCH  21  26
ATOM     23  C   LIG    1       -1.104   3.091   0.079  0.00  0.00    +0.310 A 
ATOM     24  C   LIG    1       -0.988   1.705   0.030  0.00  0.00    -0.050 A 
ATOM     25  C   LIG    1        0.256   1.117   0.062  0.00  0.00    +0.190 A 
ATOM     26  C   LIG    1        1.401   1.918   0.131  0.00  0.00    -0.180 A 
ATOM     27  C   LIG    1        1.276   3.310   0.174  0.00  0.00    +0.220 A 
ATOM     28  C   LIG    1        0.037   3.886   0.148  0.00  0.00    -0.130 A 
BRANCH  23  29
ATOM     29  N   LIG    1       -2.361   3.684   0.053  0.00  0.00    -0.840 N 
ATOM     30  H   LIG    1       -3.153   3.136  -0.060  0.00  0.00    +0.420 HD
ATOM     31  H   LIG    1       -2.446   4.645   0.147  0.00  0.00    +0.420 HD
ENDBRANCH  23  29
BRANCH  28  32
ATOM     32  N   LIG    1       -0.092   5.360   0.194  0.00  0.00    +0.040 N 
ATOM     33  O   LIG    1       -0.995   5.873   0.829  0.00  0.00    -0.180 OA
ATOM     34  O   LIG    1        0.706   6.060  -0.404  0.00  0.00    -0.140 OA
ENDBRANCH  28  32
ENDBRANCH  21  26
ENDBRANCH  20  21
ENDBRANCH   1  20
TORSDOF 8
