REMARK  Name = ZINCrD00000hQ78a.0
REMARK                            x       y       z     vdW  Elec       q    Type
REMARK                         _______ _______ _______ _____ _____    ______ ____
ROOT
ATOM      1  C   LIG    1       -6.204   3.364  -0.194  0.00  0.00    +0.130 A 
ATOM      2  C   LIG    1       -5.620   4.618  -0.292  0.00  0.00    -0.080 A 
ATOM      3  C   LIG    1       -4.266   4.770  -0.059  0.00  0.00    +0.060 A 
ATOM      4  C   LIG    1       -3.497   3.668   0.273  0.00  0.00    -0.120 A 
ATOM      5  C   LIG    1       -2.017   3.844   0.528  0.00  0.00    +0.080 C 
ATOM      6  C   LIG    1       -1.241   3.213  -0.628  0.00  0.00    +0.300 C 
ATOM      7  N   LIG    1       -1.153   1.768  -0.439  0.00  0.00    -0.600 N 
ATOM      8  C   LIG    1       -2.317   0.889  -0.454  0.00  0.00    +0.290 C 
ATOM      9  C   LIG    1       -3.232   1.220   0.730  0.00  0.00    +0.070 C 
ATOM     10  C   LIG    1        0.062   1.221  -0.236  0.00  0.00    +0.600 C 
ATOM     11  O   LIG    1        0.191   0.012  -0.228  0.00  0.00    -0.530 OA
ATOM     12  C   LIG    1       -4.073   2.424   0.369  0.00  0.00    -0.040 A 
ATOM     13  C   LIG    1       -5.427   2.263   0.138  0.00  0.00    -0.020 A 
ENDROOT
BRANCH  10  14
ATOM     14  C   LIG    1        1.239   2.091  -0.030  0.00  0.00    -0.010 A 
ATOM     15  N   LIG    1        1.225   3.399   0.128  0.00  0.00    -0.250 NA
ATOM     16  N   LIG    1        2.420   3.845   0.284  0.00  0.00    -0.280 N 
ATOM     17  C   LIG    1        3.312   2.814   0.234  0.00  0.00    +0.060 A 
ATOM     18  C   LIG    1        2.772   5.253   0.485  0.00  0.00    +0.360 C 
ATOM     19  C   LIG    1        2.586   1.673   0.039  0.00  0.00    +0.010 A 
BRANCH  17  20
ATOM     20  C   LIG    1        4.782   2.913   0.370  0.00  0.00    -0.020 A 
ATOM     21  C   LIG    1        5.595   1.853  -0.033  0.00  0.00    +0.040 A 
ATOM     22  C   LIG    1        6.966   1.953   0.092  0.00  0.00    +0.020 A 
ATOM     23  C   LIG    1        7.533   3.096   0.626  0.00  0.00    +0.020 A 
ATOM     24  C   LIG    1        6.732   4.148   1.033  0.00  0.00    +0.020 A 
ATOM     25  C   LIG    1        5.360   4.063   0.908  0.00  0.00    +0.000 A 
ENDBRANCH  17  20
ENDBRANCH  10  14
BRANCH   1  27
ATOM     26  C   LIG    1       -8.273   4.390  -0.760  0.00  0.00    +0.250 C 
ATOM     27  O   LIG    1       -7.535   3.213  -0.423  0.00  0.00    -0.320 OA
ENDBRANCH   1  27
TORSDOF 3
