REMARK  Name = ZINCnE000001Kziu.0
REMARK                            x       y       z     vdW  Elec       q    Type
REMARK                         _______ _______ _______ _____ _____    ______ ____
ROOT
ATOM      1  C   LIG    1        1.617  -2.699  -5.496  0.00  0.00    +0.130 A 
ATOM      2  C   LIG    1        1.988  -1.526  -4.860  0.00  0.00    -0.060 A 
ATOM      3  C   LIG    1        2.129  -1.504  -3.475  0.00  0.00    -0.030 A 
ATOM      4  C   LIG    1        1.902  -2.664  -2.737  0.00  0.00    -0.020 A 
ATOM      5  C   LIG    1        1.526  -3.828  -3.378  0.00  0.00    +0.050 A 
ATOM      6  C   LIG    1        1.386  -3.849  -4.753  0.00  0.00    -0.090 A 
ENDROOT
BRANCH   3   7
ATOM      7  C   LIG    1        2.527  -0.251  -2.787  0.00  0.00    -0.030 A 
ATOM      8  C   LIG    1        3.652  -0.234  -1.968  0.00  0.00    +0.030 A 
ATOM      9  C   LIG    1        4.017   0.936  -1.331  0.00  0.00    +0.000 A 
ATOM     10  C   LIG    1        3.266   2.082  -1.506  0.00  0.00    +0.010 A 
ATOM     11  C   LIG    1        2.142   2.071  -2.320  0.00  0.00    -0.120 A 
ATOM     12  C   LIG    1        1.349   3.343  -2.473  0.00  0.00    +0.260 C 
ATOM     13  O   LIG    1        0.478   3.250  -3.599  0.00  0.00    -0.380 OA
ATOM     14  C   LIG    1       -0.335   2.071  -3.587  0.00  0.00    +0.220 C 
ATOM     15  C   LIG    1        0.562   0.862  -3.860  0.00  0.00    +0.060 C 
ATOM     16  C   LIG    1        1.772   0.911  -2.963  0.00  0.00    -0.060 A 
ENDBRANCH   3   7
BRANCH   1  18
ATOM     17  C   LIG    1        1.731  -1.506  -7.549  0.00  0.00    +0.230 C 
ATOM     18  O   LIG    1        1.478  -2.725  -6.848  0.00  0.00    -0.300 OA
ENDBRANCH   1  18
BRANCH   6  19
ATOM     19  C   LIG    1        0.982  -5.124  -5.447  0.00  0.00    +0.090 C 
BRANCH  19  20
ATOM     20  C   LIG    1        2.233  -5.862  -5.929  0.00  0.00    -0.060 C 
BRANCH  20  21
ATOM     21  C   LIG    1        1.828  -7.136  -6.623  0.00  0.00    +0.490 C 
ATOM     22  O   LIG    1        2.680  -7.876  -7.085  0.00  0.00    -0.710 OA
ATOM     23  O   LIG    1        0.649  -7.428  -6.723  0.00  0.00    -0.700 OA
ENDBRANCH  20  21
ENDBRANCH  19  20
ENDBRANCH   6  19
TORSDOF 5
