REMARK  Name = ZINCrg000000oLE8.0
REMARK                            x       y       z     vdW  Elec       q    Type
REMARK                         _______ _______ _______ _____ _____    ______ ____
ROOT
ATOM      1  C   LIG    1        7.122   5.634   2.086  0.00  0.00    +0.510 C 
ATOM      2  N   LIG    1        6.731   5.290   0.843  0.00  0.00    -0.680 N 
ATOM      3  H   LIG    1        7.297   5.495   0.083  0.00  0.00    +0.410 HD
ATOM      4  O   LIG    1        6.449   5.314   3.044  0.00  0.00    -0.500 OA
ENDROOT
BRANCH   2   5
ATOM      5  C   LIG    1        5.508   4.637   0.649  0.00  0.00    +0.150 A 
ATOM      6  C   LIG    1        5.054   3.718   1.586  0.00  0.00    +0.020 A 
ATOM      7  C   LIG    1        3.847   3.076   1.392  0.00  0.00    +0.050 A 
ATOM      8  C   LIG    1        3.090   3.348   0.267  0.00  0.00    -0.100 A 
ATOM      9  C   LIG    1        3.543   4.259  -0.670  0.00  0.00    +0.020 A 
ATOM     10  C   LIG    1        4.747   4.908  -0.480  0.00  0.00    -0.020 A 
BRANCH   8  11
ATOM     11  C   LIG    1        1.774   2.646   0.058  0.00  0.00    +0.230 C 
BRANCH  11  12
ATOM     12  N   LIG    1        0.696   3.433   0.672  0.00  0.00    -0.530 NA
ATOM     13  C   LIG    1       -0.623   2.909   0.290  0.00  0.00    +0.150 C 
ATOM     14  C   LIG    1       -1.713   3.719   0.997  0.00  0.00    +0.220 C 
ATOM     15  O   LIG    1       -1.563   5.102   0.666  0.00  0.00    -0.390 OA
ATOM     16  C   LIG    1       -0.289   5.645   1.025  0.00  0.00    +0.220 C 
ATOM     17  C   LIG    1        0.815   4.855   0.318  0.00  0.00    +0.150 C 
ENDBRANCH  11  12
ENDBRANCH   8  11
ENDBRANCH   2   5
BRANCH   1  18
ATOM     18  C   LIG    1        8.394   6.416   2.287  0.00  0.00    +0.230 C 
BRANCH  18  23
ATOM     19  C   LIG    1        9.991   7.053   3.999  0.00  0.00    +0.160 C 
ATOM     20  C   LIG    1        9.949   8.422   4.709  0.00  0.00    +0.030 C 
ATOM     21  C   LIG    1        8.516   8.465   5.302  0.00  0.00    +0.030 C 
ATOM     22  C   LIG    1        7.702   7.736   4.205  0.00  0.00    +0.190 C 
ATOM     23  N   LIG    1        8.596   6.663   3.721  0.00  0.00    -0.490 NA
BRANCH  19  26
ATOM     24  C   LIG    1       12.677   6.637   1.304  0.00  0.00    +0.290 C 
ATOM     25  N   LIG    1       11.932   6.524   2.560  0.00  0.00    -0.620 N 
ATOM     26  C   LIG    1       10.758   7.169   2.707  0.00  0.00    +0.500 C 
ATOM     27  O   LIG    1       10.318   7.843   1.799  0.00  0.00    -0.540 OA
ATOM     28  C   LIG    1       12.463   5.710   3.656  0.00  0.00    +0.290 C 
ENDBRANCH  19  26
ENDBRANCH  18  23
ENDBRANCH   1  18
TORSDOF 6
