REMARK  Name = ZINCrD0000071nNZ.0
REMARK                            x       y       z     vdW  Elec       q    Type
REMARK                         _______ _______ _______ _____ _____    ______ ____
ROOT
ATOM      1  C   LIG    1       -2.449   1.120   0.020  0.00  0.00    +0.410 C 
ENDROOT
BRANCH   1   2
ATOM      2  N   LIG    1       -1.191   1.870   0.018  0.00  0.00    -0.740 N 
ATOM      3  H   LIG    1       -1.204   2.840   0.023  0.00  0.00    +0.400 HD
ATOM      4  C   LIG    1       -0.014   1.212   0.009  0.00  0.00    +0.710 C 
ATOM      5  N   LIG    1        1.143   1.901   0.001  0.00  0.00    -0.740 N 
ATOM      6  H   LIG    1        1.130   2.871   0.007  0.00  0.00    +0.400 HD
ATOM      7  O   LIG    1        0.002  -0.004   0.002  0.00  0.00    -0.580 OA
BRANCH   5   8
ATOM      8  C   LIG    1        2.422   1.186  -0.015  0.00  0.00    +0.280 C 
BRANCH   8   9
ATOM      9  C   LIG    1        3.571   2.196  -0.020  0.00  0.00    +0.070 C 
BRANCH   9  10
ATOM     10  C   LIG    1        4.886   1.460  -0.037  0.00  0.00    -0.090 A 
ATOM     11  C   LIG    1        5.504   1.122   1.153  0.00  0.00    +0.010 A 
ATOM     12  C   LIG    1        6.708   0.443   1.138  0.00  0.00    +0.000 A 
ATOM     13  C   LIG    1        7.300   0.112  -0.067  0.00  0.00    +0.000 A 
ATOM     14  C   LIG    1        6.685   0.455  -1.256  0.00  0.00    +0.000 A 
ATOM     15  C   LIG    1        5.478   1.130  -1.241  0.00  0.00    +0.010 A 
ENDBRANCH   9  10
ENDBRANCH   8   9
ENDBRANCH   5   8
ENDBRANCH   1   2
BRANCH   1  16
ATOM     16  C   LIG    1       -3.543   1.972  -0.571  0.00  0.00    +0.180 A 
ATOM     17  N   LIG    1       -4.434   1.594  -1.453  0.00  0.00    -0.450 NA
ATOM     18  C   LIG    1       -5.203   2.682  -1.682  0.00  0.00    +0.210 A 
ATOM     19  N   LIG    1       -4.733   3.650  -0.940  0.00  0.00    -0.360 NA
ATOM     20  O   LIG    1       -3.782   3.259  -0.297  0.00  0.00    +0.090 OA
BRANCH  18  21
ATOM     21  C   LIG    1       -6.361   2.764  -2.608  0.00  0.00    +0.020 A 
ATOM     22  C   LIG    1       -6.762   1.653  -3.355  0.00  0.00    +0.020 A 
ATOM     23  C   LIG    1       -7.847   1.771  -4.200  0.00  0.00    +0.270 A 
ATOM     24  N   LIG    1       -8.494   2.914  -4.316  0.00  0.00    -0.470 NA
ATOM     25  C   LIG    1       -8.144   3.987  -3.634  0.00  0.00    +0.270 A 
ATOM     26  C   LIG    1       -7.074   3.955  -2.762  0.00  0.00    +0.000 A 
ENDBRANCH  18  21
ENDBRANCH   1  16
BRANCH   1  28
ATOM     27  C   LIG    1       -3.101   2.014   2.260  0.00  0.00    +0.030 C 
ATOM     28  C   LIG    1       -2.816   0.743   1.456  0.00  0.00    -0.010 C 
ATOM     29  C   LIG    1       -4.062  -0.145   1.448  0.00  0.00    +0.040 C 
ENDBRANCH   1  28
TORSDOF 7
