REMARK  Name = ZINCrm000010EVmk.0
REMARK                            x       y       z     vdW  Elec       q    Type
REMARK                         _______ _______ _______ _____ _____    ______ ____
ROOT
ATOM      1  C   LIG    1       -6.170   4.968   0.474  0.00  0.00    +0.080 C 
ATOM      2  C   LIG    1       -5.964   5.634  -0.888  0.00  0.00    +0.140 C 
ENDROOT
BRANCH   2   3
ATOM      3  O   LIG    1       -6.737   4.948  -1.875  0.00  0.00    -0.550 OA
ATOM      4  H   LIG    1       -6.557   5.231  -2.782  0.00  0.00    +0.380 HD
ENDBRANCH   2   3
BRANCH   2   5
ATOM      5  C   LIG    1       -6.411   7.095  -0.814  0.00  0.00    +0.080 C 
BRANCH   5   6
ATOM      6  C   LIG    1       -7.827   7.162  -0.303  0.00  0.00    -0.080 A 
ATOM      7  C   LIG    1       -8.804   6.362  -0.867  0.00  0.00    +0.030 A 
ATOM      8  C   LIG    1      -10.102   6.420  -0.396  0.00  0.00    +0.000 A 
ATOM      9  C   LIG    1      -10.426   7.285   0.633  0.00  0.00    +0.010 A 
ATOM     10  C   LIG    1       -9.450   8.088   1.193  0.00  0.00    +0.010 A 
ATOM     11  C   LIG    1       -8.151   8.027   0.725  0.00  0.00    +0.010 A 
ENDBRANCH   5   6
BRANCH   5  12
ATOM     12  C   LIG    1       -6.343   7.711  -2.188  0.00  0.00    -0.090 A 
ATOM     13  C   LIG    1       -5.415   8.700  -2.456  0.00  0.00    +0.010 A 
ATOM     14  C   LIG    1       -5.349   9.262  -3.717  0.00  0.00    +0.020 A 
ATOM     15  C   LIG    1       -6.217   8.842  -4.707  0.00  0.00    +0.020 A 
ATOM     16  C   LIG    1       -7.149   7.857  -4.437  0.00  0.00    +0.020 A 
ATOM     17  C   LIG    1       -7.211   7.292  -3.177  0.00  0.00    +0.010 A 
ENDBRANCH   5  12
ENDBRANCH   2   5
BRANCH   2  18
ATOM     18  C   LIG    1       -4.483   5.572  -1.267  0.00  0.00    +0.260 C 
BRANCH  18  19
ATOM     19  N   LIG    1       -4.055   4.173  -1.337  0.00  0.00    -0.710 N 
ATOM     20  H   LIG    1       -4.689   3.462  -1.154  0.00  0.00    +0.410 HD
ATOM     21  C   LIG    1       -2.780   3.873  -1.657  0.00  0.00    +0.480 C 
ATOM     22  O   LIG    1       -1.965   4.761  -1.796  0.00  0.00    -0.490 OA
BRANCH  21  23
ATOM     23  C   LIG    1       -2.367   2.436  -1.840  0.00  0.00    -0.130 C 
ATOM     24  C   LIG    1       -0.937   2.358  -2.423  0.00  0.00    +0.120 C 
ATOM     25  C   LIG    1       -1.191   2.173  -3.942  0.00  0.00    +0.310 C 
ATOM     26  N   LIG    1       -2.383   1.288  -3.980  0.00  0.00    -0.520 N 
ATOM     27  H   LIG    1       -2.854   1.377  -4.868  0.00  0.00    +0.450 HD
ATOM     28  H   LIG    1       -2.110   0.330  -3.825  0.00  0.00    +0.440 HD
ATOM     29  C   LIG    1       -3.265   1.751  -2.887  0.00  0.00    +0.320 C 
BRANCH  23  30
ATOM     30  C   LIG    1       -2.440   1.688  -0.507  0.00  0.00    +0.310 C 
BRANCH  30  31
ATOM     31  N   LIG    1       -1.663   2.416   0.505  0.00  0.00    -0.640 N 
ATOM     32  H   LIG    1       -0.722   2.555   0.171  0.00  0.00    +0.440 HD
ATOM     33  H   LIG    1       -1.641   1.881   1.361  0.00  0.00    +0.450 HD
ATOM     34  H   LIG    1       -2.094   3.312   0.680  0.00  0.00    +0.440 HD
ENDBRANCH  30  31
ENDBRANCH  23  30
ENDBRANCH  21  23
ENDBRANCH  18  19
ENDBRANCH   2  18
TORSDOF 9
