REMARK  Name = ZINCpe000000Wh2q.0
REMARK                            x       y       z     vdW  Elec       q    Type
REMARK                         _______ _______ _______ _____ _____    ______ ____
ROOT
ATOM      1  C   LIG    1        1.287  -2.655   2.204  0.00  0.00    +0.570 C 
ATOM      2  N   LIG    1        1.016  -1.949   1.089  0.00  0.00    -0.720 N 
ATOM      3  H   LIG    1        0.912  -2.405   0.239  0.00  0.00    +0.400 HD
ATOM      4  O   LIG    1        1.418  -2.082   3.269  0.00  0.00    -0.530 OA
ENDROOT
BRANCH   1   7
ATOM      5  C   LIG    1        1.832  -6.230   3.221  0.00  0.00    +0.140 A 
ATOM      6  C   LIG    1        1.704  -4.855   3.290  0.00  0.00    -0.020 A 
ATOM      7  C   LIG    1        1.424  -4.123   2.134  0.00  0.00    -0.060 A 
ATOM      8  C   LIG    1        1.268  -4.782   0.912  0.00  0.00    -0.060 A 
ATOM      9  C   LIG    1        1.401  -6.156   0.848  0.00  0.00    +0.140 A 
ATOM     10  C   LIG    1        1.681  -6.885   2.002  0.00  0.00    +0.060 A 
BRANCH   5  12
ATOM     11  C   LIG    1        2.246  -6.209   5.563  0.00  0.00    +0.250 C 
ATOM     12  O   LIG    1        2.104  -6.944   4.346  0.00  0.00    -0.300 OA
ENDBRANCH   5  12
BRANCH   9  13
ATOM     13  O   LIG    1        1.254  -6.798  -0.342  0.00  0.00    -0.300 OA
ATOM     14  C   LIG    1        0.968  -5.990  -1.484  0.00  0.00    +0.250 C 
ENDBRANCH   9  13
BRANCH  10  15
ATOM     15  O   LIG    1        1.806  -8.236   1.937  0.00  0.00    -0.310 OA
ATOM     16  C   LIG    1        0.619  -9.008   2.128  0.00  0.00    +0.240 C 
ENDBRANCH  10  15
ENDBRANCH   1   7
BRANCH   2  17
ATOM     17  C   LIG    1        0.880  -0.492   1.159  0.00  0.00    +0.230 C 
ATOM     18  C   LIG    1        2.263   0.156   1.052  0.00  0.00    +0.010 C 
ATOM     19  C   LIG    1        2.125   1.677   1.158  0.00  0.00    +0.020 C 
ATOM     20  C   LIG    1        1.261   2.189   0.002  0.00  0.00    +0.300 C 
ATOM     21  N   LIG    1       -0.018   1.465   0.010  0.00  0.00    -1.000 NA
ATOM     22  C   LIG    1        0.002  -0.004   0.002  0.00  0.00    +0.290 C 
BRANCH  21  23
ATOM     23  S   LIG    1       -1.454   2.289   0.021  0.00  0.00    +2.610 S 
ATOM     24  O   LIG    1       -2.377   1.394  -0.584  0.00  0.00    -0.950 OA
ATOM     25  O   LIG    1       -1.145   3.540  -0.579  0.00  0.00    -0.950 OA
ATOM     26  C   LIG    1       -1.838   2.505   1.781  0.00  0.00    -0.280 C 
ENDBRANCH  21  23
ENDBRANCH   2  17
TORSDOF 6
