REMARK  Name = ZINCkj000005lqW7.0
REMARK                            x       y       z     vdW  Elec       q    Type
REMARK                         _______ _______ _______ _____ _____    ______ ____
ROOT
ATOM      1  C   LIG    1       -2.844   0.522   1.934  0.00  0.00    +0.530 C 
ATOM      2  N   LIG    1       -2.179   1.361   1.115  0.00  0.00    -0.610 N 
ATOM      3  C   LIG    1       -0.732   1.581   1.268  0.00  0.00    +0.310 C 
ATOM      4  C   LIG    1       -0.013   1.086   0.008  0.00  0.00    +0.330 C 
ATOM      5  N   LIG    1       -0.723   1.572  -1.178  0.00  0.00    -0.360 N 
ATOM      6  N   LIG    1       -0.231   1.664  -2.482  0.00  0.00    -0.270 NA
ATOM      7  C   LIG    1       -1.184   2.139  -3.247  0.00  0.00    +0.280 A 
ATOM      8  C   LIG    1       -2.313   2.368  -2.449  0.00  0.00    -0.230 A 
ATOM      9 BR   LIG    1       -3.975   3.049  -3.040  0.00  0.00    -0.010 Br
ATOM     10  C   LIG    1       -2.002   2.015  -1.187  0.00  0.00    +0.090 A 
ATOM     11  C   LIG    1       -2.881   2.087   0.040  0.00  0.00    +0.390 C 
ATOM     12  O   LIG    1       -2.249  -0.065   2.813  0.00  0.00    -0.540 OA
ENDROOT
BRANCH   1  17
ATOM     13  C   LIG    1       -5.371  -3.104   2.095  0.00  0.00    +0.170 C 
ATOM     14  C   LIG    1       -4.358  -2.771   0.968  0.00  0.00    +0.070 C 
ATOM     15  C   LIG    1       -5.305  -1.627   0.580  0.00  0.00    +0.020 C 
ATOM     16  C   LIG    1       -4.610  -0.276   0.371  0.00  0.00    +0.060 C 
ATOM     17  C   LIG    1       -4.326   0.315   1.759  0.00  0.00    +0.010 C 
ATOM     18  C   LIG    1       -4.839  -0.696   2.796  0.00  0.00    +0.070 C 
ATOM     19  C   LIG    1       -5.806  -1.629   2.042  0.00  0.00    +0.010 C 
BRANCH  13  20
ATOM     20  N   LIG    1       -4.745  -3.488   3.368  0.00  0.00    -0.630 N 
ATOM     21  H   LIG    1       -3.921  -2.925   3.520  0.00  0.00    +0.430 HD
ATOM     22  H   LIG    1       -4.486  -4.462   3.335  0.00  0.00    +0.440 HD
ATOM     23  H   LIG    1       -5.398  -3.339   4.122  0.00  0.00    +0.440 HD
ENDBRANCH  13  20
ENDBRANCH   1  17
TORSDOF 2
