REMARK  Name = ZINCqH0000034LyV.0
REMARK                            x       y       z     vdW  Elec       q    Type
REMARK                         _______ _______ _______ _____ _____    ______ ____
ROOT
ATOM      1  N   LIG    1        0.002  -0.004   0.002  0.00  0.00    -0.680 N 
ATOM      2  H   LIG    1       -0.828  -0.501   0.075  0.00  0.00    +0.410 HD
ATOM      3  C   LIG    1        1.173  -0.661  -0.114  0.00  0.00    +0.710 C 
ATOM      4  N   LIG    1        1.183  -2.005  -0.223  0.00  0.00    -0.650 N 
ATOM      5  H   LIG    1        0.348  -2.498  -0.218  0.00  0.00    +0.410 HD
ATOM      6  O   LIG    1        2.220  -0.043  -0.121  0.00  0.00    -0.570 OA
ENDROOT
BRANCH   1   9
ATOM      7  C   LIG    1        0.995   3.490   0.634  0.00  0.00    -0.110 A 
ATOM      8  C   LIG    1        1.014   2.095   0.625  0.00  0.00    +0.070 A 
ATOM      9  C   LIG    1       -0.016   1.396   0.018  0.00  0.00    +0.160 A 
ATOM     10  C   LIG    1       -1.071   2.083  -0.572  0.00  0.00    +0.030 A 
ATOM     11  C   LIG    1       -1.094   3.465  -0.559  0.00  0.00    +0.050 A 
ATOM     12  C   LIG    1       -0.070   4.173   0.039  0.00  0.00    -0.000 A 
ATOM     13 CL   LIG    1       -0.104   5.908   0.051  0.00  0.00    -0.030 Cl
BRANCH   7  17
ATOM     14  C   LIG    1        4.207   4.329   2.483  0.00  0.00    +0.290 C 
ATOM     15  N   LIG    1        3.119   3.583   1.848  0.00  0.00    -0.730 N 
ATOM     16  H   LIG    1        3.136   2.613   1.840  0.00  0.00    +0.400 HD
ATOM     17  C   LIG    1        2.093   4.243   1.275  0.00  0.00    +0.550 C 
ATOM     18  O   LIG    1        2.071   5.459   1.285  0.00  0.00    -0.510 OA
ENDBRANCH   7  17
ENDBRANCH   1   9
BRANCH   4  19
ATOM     19  C   LIG    1        2.405  -2.691  -0.345  0.00  0.00    +0.020 A 
ATOM     20  C   LIG    1        3.638  -2.128  -0.372  0.00  0.00    +0.260 A 
ATOM     21  N   LIG    1        4.549  -3.129  -0.498  0.00  0.00    -0.470 N 
ATOM     22  H   LIG    1        5.512  -3.021  -0.542  0.00  0.00    +0.450 HD
ATOM     23  N   LIG    1        3.855  -4.344  -0.557  0.00  0.00    -0.260 NA
ATOM     24  C   LIG    1        2.567  -4.088  -0.466  0.00  0.00    +0.100 A 
BRANCH  24  25
ATOM     25  C   LIG    1        1.475  -5.093  -0.487  0.00  0.00    -0.020 A 
ATOM     26  C   LIG    1        0.334  -4.902   0.290  0.00  0.00    +0.010 A 
ATOM     27  C   LIG    1       -0.681  -5.837   0.262  0.00  0.00    +0.010 A 
ATOM     28  C   LIG    1       -0.562  -6.967  -0.527  0.00  0.00    +0.020 A 
ATOM     29  C   LIG    1        0.571  -7.165  -1.296  0.00  0.00    +0.010 A 
ATOM     30  C   LIG    1        1.589  -6.233  -1.280  0.00  0.00    +0.040 A 
ENDBRANCH  24  25
ENDBRANCH   4  19
TORSDOF 4
