REMARK  Name = ZINCpk00001AZiEK.0
REMARK                            x       y       z     vdW  Elec       q    Type
REMARK                         _______ _______ _______ _____ _____    ______ ____
ROOT
ATOM      1  O   LIG    1       -2.099   7.656  -2.919  0.00  0.00    -0.670 OA
ATOM      2  C   LIG    1       -2.428   6.868  -3.784  0.00  0.00    +0.720 C 
ATOM      3  N   LIG    1       -2.202   5.550  -3.615  0.00  0.00    -0.740 N 
ATOM      4  H   LIG    1       -2.465   4.920  -4.305  0.00  0.00    +0.400 HD
ATOM      5  N   LIG    1       -3.019   7.311  -4.911  0.00  0.00    -1.140 NA
ENDROOT
BRANCH   5   6
ATOM      6  S   LIG    1       -3.297   8.931  -5.118  0.00  0.00    +2.700 S 
ATOM      7  O   LIG    1       -2.021   9.547  -5.221  0.00  0.00    -0.980 OA
ATOM      8  O   LIG    1       -4.262   9.300  -4.142  0.00  0.00    -1.010 OA
BRANCH   6   9
ATOM      9  C   LIG    1       -4.074   9.130  -6.687  0.00  0.00    -0.570 A 
ATOM     10  C   LIG    1       -3.452   9.335  -7.870  0.00  0.00    +0.200 A 
ATOM     11  N   LIG    1       -4.379   9.432  -8.827  0.00  0.00    -0.490 NA
ATOM     12  C   LIG    1       -5.581   9.305  -8.283  0.00  0.00    +0.260 A 
ATOM     13  C   LIG    1       -6.879   9.335  -8.832  0.00  0.00    +0.070 A 
ATOM     14  C   LIG    1       -7.953   9.172  -8.013  0.00  0.00    +0.070 A 
ATOM     15  C   LIG    1       -7.755   8.978  -6.636  0.00  0.00    +0.010 A 
ATOM     16  C   LIG    1       -6.506   8.952  -6.125  0.00  0.00    +0.260 A 
ATOM     17 CL   LIG    1       -1.736   9.446  -8.107  0.00  0.00    +0.030 Cl
ATOM     18  N   LIG    1       -5.420   9.114  -6.935  0.00  0.00    -0.310 N 
ENDBRANCH   6   9
ENDBRANCH   5   6
BRANCH   3  19
ATOM     19  C   LIG    1       -1.560   5.067  -2.390  0.00  0.00    +0.270 C 
BRANCH  19  20
ATOM     20  C   LIG    1       -1.422   3.545  -2.452  0.00  0.00    +0.250 C 
BRANCH  20  21
ATOM     21  N   LIG    1       -0.778   3.061  -1.224  0.00  0.00    -0.380 N 
ATOM     22  C   LIG    1       -0.755   1.594  -1.230  0.00  0.00    +0.250 C 
ATOM     23  C   LIG    1       -0.013   1.086   0.008  0.00  0.00    +0.050 C 
ATOM     24  C   LIG    1       -0.731   1.581   1.267  0.00  0.00    +0.030 C 
ATOM     25  C   LIG    1       -0.817   3.109   1.226  0.00  0.00    +0.060 C 
ATOM     26  C   LIG    1       -1.529   3.542  -0.057  0.00  0.00    +0.250 C 
ATOM     27  H   LIG    1        0.167   3.412  -1.181  0.00  0.00    +0.420 HD
ENDBRANCH  20  21
ENDBRANCH  19  20
ENDBRANCH   3  19
TORSDOF 5
