REMARK  Name = ZINCvU00000008NH.0
REMARK                            x       y       z     vdW  Elec       q    Type
REMARK                         _______ _______ _______ _____ _____    ______ ____
ROOT
ATOM      1  N   LIG    1       -0.017   1.384  -0.004  0.00  0.00    -0.610 N 
ATOM      2  H   LIG    1        0.816   1.880  -0.020  0.00  0.00    +0.430 HD
ATOM      3  C   LIG    1       -1.193   2.042   0.019  0.00  0.00    +0.570 C 
ATOM      4  O   LIG    1       -2.237   1.420   0.033  0.00  0.00    -0.480 OA
ENDROOT
BRANCH   3   5
ATOM      5  C   LIG    1       -1.213   3.520   0.027  0.00  0.00    -0.070 A 
ATOM      6  C   LIG    1       -0.043   4.256   0.129  0.00  0.00    +0.040 A 
ATOM      7  C   LIG    1       -0.108   5.661   0.126  0.00  0.00    +0.240 A 
ATOM      8  N   LIG    1       -1.252   6.311   0.042  0.00  0.00    -0.440 NA
ATOM      9  C   LIG    1       -2.425   5.681  -0.053  0.00  0.00    +0.130 A 
ATOM     10  C   LIG    1       -3.630   6.402  -0.142  0.00  0.00    +0.050 A 
ATOM     11  C   LIG    1       -4.812   5.732  -0.238  0.00  0.00    +0.040 A 
ATOM     12  C   LIG    1       -4.850   4.340  -0.250  0.00  0.00    +0.030 A 
ATOM     13  C   LIG    1       -3.701   3.609  -0.167  0.00  0.00    +0.060 A 
ATOM     14  C   LIG    1       -2.470   4.265  -0.066  0.00  0.00    -0.060 A 
BRANCH   7  15
ATOM     15  C   LIG    1        1.145   6.433   0.228  0.00  0.00    -0.000 A 
ATOM     16  C   LIG    1        1.248   7.790   0.238  0.00  0.00    +0.030 A 
ATOM     17  C   LIG    1        2.619   8.091   0.352  0.00  0.00    -0.060 A 
ATOM     18  C   LIG    1        3.279   6.916   0.395  0.00  0.00    +0.200 A 
ATOM     19  O   LIG    1        2.386   5.917   0.320  0.00  0.00    -0.170 OA
ENDBRANCH   7  15
ENDBRANCH   3   5
BRANCH   1  23
ATOM     20  C   LIG    1        0.896  -2.053  -0.043  0.00  0.00    +0.140 A 
ATOM     21  C   LIG    1       -0.384  -2.466  -0.018  0.00  0.00    -0.110 A 
ATOM     22  S   LIG    1       -1.421  -1.041   0.013  0.00  0.00    +0.210 S 
ATOM     23  C   LIG    1        0.002  -0.004  -0.012  0.00  0.00    +0.270 A 
ATOM     24  N   LIG    1        1.070  -0.739  -0.044  0.00  0.00    -0.490 NA
BRANCH  20  28
ATOM     25  C   LIG    1        4.162  -4.778  -0.129  0.00  0.00    +0.140 A 
ATOM     26  C   LIG    1        4.401  -3.410  -0.127  0.00  0.00    -0.020 A 
ATOM     27  C   LIG    1        3.344  -2.524  -0.099  0.00  0.00    +0.090 A 
ATOM     28  C   LIG    1        2.035  -3.003  -0.073  0.00  0.00    -0.060 A 
ATOM     29  C   LIG    1        1.799  -4.377  -0.071  0.00  0.00    +0.070 A 
ATOM     30  C   LIG    1        2.860  -5.258  -0.103  0.00  0.00    -0.080 A 
BRANCH  25  32
ATOM     31  C   LIG    1        4.888  -7.042  -0.157  0.00  0.00    +0.250 C 
ATOM     32  O   LIG    1        5.205  -5.648  -0.156  0.00  0.00    -0.320 OA
ENDBRANCH  25  32
ENDBRANCH  20  28
ENDBRANCH   1  23
TORSDOF 5
