REMARK  Name = ZINCtV00000L6kZK.0
REMARK                            x       y       z     vdW  Elec       q    Type
REMARK                         _______ _______ _______ _____ _____    ______ ____
ROOT
ATOM      1  O   LIG    1       -0.987   2.127  -0.437  0.00  0.00    -0.470 OA
ATOM      2  C   LIG    1       -0.059   1.484   0.014  0.00  0.00    +0.570 C 
ATOM      3  N   LIG    1        1.009   2.118   0.538  0.00  0.00    -0.470 N 
ENDROOT
BRANCH   3   4
ATOM      4  C   LIG    1        1.014   3.500   0.638  0.00  0.00    +0.310 A 
ATOM      5  N   LIG    1        2.020   4.205   1.022  0.00  0.00    -0.490 NA
ATOM      6  C   LIG    1        1.873   5.544   1.064  0.00  0.00    +0.100 A 
ATOM      7  C   LIG    1        2.815   6.525   1.441  0.00  0.00    +0.060 A 
ATOM      8  C   LIG    1        2.477   7.855   1.427  0.00  0.00    +0.040 A 
ATOM      9  C   LIG    1        1.206   8.256   1.043  0.00  0.00    +0.040 A 
ATOM     10  C   LIG    1        0.270   7.317   0.671  0.00  0.00    +0.060 A 
ATOM     11  C   LIG    1        0.595   5.963   0.679  0.00  0.00    -0.210 A 
ATOM     12  S   LIG    1       -0.356   4.538   0.268  0.00  0.00    +0.180 S 
ENDBRANCH   3   4
BRANCH   3  13
ATOM     13  C   LIG    1        2.114   1.379   0.980  0.00  0.00    +0.100 A 
ATOM     14  C   LIG    1        1.975   0.481   2.030  0.00  0.00    +0.060 A 
ATOM     15  C   LIG    1        3.065  -0.249   2.461  0.00  0.00    +0.010 A 
ATOM     16  C   LIG    1        4.298  -0.079   1.854  0.00  0.00    +0.120 A 
ATOM     17  C   LIG    1        4.440   0.820   0.810  0.00  0.00    +0.010 A 
ATOM     18  F   LIG    1        5.364  -0.791   2.281  0.00  0.00    -0.130 F 
ATOM     19  C   LIG    1        3.351   1.548   0.372  0.00  0.00    +0.080 A 
ENDBRANCH   3  13
BRANCH   2  20
ATOM     20  C   LIG    1       -0.101   0.007  -0.016  0.00  0.00    -0.110 A 
ATOM     21  C   LIG    1        1.085  -0.726  -0.104  0.00  0.00    +0.060 A 
ATOM     22  C   LIG    1        1.039  -2.104  -0.126  0.00  0.00    +0.080 A 
ATOM     23  C   LIG    1       -0.178  -2.760  -0.074  0.00  0.00    -0.150 A 
ATOM     24  C   LIG    1       -1.356  -2.040   0.007  0.00  0.00    +0.070 A 
ATOM     25  C   LIG    1       -1.325  -0.661   0.036  0.00  0.00    +0.100 A 
BRANCH  23  26
ATOM     26  C   LIG    1       -0.220  -4.266  -0.106  0.00  0.00    +0.510 C 
ATOM     27  F   LIG    1       -1.336  -4.717   0.606  0.00  0.00    -0.170 F 
ATOM     28  F   LIG    1        0.944  -4.778   0.479  0.00  0.00    -0.170 F 
ATOM     29  F   LIG    1       -0.305  -4.703  -1.433  0.00  0.00    -0.170 F 
ENDBRANCH  23  26
ENDBRANCH   2  20
TORSDOF 4
