REMARK  Name = ZINCkj00000Bdb1V.0
REMARK                            x       y       z     vdW  Elec       q    Type
REMARK                         _______ _______ _______ _____ _____    ______ ____
ROOT
ATOM      1  N   LIG    1       -4.075   2.693  -0.045  0.00  0.00    -0.730 N 
ATOM      2  H   LIG    1       -3.425   1.974  -0.056  0.00  0.00    +0.400 HD
ATOM      3  C   LIG    1       -3.662   3.972   0.059  0.00  0.00    +0.610 C 
ATOM      4  O   LIG    1       -4.479   4.869   0.164  0.00  0.00    -0.540 OA
ENDROOT
BRANCH   3   5
ATOM      5  C   LIG    1       -2.277   4.274   0.046  0.00  0.00    -0.160 A 
ATOM      6  C   LIG    1       -1.230   3.366   0.031  0.00  0.00    +0.300 A 
ATOM      7  N   LIG    1       -0.094   4.044   0.022  0.00  0.00    -0.480 NA
ATOM      8  C   LIG    1       -0.350   5.352   0.030  0.00  0.00    +0.240 A 
ATOM      9  C   LIG    1        0.500   6.473   0.025  0.00  0.00    +0.120 A 
ATOM     10  C   LIG    1       -0.041   7.723   0.036  0.00  0.00    +0.060 A 
ATOM     11  C   LIG    1       -1.435   7.875   0.051  0.00  0.00    +0.100 A 
ATOM     12  C   LIG    1       -2.237   6.783   0.061  0.00  0.00    +0.210 A 
ATOM     13  F   LIG    1       -1.980   9.111   0.062  0.00  0.00    -0.110 F 
ATOM     14  N   LIG    1       -1.703   5.532   0.045  0.00  0.00    -0.310 N 
ENDBRANCH   3   5
BRANCH   1  19
ATOM     15  C   LIG    1       -5.722   1.012  -0.816  0.00  0.00    -0.030 C 
ATOM     16  C   LIG    1       -7.123   0.598  -0.297  0.00  0.00    +0.030 C 
ATOM     17  C   LIG    1       -7.149   1.091   1.164  0.00  0.00    +0.040 C 
ATOM     18  C   LIG    1       -6.120   2.231   1.262  0.00  0.00    +0.020 C 
ATOM     19  C   LIG    1       -5.505   2.391  -0.143  0.00  0.00    +0.270 C 
BRANCH  15  20
ATOM     20  C   LIG    1       -5.723   1.147  -2.340  0.00  0.00    +0.280 C 
BRANCH  20  21
ATOM     21  N   LIG    1       -5.811  -0.187  -2.949  0.00  0.00    -0.640 N 
ATOM     22  H   LIG    1       -5.018  -0.741  -2.660  0.00  0.00    +0.440 HD
ATOM     23  H   LIG    1       -5.811  -0.098  -3.954  0.00  0.00    +0.440 HD
ATOM     24  H   LIG    1       -6.663  -0.637  -2.651  0.00  0.00    +0.440 HD
ENDBRANCH  20  21
ENDBRANCH  15  20
ENDBRANCH   1  19
TORSDOF 4
