REMARK  Name = ZINCc70000003ZnG.0
REMARK                            x       y       z     vdW  Elec       q    Type
REMARK                         _______ _______ _______ _____ _____    ______ ____
ROOT
ATOM      1  C   LIG    1        0.036  -2.103   0.650  0.00  0.00    -0.330 A 
ATOM      2  C   LIG    1        0.023  -0.791   1.087  0.00  0.00    +0.340 A 
ATOM      3  N   LIG    1        0.002  -0.004   0.002  0.00  0.00    -0.350 N 
ATOM      4  N   LIG    1       -0.004  -0.814  -1.139  0.00  0.00    -0.360 NA
ATOM      5  C   LIG    1       -0.018   1.461   0.010  0.00  0.00    +0.370 C 
ATOM      6  C   LIG    1        0.022  -2.069  -0.768  0.00  0.00    +0.400 A 
ENDROOT
BRANCH   6   7
ATOM      7  N   LIG    1        0.028  -3.176  -1.617  0.00  0.00    -0.830 N 
ATOM      8  H   LIG    1        0.017  -3.050  -2.578  0.00  0.00    +0.410 HD
ATOM      9  H   LIG    1        0.043  -4.072  -1.245  0.00  0.00    +0.420 HD
ENDBRANCH   6   7
BRANCH   1  10
ATOM     10  C   LIG    1        0.060  -3.306   1.496  0.00  0.00    +0.550 C 
ATOM     11  O   LIG    1        0.069  -4.408   0.984  0.00  0.00    -0.530 OA
BRANCH  10  12
ATOM     12  O   LIG    1        0.071  -3.186   2.838  0.00  0.00    -0.360 OA
BRANCH  12  14
ATOM     13  C   LIG    1        0.104  -4.081   5.103  0.00  0.00    +0.070 C 
ATOM     14  C   LIG    1        0.094  -4.416   3.610  0.00  0.00    +0.200 C 
ENDBRANCH  12  14
ENDBRANCH  10  12
ENDBRANCH   1  10
TORSDOF 4
