REMARK  Name = ZINCqH0000032FtU.0
REMARK                            x       y       z     vdW  Elec       q    Type
REMARK                         _______ _______ _______ _____ _____    ______ ____
ROOT
ATOM      1  C   LIG    1       -3.240   7.728  -1.532  0.00  0.00    +0.050 C 
ATOM      2  C   LIG    1       -2.473   8.081  -0.256  0.00  0.00    +0.190 C 
ATOM      3  C   LIG    1       -2.008   9.551  -0.309  0.00  0.00    -0.020 C 
ATOM      4  C   LIG    1       -0.596   9.494   0.332  0.00  0.00    +0.060 C 
ATOM      5  C   LIG    1       -0.083   8.120  -0.168  0.00  0.00    +0.260 C 
ATOM      6  C   LIG    1       -3.366   7.864   0.967  0.00  0.00    +0.040 C 
ATOM      7  N   LIG    1       -1.268   7.245  -0.149  0.00  0.00    -0.620 N 
ATOM      8  C   LIG    1       -1.251   5.900  -0.056  0.00  0.00    +0.730 C 
ATOM      9  N   LIG    1       -0.075   5.246   0.031  0.00  0.00    -0.680 N 
ATOM     10  H   LIG    1        0.753   5.745   0.104  0.00  0.00    +0.410 HD
ATOM     11  O   LIG    1       -2.295   5.278  -0.050  0.00  0.00    -0.560 OA
ENDROOT
BRANCH   9  12
ATOM     12  C   LIG    1       -0.051   3.847   0.017  0.00  0.00    +0.190 A 
ATOM     13  C   LIG    1       -0.987   3.143  -0.730  0.00  0.00    +0.000 A 
ATOM     14  C   LIG    1       -0.960   1.762  -0.750  0.00  0.00    +0.060 A 
ATOM     15  C   LIG    1       -0.009   1.076  -0.018  0.00  0.00    -0.050 A 
ATOM     16  C   LIG    1        0.930   1.775   0.731  0.00  0.00    +0.130 A 
ATOM     17  C   LIG    1        0.909   3.162   0.748  0.00  0.00    -0.040 A 
BRANCH  16  18
ATOM     18  N   LIG    1        1.894   1.081   1.466  0.00  0.00    -0.490 N 
ATOM     19  C   LIG    1        3.250   1.500   1.084  0.00  0.00    +0.160 C 
ATOM     20  C   LIG    1        4.271   0.761   1.954  0.00  0.00    +0.220 C 
ATOM     21  O   LIG    1        4.080  -0.649   1.810  0.00  0.00    -0.380 OA
ATOM     22  C   LIG    1        2.769  -1.092   2.174  0.00  0.00    +0.220 C 
ATOM     23  C   LIG    1        1.734  -0.372   1.307  0.00  0.00    +0.170 C 
ENDBRANCH  16  18
ENDBRANCH   9  12
BRANCH   3  24
ATOM     24  C   LIG    1       -2.938  10.447   0.511  0.00  0.00    +0.470 C 
ATOM     25  F   LIG    1       -3.025   9.957   1.818  0.00  0.00    -0.170 F 
ATOM     26  F   LIG    1       -4.211  10.453  -0.070  0.00  0.00    -0.180 F 
ATOM     27  F   LIG    1       -2.430  11.750   0.534  0.00  0.00    -0.180 F 
ENDBRANCH   3  24
TORSDOF 3
