REMARK  Name = ZINCpk00000e9yNA.0
REMARK                            x       y       z     vdW  Elec       q    Type
REMARK                         _______ _______ _______ _____ _____    ______ ____
ROOT
ATOM      1  N   LIG    1       -0.720   1.722   1.341  0.00  0.00    -0.730 N 
ATOM      2  H   LIG    1       -0.884   1.009   1.978  0.00  0.00    +0.400 HD
ATOM      3  C   LIG    1       -1.048   2.992   1.651  0.00  0.00    +0.590 C 
ATOM      4  O   LIG    1       -0.841   3.886   0.852  0.00  0.00    -0.530 OA
ENDROOT
BRANCH   3   5
ATOM      5  C   LIG    1       -1.655   3.297   2.954  0.00  0.00    -0.290 A 
ATOM      6  C   LIG    1       -2.044   4.550   3.412  0.00  0.00    +0.370 A 
ATOM      7  N   LIG    1       -2.551   4.383   4.649  0.00  0.00    -0.360 N 
ATOM      8  N   LIG    1       -2.484   3.024   4.976  0.00  0.00    -0.270 NA
ATOM      9  C   LIG    1       -3.084   5.444   5.507  0.00  0.00    +0.370 C 
ATOM     10  C   LIG    1       -1.960   2.370   3.977  0.00  0.00    +0.280 A 
BRANCH   6  11
ATOM     11  N   LIG    1       -1.931   5.752   2.723  0.00  0.00    -0.400 N 
ATOM     12  C   LIG    1       -0.830   6.174   2.032  0.00  0.00    +0.230 A 
ATOM     13  C   LIG    1       -1.105   7.382   1.499  0.00  0.00    -0.050 A 
ATOM     14  C   LIG    1       -2.418   7.724   1.881  0.00  0.00    -0.030 A 
ATOM     15  C   LIG    1       -2.900   6.712   2.628  0.00  0.00    +0.130 A 
ENDBRANCH   6  11
ENDBRANCH   3   5
BRANCH   1  16
ATOM     16  C   LIG    1       -0.114   1.418   0.042  0.00  0.00    +0.300 C 
BRANCH  16  17
ATOM     17  C   LIG    1        0.004  -0.098  -0.124  0.00  0.00    +0.100 C 
ATOM     18  C   LIG    1        0.683  -0.695   1.111  0.00  0.00    +0.000 C 
BRANCH  17  19
ATOM     19  N   LIG    1       -1.336  -0.680  -0.274  0.00  0.00    -0.520 NA
ATOM     20  C   LIG    1       -2.234  -0.220   0.795  0.00  0.00    +0.140 C 
ATOM     21  C   LIG    1       -3.632  -0.801   0.566  0.00  0.00    +0.220 C 
ATOM     22  O   LIG    1       -3.545  -2.228   0.508  0.00  0.00    -0.390 OA
ATOM     23  C   LIG    1       -2.680  -2.711  -0.522  0.00  0.00    +0.220 C 
ATOM     24  C   LIG    1       -1.272  -2.149  -0.305  0.00  0.00    +0.150 C 
ENDBRANCH  17  19
BRANCH  17  26
ATOM     25  C   LIG    1        0.097   0.069  -2.615  0.00  0.00    +0.020 C 
ATOM     26  C   LIG    1        0.839  -0.412  -1.367  0.00  0.00    +0.030 C 
ENDBRANCH  17  26
ENDBRANCH  16  17
ENDBRANCH   1  16
TORSDOF 6
