REMARK  Name = ZINCpk000000pVGc.0
REMARK                            x       y       z     vdW  Elec       q    Type
REMARK                         _______ _______ _______ _____ _____    ______ ____
ROOT
ATOM      1  C   LIG    1       -3.949  -3.772   1.718  0.00  0.00    -0.290 A 
ATOM      2  C   LIG    1       -5.299  -3.974   1.681  0.00  0.00    +0.220 A 
ATOM      3  N   LIG    1       -6.132  -2.942   1.590  0.00  0.00    -0.520 NA
ATOM      4  C   LIG    1       -5.684  -1.698   1.521  0.00  0.00    +0.540 A 
ATOM      5  N   LIG    1       -6.321  -0.515   1.412  0.00  0.00    -0.510 NA
ATOM      6  C   LIG    1       -5.455   0.461   1.379  0.00  0.00    +0.400 A 
ATOM      7  N   LIG    1       -4.199  -0.051   1.465  0.00  0.00    -0.390 N 
ATOM      8  C   LIG    1       -5.795   1.925   1.263  0.00  0.00    +0.240 C 
ATOM      9  N   LIG    1       -4.340  -1.442   1.551  0.00  0.00    -0.370 N 
ATOM     10  C   LIG    1       -5.849  -5.376   1.752  0.00  0.00    +0.160 C 
ATOM     11  C   LIG    1       -3.458  -2.454   1.651  0.00  0.00    +0.540 A 
ATOM     12  O   LIG    1       -2.259  -2.234   1.681  0.00  0.00    -0.540 OA
ENDROOT
BRANCH   1  14
ATOM     13  C   LIG    1       -2.529  -5.348   0.434  0.00  0.00    +0.010 C 
ATOM     14  C   LIG    1       -3.002  -4.938   1.831  0.00  0.00    +0.100 C 
ENDBRANCH   1  14
BRANCH   7  15
ATOM     15  C   LIG    1       -2.943   0.704   1.463  0.00  0.00    +0.360 C 
BRANCH  15  16
ATOM     16  C   LIG    1       -2.513   0.974   0.020  0.00  0.00    +0.080 C 
BRANCH  16  17
ATOM     17  C   LIG    1       -1.221   1.750   0.017  0.00  0.00    -0.060 A 
ATOM     18  C   LIG    1       -0.013   1.076   0.008  0.00  0.00    +0.020 A 
ATOM     19  C   LIG    1        1.174   1.780   0.000  0.00  0.00    +0.090 A 
ATOM     20  C   LIG    1        1.153   3.176   0.008  0.00  0.00    -0.140 A 
ATOM     21  C   LIG    1       -0.070   3.849   0.022  0.00  0.00    +0.050 A 
ATOM     22  C   LIG    1       -1.248   3.133   0.030  0.00  0.00    +0.010 A 
BRANCH  20  23
ATOM     23  C   LIG    1        2.420   3.937  -0.001  0.00  0.00    +0.560 C 
ATOM     24  O   LIG    1        3.483   3.348  -0.014  0.00  0.00    -0.540 OA
ATOM     25  N   LIG    1        2.397   5.285   0.006  0.00  0.00    -0.850 N 
ATOM     26  H   LIG    1        3.228   5.784   0.001  0.00  0.00    +0.410 HD
ATOM     27  H   LIG    1        1.548   5.755   0.017  0.00  0.00    +0.400 HD
ENDBRANCH  20  23
ENDBRANCH  16  17
ENDBRANCH  15  16
ENDBRANCH   7  15
TORSDOF 5
