REMARK  Name = ZINCpk00000kTiiM.0
REMARK                            x       y       z     vdW  Elec       q    Type
REMARK                         _______ _______ _______ _____ _____    ______ ____
ROOT
ATOM      1  C   LIG    1        0.452   2.184   3.351  0.00  0.00    +0.100 C 
ATOM      2  C   LIG    1       -0.438   3.369   2.899  0.00  0.00    +0.030 C 
ATOM      3  C   LIG    1       -0.603   3.113   1.380  0.00  0.00    +0.170 C 
ATOM      4  C   LIG    1       -0.729   1.579   1.267  0.00  0.00    -0.010 C 
ATOM      5  C   LIG    1       -0.059   0.989   2.520  0.00  0.00    +0.060 C 
ENDROOT
BRANCH   1  13
ATOM      6  C   LIG    1        2.095   3.449   5.666  0.00  0.00    +0.350 C 
ATOM      7  N   LIG    1        1.004   2.486   5.835  0.00  0.00    -0.550 N 
ATOM      8  C   LIG    1        0.550   2.006   7.010  0.00  0.00    +0.650 A 
ATOM      9  N   LIG    1       -0.457   1.151   6.735  0.00  0.00    -0.550 N 
ATOM     10  H   LIG    1       -0.979   0.650   7.381  0.00  0.00    +0.460 HD
ATOM     11  N   LIG    1       -0.611   1.124   5.342  0.00  0.00    -0.270 NA
ATOM     12  O   LIG    1        0.971   2.292   8.117  0.00  0.00    -0.550 OA
ATOM     13  C   LIG    1        0.268   1.919   4.823  0.00  0.00    +0.290 A 
ENDBRANCH   1  13
BRANCH   3  14
ATOM     14  O   LIG    1        0.546   3.574   0.667  0.00  0.00    -0.550 OA
ATOM     15  H   LIG    1        0.674   4.532   0.704  0.00  0.00    +0.380 HD
ENDBRANCH   3  14
BRANCH   4  16
ATOM     16  C   LIG    1       -0.013   1.086   0.008  0.00  0.00    +0.310 C 
BRANCH  16  17
ATOM     17  N   LIG    1       -0.721   1.571  -1.179  0.00  0.00    -0.710 N 
ATOM     18  H   LIG    1       -1.516   2.118  -1.079  0.00  0.00    +0.410 HD
BRANCH  17  19
ATOM     19  C   LIG    1       -0.254   1.249  -2.448  0.00  0.00    +0.460 A 
ATOM     20  N   LIG    1        0.835   0.507  -2.577  0.00  0.00    -0.540 NA
ATOM     21  C   LIG    1        1.309   0.174  -3.763  0.00  0.00    +0.350 A 
ATOM     22  C   LIG    1        0.687   0.600  -4.919  0.00  0.00    -0.100 A 
ATOM     23  C   LIG    1       -0.456   1.384  -4.827  0.00  0.00    +0.170 A 
ATOM     24  C   LIG    1       -0.932   1.713  -3.571  0.00  0.00    -0.320 A 
BRANCH  24  25
ATOM     25  C   LIG    1       -2.168   2.562  -3.420  0.00  0.00    +0.520 C 
ATOM     26  F   LIG    1       -1.849   3.729  -2.718  0.00  0.00    -0.180 F 
ATOM     27  F   LIG    1       -3.142   1.845  -2.716  0.00  0.00    -0.180 F 
ATOM     28  F   LIG    1       -2.659   2.898  -4.686  0.00  0.00    -0.170 F 
ENDBRANCH  24  25
ENDBRANCH  17  19
ENDBRANCH  16  17
ENDBRANCH   4  16
TORSDOF 6
