REMARK  Name = ZINCkj00000veneQ.0
REMARK                            x       y       z     vdW  Elec       q    Type
REMARK                         _______ _______ _______ _____ _____    ______ ____
ROOT
ATOM      1  C   LIG    1       -0.466   4.004   2.086  0.00  0.00    +0.510 C 
ATOM      2  N   LIG    1       -1.057   3.190   1.189  0.00  0.00    -0.570 N 
ATOM      3  C   LIG    1       -1.048   1.734   1.381  0.00  0.00    +0.270 C 
ATOM      4  C   LIG    1       -0.485   1.073   0.119  0.00  0.00    +0.020 C 
ATOM      5  C   LIG    1       -1.284   1.543  -1.099  0.00  0.00    +0.020 C 
ATOM      6  C   LIG    1       -1.148   3.060  -1.246  0.00  0.00    +0.040 C 
ATOM      7  C   LIG    1       -1.720   3.743   0.000  0.00  0.00    +0.220 C 
ATOM      8  O   LIG    1       -0.547   5.208   1.959  0.00  0.00    -0.530 OA
ENDROOT
BRANCH   1  14
ATOM      9  C   LIG    1        2.305   4.366   4.169  0.00  0.00    +0.320 C 
ATOM     10  N   LIG    1        0.845   4.502   4.083  0.00  0.00    -0.380 N 
ATOM     11  C   LIG    1        0.258   4.397   5.436  0.00  0.00    +0.260 C 
ATOM     12  C   LIG    1       -0.160   2.912   5.572  0.00  0.00    +0.080 C 
ATOM     13  C   LIG    1       -0.659   2.594   4.138  0.00  0.00    +0.100 C 
ATOM     14  C   LIG    1        0.295   3.419   3.248  0.00  0.00    +0.170 C 
ATOM     15  H   LIG    1        0.610   5.396   3.679  0.00  0.00    +0.430 HD
ENDBRANCH   1  14
BRANCH   7  16
ATOM     16  C   LIG    1       -1.467   5.250  -0.079  0.00  0.00    +0.350 C 
BRANCH  16  17
ATOM     17  N   LIG    1       -2.107   5.791  -1.280  0.00  0.00    -0.380 N 
ATOM     18  C   LIG    1       -3.035   6.769  -1.313  0.00  0.00    +0.230 A 
ATOM     19  C   LIG    1       -3.367   6.979  -2.608  0.00  0.00    -0.120 A 
ATOM     20  C   LIG    1       -2.624   6.092  -3.393  0.00  0.00    +0.240 A 
ATOM     21  N   LIG    1       -1.868   5.379  -2.598  0.00  0.00    -0.300 NA
ENDBRANCH  16  17
ENDBRANCH   7  16
TORSDOF 3
