REMARK  Name = ZINCkj00000veneQ.1
REMARK                            x       y       z     vdW  Elec       q    Type
REMARK                         _______ _______ _______ _____ _____    ______ ____
ROOT
ATOM      1  C   LIG    1       -3.396   2.351   1.748  0.00  0.00    +0.510 C 
ATOM      2  N   LIG    1       -3.562   2.428   3.083  0.00  0.00    -0.580 N 
ATOM      3  C   LIG    1       -2.787   1.565   3.985  0.00  0.00    +0.270 C 
ATOM      4  C   LIG    1       -3.749   0.819   4.909  0.00  0.00    +0.020 C 
ATOM      5  C   LIG    1       -4.650   1.828   5.625  0.00  0.00    +0.020 C 
ATOM      6  C   LIG    1       -5.472   2.603   4.592  0.00  0.00    +0.050 C 
ATOM      7  C   LIG    1       -4.526   3.372   3.665  0.00  0.00    +0.220 C 
ATOM      8  O   LIG    1       -3.976   3.128   1.020  0.00  0.00    -0.520 OA
ENDROOT
BRANCH   1  14
ATOM      9  C   LIG    1       -4.617   0.974   0.083  0.00  0.00    +0.320 C 
ATOM     10  N   LIG    1       -3.227   0.505   0.161  0.00  0.00    -0.370 N 
ATOM     11  C   LIG    1       -2.571   0.676  -1.153  0.00  0.00    +0.270 C 
ATOM     12  C   LIG    1       -1.111   1.072  -0.817  0.00  0.00    +0.080 C 
ATOM     13  C   LIG    1       -1.309   1.973   0.430  0.00  0.00    +0.100 C 
ATOM     14  C   LIG    1       -2.490   1.300   1.161  0.00  0.00    +0.150 C 
ATOM     15  H   LIG    1       -3.212  -0.469   0.423  0.00  0.00    +0.430 HD
ENDBRANCH   1  14
BRANCH   7  16
ATOM     16  C   LIG    1       -5.331   4.037   2.547  0.00  0.00    +0.350 C 
BRANCH  16  17
ATOM     17  N   LIG    1       -6.303   4.965   3.130  0.00  0.00    -0.380 N 
ATOM     18  C   LIG    1       -6.382   6.290   2.884  0.00  0.00    +0.230 A 
ATOM     19  C   LIG    1       -7.409   6.784   3.614  0.00  0.00    -0.120 A 
ATOM     20  C   LIG    1       -7.975   5.726   4.332  0.00  0.00    +0.240 A 
ATOM     21  N   LIG    1       -7.317   4.634   4.038  0.00  0.00    -0.300 NA
ENDBRANCH  16  17
ENDBRANCH   7  16
TORSDOF 3
