REMARK  Name = ZINCvU00000004tA.0
REMARK                            x       y       z     vdW  Elec       q    Type
REMARK                         _______ _______ _______ _____ _____    ______ ____
ROOT
ATOM      1  C   LIG    1        2.386   1.265  -0.107  0.00  0.00    +0.150 A 
ATOM      2  C   LIG    1        2.447  -0.123  -0.215  0.00  0.00    +0.040 A 
ATOM      3  C   LIG    1        3.664  -0.762  -0.322  0.00  0.00    +0.070 A 
ATOM      4  C   LIG    1        4.837  -0.023  -0.323  0.00  0.00    -0.000 A 
ATOM      5  O   LIG    1        6.147  -0.349  -0.410  0.00  0.00    -0.180 OA
ATOM      6  C   LIG    1        6.866   0.789  -0.359  0.00  0.00    +0.280 A 
ATOM      7  N   LIG    1        6.067   1.819  -0.242  0.00  0.00    -0.450 NA
ATOM      8  C   LIG    1        4.784   1.377  -0.214  0.00  0.00    +0.040 A 
ATOM      9  C   LIG    1        3.547   2.017  -0.111  0.00  0.00    +0.090 A 
ENDROOT
BRANCH   6  10
ATOM     10  C   LIG    1        8.340   0.862  -0.424  0.00  0.00    +0.030 A 
ATOM     11  C   LIG    1        8.983   2.099  -0.367  0.00  0.00    +0.060 A 
ATOM     12  C   LIG    1       10.363   2.161  -0.422  0.00  0.00    +0.120 A 
ATOM     13  C   LIG    1       11.106   0.998  -0.546  0.00  0.00    +0.030 A 
ATOM     14  C   LIG    1       10.473  -0.231  -0.609  0.00  0.00    +0.090 A 
ATOM     15  F   LIG    1       10.988   3.357  -0.362  0.00  0.00    -0.120 F 
ATOM     16  C   LIG    1        9.096  -0.306  -0.548  0.00  0.00    -0.080 A 
ATOM     17 BR   LIG    1        8.234  -1.987  -0.635  0.00  0.00    -0.010 Br
ENDBRANCH   6  10
BRANCH   1  19
ATOM     18  C   LIG    1        1.023   3.024   0.737  0.00  0.00    +0.580 C 
ATOM     19  N   LIG    1        1.143   1.901   0.001  0.00  0.00    -0.670 N 
ATOM     20  H   LIG    1        0.369   1.534  -0.453  0.00  0.00    +0.410 HD
ATOM     21  O   LIG    1        1.969   3.431   1.384  0.00  0.00    -0.510 OA
BRANCH  18  29
ATOM     22  C   LIG    1       -1.393   7.684   3.084  0.00  0.00    +0.190 C 
ATOM     23  C   LIG    1       -2.151   6.771   2.154  0.00  0.00    +0.120 A 
ATOM     24  N   LIG    1       -3.389   6.912   1.779  0.00  0.00    -0.240 NA
ATOM     25  N   LIG    1       -3.751   5.875   0.914  0.00  0.00    -0.390 N 
ATOM     26  C   LIG    1       -2.683   5.041   0.737  0.00  0.00    +0.340 A 
ATOM     27  N   LIG    1       -2.502   3.932   0.028  0.00  0.00    -0.500 NA
ATOM     28  C   LIG    1       -1.352   3.299   0.015  0.00  0.00    +0.380 A 
ATOM     29  C   LIG    1       -0.258   3.757   0.762  0.00  0.00    -0.240 A 
ATOM     30  C   LIG    1       -0.394   4.918   1.525  0.00  0.00    +0.240 A 
ATOM     31  C   LIG    1       -5.068   5.709   0.293  0.00  0.00    +0.370 C 
ATOM     32  C   LIG    1       -1.628   5.569   1.511  0.00  0.00    -0.230 A 
ENDBRANCH  18  29
ENDBRANCH   1  19
TORSDOF 3
