REMARK  Name = ZINCtV000002vm70.0
REMARK                            x       y       z     vdW  Elec       q    Type
REMARK                         _______ _______ _______ _____ _____    ______ ____
ROOT
ATOM      1  N   LIG    1        1.053   1.675  -0.537  0.00  0.00    -0.520 N 
ATOM      2  C   LIG    1       -0.055   1.028  -0.127  0.00  0.00    +0.560 C 
ATOM      3  O   LIG    1        0.043  -0.023   0.477  0.00  0.00    -0.460 OA
ENDROOT
BRANCH   2   4
ATOM      4  C   LIG    1       -1.388   1.591  -0.414  0.00  0.00    -0.130 A 
ATOM      5  C   LIG    1       -1.549   2.972  -0.555  0.00  0.00    +0.050 A 
ATOM      6  C   LIG    1       -2.794   3.496  -0.829  0.00  0.00    -0.030 A 
ATOM      7  C   LIG    1       -3.892   2.656  -0.955  0.00  0.00    +0.130 A 
ATOM      8  C   LIG    1       -3.739   1.277  -0.810  0.00  0.00    +0.100 A 
ATOM      9  C   LIG    1       -2.494   0.745  -0.541  0.00  0.00    +0.040 A 
BRANCH   8  10
ATOM     10  O   LIG    1       -4.817   0.457  -0.934  0.00  0.00    -0.300 OA
ATOM     11  C   LIG    1       -4.587  -0.944  -0.775  0.00  0.00    +0.250 C 
ENDBRANCH   8  10
BRANCH   7  12
ATOM     12  O   LIG    1       -5.117   3.178  -1.219  0.00  0.00    -0.300 OA
ATOM     13  C   LIG    1       -5.202   4.598  -1.355  0.00  0.00    +0.240 C 
ENDBRANCH   7  12
ENDBRANCH   2   4
BRANCH   1  14
ATOM     14  C   LIG    1        2.308   1.177  -0.215  0.00  0.00    +0.310 A 
ATOM     15  N   LIG    1        2.533   0.101   0.473  0.00  0.00    -0.440 NA
ATOM     16  C   LIG    1        3.801  -0.225   0.683  0.00  0.00    +0.130 A 
ATOM     17  C   LIG    1        4.708   0.613   0.149  0.00  0.00    -0.070 A 
ATOM     18  S   LIG    1        3.843   1.902  -0.684  0.00  0.00    +0.090 S 
BRANCH  16  19
ATOM     19  C   LIG    1        4.192  -1.430   1.454  0.00  0.00    -0.010 A 
ATOM     20  C   LIG    1        5.540  -1.729   1.648  0.00  0.00    +0.060 A 
ATOM     21  C   LIG    1        5.899  -2.852   2.366  0.00  0.00    +0.030 A 
ATOM     22  C   LIG    1        4.924  -3.681   2.893  0.00  0.00    -0.020 A 
ATOM     23  C   LIG    1        3.583  -3.389   2.704  0.00  0.00    +0.040 A 
ATOM     24 CL   LIG    1        5.383  -5.092   3.795  0.00  0.00    -0.060 Cl
ATOM     25  C   LIG    1        3.213  -2.265   1.993  0.00  0.00    -0.010 A 
ATOM     26 CL   LIG    1        1.533  -1.896   1.762  0.00  0.00    +0.010 Cl
ENDBRANCH  16  19
ENDBRANCH   1  14
BRANCH   1  27
ATOM     27  C   LIG    1        0.934   2.905  -1.324  0.00  0.00    +0.290 C 
BRANCH  27  29
ATOM     28  C   LIG    1        1.190   5.390  -1.276  0.00  0.00    +0.040 C 
ATOM     29  C   LIG    1        1.315   4.106  -0.455  0.00  0.00    +0.000 C 
ENDBRANCH  27  29
ENDBRANCH   1  27
TORSDOF 7
