REMARK  Name = ZINCrH00000tj1gq.0
REMARK                            x       y       z     vdW  Elec       q    Type
REMARK                         _______ _______ _______ _____ _____    ______ ____
ROOT
ATOM      1  C   LIG    1       -1.695  -0.538  -0.135  0.00  0.00    +0.050 C 
ENDROOT
BRANCH   1   4
ATOM      2  N   LIG    1       -0.716   1.730  -0.252  0.00  0.00    -0.730 N 
ATOM      3  H   LIG    1       -1.617   2.082  -0.323  0.00  0.00    +0.400 HD
ATOM      4  C   LIG    1       -0.517   0.401  -0.148  0.00  0.00    +0.510 C 
ATOM      5  O   LIG    1        0.610  -0.039  -0.065  0.00  0.00    -0.540 OA
BRANCH   2   6
ATOM      6  C   LIG    1        0.430   2.643  -0.265  0.00  0.00    +0.320 C 
BRANCH   6  10
ATOM      7  C   LIG    1       -0.960   6.669  -0.616  0.00  0.00    +0.140 A 
ATOM      8  C   LIG    1       -0.789   6.100   0.637  0.00  0.00    -0.020 A 
ATOM      9  C   LIG    1       -0.340   4.798   0.748  0.00  0.00    +0.070 A 
ATOM     10  C   LIG    1       -0.060   4.063  -0.389  0.00  0.00    -0.150 A 
ATOM     11  C   LIG    1       -0.225   4.629  -1.639  0.00  0.00    +0.070 A 
ATOM     12  C   LIG    1       -0.679   5.928  -1.756  0.00  0.00    -0.080 A 
BRANCH   7  14
ATOM     13  C   LIG    1       -1.554   8.470  -2.050  0.00  0.00    +0.250 C 
ATOM     14  O   LIG    1       -1.401   7.949  -0.728  0.00  0.00    -0.320 OA
ENDBRANCH   7  14
ENDBRANCH   6  10
ENDBRANCH   2   6
ENDBRANCH   1   4
BRANCH   1  15
ATOM     15  C   LIG    1       -1.198  -1.980  -0.009  0.00  0.00    +0.140 C 
BRANCH  15  16
ATOM     16  C   LIG    1       -2.376  -2.919   0.004  0.00  0.00    -0.230 A 
ATOM     17  C   LIG    1       -2.948  -3.493  -1.080  0.00  0.00    +0.090 A 
ATOM     18  N   LIG    1       -3.971  -4.263  -0.645  0.00  0.00    -0.330 N 
ATOM     19  N   LIG    1       -4.027  -4.157   0.751  0.00  0.00    -0.290 NA
ATOM     20  C   LIG    1       -2.522  -3.307  -2.513  0.00  0.00    +0.140 C 
ATOM     21  C   LIG    1       -3.068  -3.356   1.139  0.00  0.00    +0.090 A 
ATOM     22  C   LIG    1       -2.763  -2.968   2.563  0.00  0.00    +0.150 C 
BRANCH  18  23
ATOM     23  C   LIG    1       -4.825  -5.031  -1.449  0.00  0.00    +0.150 A 
ATOM     24  C   LIG    1       -6.188  -5.062  -1.185  0.00  0.00    +0.020 A 
ATOM     25  C   LIG    1       -7.028  -5.815  -1.982  0.00  0.00    +0.030 A 
ATOM     26  C   LIG    1       -6.511  -6.546  -3.036  0.00  0.00    +0.010 A 
ATOM     27  C   LIG    1       -5.153  -6.522  -3.297  0.00  0.00    +0.030 A 
ATOM     28  C   LIG    1       -4.309  -5.767  -2.507  0.00  0.00    +0.000 A 
ENDBRANCH  18  23
ENDBRANCH  15  16
ENDBRANCH   1  15
TORSDOF 7
