REMARK  Name = ZINCpk00000K8P5k.0
REMARK                            x       y       z     vdW  Elec       q    Type
REMARK                         _______ _______ _______ _____ _____    ______ ____
ROOT
ATOM      1  C   LIG    1        5.006  -2.613  -0.002  0.00  0.00    +0.320 C 
ENDROOT
BRANCH   1   2
ATOM      2  C   LIG    1        6.072  -1.656   0.466  0.00  0.00    -0.150 A 
ATOM      3  C   LIG    1        6.747  -0.872  -0.451  0.00  0.00    +0.070 A 
ATOM      4  C   LIG    1        7.720   0.010  -0.024  0.00  0.00    -0.080 A 
ATOM      5  C   LIG    1        8.029   0.100   1.325  0.00  0.00    +0.140 A 
ATOM      6  C   LIG    1        7.355  -0.692   2.243  0.00  0.00    -0.020 A 
ATOM      7  C   LIG    1        6.378  -1.568   1.812  0.00  0.00    +0.070 A 
BRANCH   5   8
ATOM      8  O   LIG    1        8.991   0.962   1.747  0.00  0.00    -0.300 OA
BRANCH   8   9
ATOM      9  C   LIG    1        9.644   1.747   0.747  0.00  0.00    +0.190 C 
BRANCH   9  10
ATOM     10  C   LIG    1       10.687   2.651   1.407  0.00  0.00    +0.170 C 
ATOM     11  C   LIG    1       11.316   3.583   0.350  0.00  0.00    +0.020 C 
ATOM     12  C   LIG    1       12.808   3.611   0.781  0.00  0.00    +0.010 C 
ATOM     13  C   LIG    1       12.985   2.169   1.320  0.00  0.00    +0.190 C 
ATOM     14  O   LIG    1       11.739   1.853   1.962  0.00  0.00    -0.370 OA
ENDBRANCH   9  10
ENDBRANCH   8   9
ENDBRANCH   5   8
ENDBRANCH   1   2
BRANCH   1  16
ATOM     15  C   LIG    1        2.600  -2.601  -0.386  0.00  0.00    +0.580 C 
ATOM     16  N   LIG    1        3.708  -1.936  -0.001  0.00  0.00    -0.710 N 
ATOM     17  H   LIG    1        3.644  -1.008   0.276  0.00  0.00    +0.410 HD
ATOM     18  O   LIG    1        2.679  -3.765  -0.733  0.00  0.00    -0.520 OA
BRANCH  15  22
ATOM     19  C   LIG    1       -0.018   1.461   0.010  0.00  0.00    +0.330 C 
ATOM     20  N   LIG    1        0.002  -0.004   0.002  0.00  0.00    -0.460 N 
ATOM     21  N   LIG    1        1.225  -0.682  -0.013  0.00  0.00    -0.210 NA
ATOM     22  C   LIG    1        1.299  -1.923  -0.385  0.00  0.00    +0.080 C 
ATOM     23  C   LIG    1        0.069  -2.676  -0.816  0.00  0.00    +0.110 C 
ATOM     24  C   LIG    1       -1.137  -2.197  -0.005  0.00  0.00    +0.090 C 
ATOM     25  C   LIG    1       -1.158  -0.690   0.015  0.00  0.00    +0.490 C 
ATOM     26  O   LIG    1       -2.215  -0.096   0.039  0.00  0.00    -0.510 OA
ENDBRANCH  15  22
ENDBRANCH   1  16
TORSDOF 6
