REMARK  Name = ZINCqH0000032r9d.0
REMARK                            x       y       z     vdW  Elec       q    Type
REMARK                         _______ _______ _______ _____ _____    ______ ____
ROOT
ATOM      1  C   LIG    1       -1.641   1.402   0.299  0.00  0.00    +0.520 C 
ATOM      2  N   LIG    1       -0.451   0.859   0.624  0.00  0.00    -0.660 N 
ATOM      3  H   LIG    1       -0.343  -0.105   0.626  0.00  0.00    +0.420 HD
ATOM      4  O   LIG    1       -1.754   2.607   0.215  0.00  0.00    -0.490 OA
ENDROOT
BRANCH   2   5
ATOM      5  C   LIG    1        0.631   1.686   0.952  0.00  0.00    +0.160 A 
ATOM      6  C   LIG    1        0.717   2.965   0.418  0.00  0.00    +0.040 A 
ATOM      7  C   LIG    1        1.784   3.783   0.742  0.00  0.00    +0.050 A 
ATOM      8  C   LIG    1        2.772   3.333   1.598  0.00  0.00    +0.000 A 
ATOM      9  C   LIG    1        2.694   2.057   2.135  0.00  0.00    +0.110 A 
ATOM     10  N   LIG    1        3.687   1.585   3.006  0.00  0.00    -0.660 N 
ATOM     11  H   LIG    1        4.312   2.200   3.419  0.00  0.00    +0.420 HD
ATOM     12  C   LIG    1        3.759   0.260   3.261  0.00  0.00    +0.490 C 
ATOM     13  O   LIG    1        4.590  -0.167   4.034  0.00  0.00    -0.510 OA
ATOM     14  C   LIG    1        2.802  -0.685   2.580  0.00  0.00    +0.300 C 
ATOM     15  O   LIG    1        1.557  -0.021   2.344  0.00  0.00    -0.300 OA
ATOM     16  C   LIG    1        1.619   1.232   1.817  0.00  0.00    +0.050 A 
ENDBRANCH   2   5
BRANCH   1  17
ATOM     17  C   LIG    1       -2.830   0.513   0.041  0.00  0.00    +0.180 C 
BRANCH  17  19
ATOM     18  C   LIG    1       -1.409  -1.212  -1.077  0.00  0.00    +0.040 C 
ATOM     19  C   LIG    1       -2.606  -0.275  -1.251  0.00  0.00    -0.020 C 
ATOM     20  C   LIG    1       -3.856  -1.099  -1.569  0.00  0.00    +0.040 C 
ENDBRANCH  17  19
BRANCH  17  21
ATOM     21  O   LIG    1       -4.005   1.315  -0.088  0.00  0.00    -0.280 OA
BRANCH  21  22
ATOM     22  C   LIG    1       -5.166   0.790   0.384  0.00  0.00    +0.140 A 
ATOM     23  C   LIG    1       -5.161  -0.441   1.024  0.00  0.00    -0.070 A 
ATOM     24  C   LIG    1       -6.342  -0.974   1.504  0.00  0.00    +0.080 A 
ATOM     25  C   LIG    1       -7.529  -0.282   1.348  0.00  0.00    -0.010 A 
ATOM     26  C   LIG    1       -7.537   0.946   0.710  0.00  0.00    +0.010 A 
ATOM     27 CL   LIG    1       -9.028   1.813   0.515  0.00  0.00    -0.060 Cl
ATOM     28  C   LIG    1       -6.356   1.486   0.233  0.00  0.00    +0.000 A 
ENDBRANCH  21  22
ENDBRANCH  17  21
ENDBRANCH   1  17
TORSDOF 5
