REMARK  Name = ZINCkj00000ha7bJ.2
REMARK                            x       y       z     vdW  Elec       q    Type
REMARK                         _______ _______ _______ _____ _____    ______ ____
ROOT
ATOM      1  N   LIG    1       -2.664   0.256  -0.531  0.00  0.00    -0.380 N 
ATOM      2  C   LIG    1       -2.253   1.485  -1.171  0.00  0.00    +0.220 C 
ATOM      3  C   LIG    1       -0.721   1.578  -1.269  0.00  0.00    +0.060 C 
ATOM      4  C   LIG    1       -0.013   1.086   0.008  0.00  0.00    +0.030 C 
ATOM      5  C   LIG    1       -0.681   1.553   1.274  0.00  0.00    +0.010 C 
ATOM      6  C   LIG    1       -1.719   0.499   1.723  0.00  0.00    +0.060 C 
ATOM      7  C   LIG    1       -2.917   0.555   0.889  0.00  0.00    +0.260 C 
ATOM      8  H   LIG    1       -1.932  -0.433  -0.612  0.00  0.00    +0.430 HD
ENDROOT
BRANCH   1   9
ATOM      9  C   LIG    1       -3.893  -0.247  -1.160  0.00  0.00    +0.410 C 
BRANCH   9  14
ATOM     10  N   LIG    1       -3.713   0.187  -3.657  0.00  0.00    -0.350 N 
ATOM     11  N   LIG    1       -3.348  -0.580  -4.776  0.00  0.00    -0.270 NA
ATOM     12  C   LIG    1       -3.059  -1.776  -4.335  0.00  0.00    +0.440 A 
ATOM     13  N   LIG    1       -3.216  -1.799  -3.012  0.00  0.00    -0.500 NA
ATOM     14  C   LIG    1       -3.607  -0.624  -2.591  0.00  0.00    +0.200 A 
BRANCH  10  16
ATOM     15  C   LIG    1       -2.998   2.457  -4.223  0.00  0.00    +0.060 C 
ATOM     16  C   LIG    1       -4.125   1.593  -3.654  0.00  0.00    +0.240 C 
ATOM     17  C   LIG    1       -5.379   1.759  -4.515  0.00  0.00    +0.070 C 
ENDBRANCH  10  16
ENDBRANCH   9  14
ENDBRANCH   1   9
BRANCH   5  18
ATOM     18  C   LIG    1        0.370   1.728   2.372  0.00  0.00    +0.060 C 
BRANCH  18  19
ATOM     19  C   LIG    1        1.317   2.836   1.989  0.00  0.00    +0.510 C 
ATOM     20  O   LIG    1        1.166   3.428   0.941  0.00  0.00    -0.540 OA
ATOM     21  N   LIG    1        2.332   3.170   2.811  0.00  0.00    -0.850 N 
ATOM     22  H   LIG    1        2.941   3.883   2.565  0.00  0.00    +0.410 HD
ATOM     23  H   LIG    1        2.452   2.697   3.650  0.00  0.00    +0.410 HD
ENDBRANCH  18  19
ENDBRANCH   5  18
TORSDOF 5
