REMARK  Name = ZINCkj00000ha7bJ.1
REMARK                            x       y       z     vdW  Elec       q    Type
REMARK                         _______ _______ _______ _____ _____    ______ ____
ROOT
ATOM      1  N   LIG    1       -0.143   4.293   0.589  0.00  0.00    -0.380 N 
ATOM      2  C   LIG    1       -0.535   4.446  -0.823  0.00  0.00    +0.220 C 
ATOM      3  C   LIG    1       -0.084   3.353  -1.679  0.00  0.00    +0.060 C 
ATOM      4  C   LIG    1       -0.711   2.007  -1.238  0.00  0.00    +0.040 C 
ATOM      5  C   LIG    1       -0.019   1.526   0.010  0.00  0.00    -0.010 C 
ATOM      6  C   LIG    1       -0.702   2.004   1.306  0.00  0.00    +0.070 C 
ATOM      7  C   LIG    1       -1.144   3.476   1.236  0.00  0.00    +0.250 C 
ATOM      8  H   LIG    1        0.757   3.841   0.647  0.00  0.00    +0.430 HD
ENDROOT
BRANCH   1   9
ATOM      9  C   LIG    1       -0.082   5.611   1.236  0.00  0.00    +0.410 C 
BRANCH   9  14
ATOM     10  N   LIG    1        0.956   7.231  -0.424  0.00  0.00    -0.350 N 
ATOM     11  N   LIG    1        2.241   7.762  -0.624  0.00  0.00    -0.270 NA
ATOM     12  C   LIG    1        3.010   7.249   0.300  0.00  0.00    +0.440 A 
ATOM     13  N   LIG    1        2.282   6.436   1.065  0.00  0.00    -0.500 NA
ATOM     14  C   LIG    1        1.046   6.412   0.638  0.00  0.00    +0.200 A 
BRANCH  10  16
ATOM     15  C   LIG    1       -0.556   9.010  -1.153  0.00  0.00    +0.070 C 
ATOM     16  C   LIG    1       -0.244   7.513  -1.216  0.00  0.00    +0.240 C 
ATOM     17  C   LIG    1       -0.003   7.103  -2.670  0.00  0.00    +0.060 C 
ENDBRANCH  10  16
ENDBRANCH   9  14
ENDBRANCH   1   9
BRANCH   5  18
ATOM     18  C   LIG    1        0.002  -0.004   0.002  0.00  0.00    +0.060 C 
BRANCH  18  19
ATOM     19  C   LIG    1        0.813  -0.489  -1.172  0.00  0.00    +0.510 C 
ATOM     20  O   LIG    1        1.323   0.310  -1.928  0.00  0.00    -0.540 OA
ATOM     21  N   LIG    1        0.970  -1.811  -1.383  0.00  0.00    -0.850 N 
ATOM     22  H   LIG    1        1.492  -2.123  -2.138  0.00  0.00    +0.410 HD
ATOM     23  H   LIG    1        0.561  -2.450  -0.778  0.00  0.00    +0.410 HD
ENDBRANCH  18  19
ENDBRANCH   5  18
TORSDOF 5
