REMARK  Name = ZINCqH0000006Mvz.0
REMARK                            x       y       z     vdW  Elec       q    Type
REMARK                         _______ _______ _______ _____ _____    ______ ____
ROOT
ATOM      1  C   LIG    1        0.210  -0.010   0.116  0.00  0.00    +0.350 C 
ENDROOT
BRANCH   1   4
ATOM      2  C   LIG    1        2.009   3.308   0.269  0.00  0.00    +0.110 A 
ATOM      3  C   LIG    1        1.769   1.945   0.207  0.00  0.00    -0.020 A 
ATOM      4  C   LIG    1        0.469   1.473   0.184  0.00  0.00    -0.100 A 
ATOM      5  C   LIG    1       -0.592   2.358   0.216  0.00  0.00    +0.050 A 
ATOM      6  C   LIG    1       -0.359   3.719   0.283  0.00  0.00    -0.010 A 
ATOM      7  C   LIG    1        0.940   4.199   0.307  0.00  0.00    +0.080 A 
BRANCH   2   9
ATOM      8  C   LIG    1        4.333   2.803   0.251  0.00  0.00    +0.250 C 
ATOM      9  O   LIG    1        3.286   3.775   0.292  0.00  0.00    -0.310 OA
ENDBRANCH   2   9
BRANCH   7  10
ATOM     10  O   LIG    1        1.171   5.538   0.367  0.00  0.00    -0.310 OA
BRANCH  10  11
ATOM     11  C   LIG    1        0.026   6.393   0.403  0.00  0.00    +0.590 C 
ATOM     12  F   LIG    1       -0.744   6.093   1.532  0.00  0.00    -0.200 F 
ATOM     13  F   LIG    1       -0.740   6.195  -0.750  0.00  0.00    -0.200 F 
ENDBRANCH  10  11
ENDBRANCH   7  10
ENDBRANCH   1   4
BRANCH   1  14
ATOM     14  N   LIG    1        0.123  -0.553   1.474  0.00  0.00    -0.990 NA
ATOM     15  C   LIG    1        1.347  -0.870   2.216  0.00  0.00    +0.300 C 
BRANCH  14  16
ATOM     16  S   LIG    1       -1.357  -0.809   2.171  0.00  0.00    +2.690 S 
ATOM     17  O   LIG    1       -2.300  -0.093   1.385  0.00  0.00    -0.950 OA
ATOM     18  O   LIG    1       -1.186  -0.595   3.565  0.00  0.00    -0.950 OA
BRANCH  16  19
ATOM     19  C   LIG    1       -1.738  -2.518   1.973  0.00  0.00    -0.680 A 
ATOM     20  C   LIG    1       -1.852  -3.333   3.083  0.00  0.00    +0.120 A 
ATOM     21  C   LIG    1       -2.156  -4.673   2.928  0.00  0.00    -0.110 A 
ATOM     22  C   LIG    1       -2.337  -5.199   1.663  0.00  0.00    +0.070 A 
ATOM     23  C   LIG    1       -2.218  -4.384   0.552  0.00  0.00    -0.010 A 
ATOM     24  C   LIG    1       -2.285  -5.561   4.138  0.00  0.00    +0.090 C 
ATOM     25  C   LIG    1       -1.919  -3.043   0.707  0.00  0.00    +0.010 A 
ATOM     26  C   LIG    1       -1.789  -2.155  -0.503  0.00  0.00    +0.110 C 
ENDBRANCH  16  19
ENDBRANCH  14  16
ENDBRANCH   1  14
TORSDOF 7
