REMARK  Name = ZINCrD000000Aomn.0
REMARK                            x       y       z     vdW  Elec       q    Type
REMARK                         _______ _______ _______ _____ _____    ______ ____
ROOT
ATOM      1  O   LIG    1       -1.052  -4.727  -0.013  0.00  0.00    -0.460 OA
ATOM      2  C   LIG    1       -2.202  -4.341   0.001  0.00  0.00    +0.510 C 
ATOM      3  N   LIG    1       -3.212  -5.233   0.006  0.00  0.00    -0.630 N 
ATOM      4  H   LIG    1       -4.132  -4.925   0.017  0.00  0.00    +0.430 HD
ENDROOT
BRANCH   3   5
ATOM      5  C   LIG    1       -2.936  -6.596  -0.004  0.00  0.00    +0.270 A 
ATOM      6  N   LIG    1       -1.748  -7.112  -0.024  0.00  0.00    -0.470 NA
ATOM      7  C   LIG    1       -1.669  -8.430  -0.027  0.00  0.00    +0.260 A 
ATOM      8  C   LIG    1       -2.847  -9.056  -0.018  0.00  0.00    -0.240 A 
ATOM      9  S   LIG    1       -4.115  -7.834   0.001  0.00  0.00    +0.140 S 
BRANCH   8  10
ATOM     10  C   LIG    1       -3.056 -10.549  -0.024  0.00  0.00    +0.210 C 
BRANCH  10  11
ATOM     11  C   LIG    1       -3.111 -11.054   1.395  0.00  0.00    -0.020 A 
ATOM     12  C   LIG    1       -1.952 -11.457   2.030  0.00  0.00    -0.010 A 
ATOM     13  C   LIG    1       -2.000 -11.917   3.335  0.00  0.00    +0.140 A 
ATOM     14  C   LIG    1       -3.212 -11.982   4.000  0.00  0.00    -0.040 A 
ATOM     15  C   LIG    1       -4.374 -11.583   3.361  0.00  0.00    +0.140 A 
ATOM     16  F   LIG    1       -5.557 -11.646   4.010  0.00  0.00    -0.130 F 
ATOM     17  F   LIG    1       -0.866 -12.306   3.957  0.00  0.00    -0.130 F 
ATOM     18  C   LIG    1       -4.322 -11.119   2.058  0.00  0.00    -0.020 A 
ENDBRANCH  10  11
ENDBRANCH   8  10
ENDBRANCH   3   5
BRANCH   2  19
ATOM     19  C   LIG    1       -2.501  -2.864   0.011  0.00  0.00    +0.330 C 
BRANCH  19  20
ATOM     20  N   LIG    1       -1.244  -2.111   0.003  0.00  0.00    -0.720 N 
ATOM     21  H   LIG    1       -0.397  -2.583  -0.008  0.00  0.00    +0.410 HD
ATOM     22  C   LIG    1       -1.266  -0.764   0.011  0.00  0.00    +0.570 C 
ATOM     23  O   LIG    1       -2.329  -0.173   0.024  0.00  0.00    -0.530 OA
BRANCH  22  24
ATOM     24  C   LIG    1        0.002  -0.004   0.002  0.00  0.00    -0.140 A 
ATOM     25  C   LIG    1       -0.017   1.391   0.010  0.00  0.00    +0.080 A 
ATOM     26  C   LIG    1        1.170   2.095   0.002  0.00  0.00    +0.000 A 
ATOM     27  C   LIG    1        2.378   1.419  -0.013  0.00  0.00    +0.040 A 
ATOM     28  C   LIG    1        2.403   0.036  -0.021  0.00  0.00    +0.000 A 
ATOM     29  C   LIG    1        1.224  -0.679  -0.013  0.00  0.00    +0.050 A 
ENDBRANCH  22  24
ENDBRANCH  19  20
ENDBRANCH   2  19
TORSDOF 6
