REMARK  Name = ZINCtV000002sQp6.0
REMARK                            x       y       z     vdW  Elec       q    Type
REMARK                         _______ _______ _______ _____ _____    ______ ____
ROOT
ATOM      1  N   LIG    1       -8.078   4.840  -1.606  0.00  0.00    -0.670 N 
ATOM      2  H   LIG    1       -8.474   3.955  -1.603  0.00  0.00    +0.410 HD
ATOM      3  C   LIG    1       -6.776   4.995  -1.918  0.00  0.00    +0.560 C 
ATOM      4  O   LIG    1       -6.304   6.111  -2.020  0.00  0.00    -0.510 OA
ENDROOT
BRANCH   1  10
ATOM      5  C   LIG    1       -9.468   6.047  -0.043  0.00  0.00    -0.080 A 
ATOM      6  C   LIG    1      -10.233   7.153   0.270  0.00  0.00    +0.010 A 
ATOM      7  C   LIG    1      -10.403   8.164  -0.658  0.00  0.00    +0.010 A 
ATOM      8  C   LIG    1       -9.802   8.074  -1.901  0.00  0.00    +0.010 A 
ATOM      9  C   LIG    1       -9.030   6.973  -2.218  0.00  0.00    -0.050 A 
ATOM     10  C   LIG    1       -8.858   5.956  -1.288  0.00  0.00    +0.130 A 
BRANCH   5  12
ATOM     11  C   LIG    1       -8.637   5.509   2.230  0.00  0.00    +0.040 C 
ATOM     12  C   LIG    1       -9.289   4.943   0.967  0.00  0.00    +0.010 C 
ATOM     13  C   LIG    1      -10.653   4.348   1.319  0.00  0.00    +0.040 C 
ENDBRANCH   5  12
BRANCH   9  14
ATOM     14  C   LIG    1       -8.376   6.876  -3.572  0.00  0.00    +0.020 C 
ATOM     15  C   LIG    1       -7.967   8.274  -4.042  0.00  0.00    +0.020 C 
ATOM     16  C   LIG    1       -9.362   6.270  -4.572  0.00  0.00    +0.030 C 
ENDBRANCH   9  14
ENDBRANCH   1  10
BRANCH   3  17
ATOM     17  C   LIG    1       -5.922   3.809  -2.137  0.00  0.00    -0.130 A 
ATOM     18  C   LIG    1       -4.573   3.966  -2.460  0.00  0.00    +0.080 A 
ATOM     19  C   LIG    1       -3.782   2.854  -2.664  0.00  0.00    +0.030 A 
ATOM     20  C   LIG    1       -4.322   1.586  -2.548  0.00  0.00    -0.070 A 
ATOM     21  C   LIG    1       -5.660   1.423  -2.233  0.00  0.00    +0.030 A 
ATOM     22  C   LIG    1       -6.461   2.526  -2.022  0.00  0.00    +0.040 A 
BRANCH  20  23
ATOM     23  C   LIG    1       -3.452   0.376  -2.772  0.00  0.00    +0.260 C 
BRANCH  23  24
ATOM     24  O   LIG    1       -2.861  -0.021  -1.533  0.00  0.00    -0.310 OA
BRANCH  24  25
ATOM     25  C   LIG    1       -2.041  -1.105  -1.561  0.00  0.00    +0.130 A 
ATOM     26  C   LIG    1       -1.815  -1.775  -2.754  0.00  0.00    -0.080 A 
ATOM     27  C   LIG    1       -0.985  -2.880  -2.778  0.00  0.00    +0.050 A 
ATOM     28  C   LIG    1       -0.381  -3.317  -1.614  0.00  0.00    -0.040 A 
ATOM     29  C   LIG    1       -0.605  -2.651  -0.423  0.00  0.00    +0.050 A 
ATOM     30  C   LIG    1       -1.433  -1.546  -0.394  0.00  0.00    -0.020 A 
ENDBRANCH  24  25
ENDBRANCH  23  24
ENDBRANCH  20  23
ENDBRANCH   3  17
TORSDOF 7
