REMARK  Name = ZINCvU0000000D9y.2
REMARK                            x       y       z     vdW  Elec       q    Type
REMARK                         _______ _______ _______ _____ _____    ______ ____
ROOT
ATOM      1  C   LIG    1       -3.246   4.257  -1.629  0.00  0.00    -0.420 A 
ATOM      2  C   LIG    1       -3.987   3.377  -2.304  0.00  0.00    -0.130 A 
ATOM      3  S   LIG    1       -4.238   4.001  -3.933  0.00  0.00    +0.170 S 
ATOM      4  C   LIG    1       -3.289   5.429  -3.529  0.00  0.00    +0.350 A 
ATOM      5 CL   LIG    1       -4.598   1.875  -1.684  0.00  0.00    +0.050 Cl
ATOM      6  N   LIG    1       -2.892   5.340  -2.295  0.00  0.00    -0.460 NA
ENDROOT
BRANCH   4   7
ATOM      7  N   LIG    1       -3.016   6.483  -4.388  0.00  0.00    -0.510 N 
ATOM      8  C   LIG    1       -2.260   7.648  -4.110  0.00  0.00    +0.140 A 
ATOM      9  C   LIG    1       -2.004   8.280  -2.901  0.00  0.00    +0.030 A 
ATOM     10  C   LIG    1       -1.224   9.418  -2.860  0.00  0.00    +0.040 A 
ATOM     11  C   LIG    1       -0.690   9.935  -4.026  0.00  0.00    -0.100 A 
ATOM     12  C   LIG    1       -0.942   9.315  -5.236  0.00  0.00    +0.050 A 
ATOM     13  C   LIG    1        0.164  11.175  -3.978  0.00  0.00    +0.100 C 
ATOM     14  C   LIG    1       -1.721   8.180  -5.290  0.00  0.00    -0.110 A 
ATOM     15  C   LIG    1       -2.186   7.297  -6.397  0.00  0.00    +0.050 C 
ATOM     16  C   LIG    1       -2.619   7.891  -7.715  0.00  0.00    +0.220 C 
ATOM     17  N   LIG    1       -3.025   6.761  -8.578  0.00  0.00    -0.560 NA
ATOM     18  C   LIG    1       -4.089   5.929  -8.015  0.00  0.00    +0.200 C 
ATOM     19  C   LIG    1       -3.733   5.407  -6.608  0.00  0.00    +0.040 C 
ATOM     20  C   LIG    1       -3.379   7.227  -9.925  0.00  0.00    +0.200 C 
ATOM     21  C   LIG    1       -3.436   6.628  -5.769  0.00  0.00    +0.220 C 
ENDBRANCH   4   7
BRANCH   1  22
ATOM     22  S   LIG    1       -2.775   3.993   0.048  0.00  0.00    +2.600 S 
ATOM     23  O   LIG    1       -2.510   5.277   0.597  0.00  0.00    -0.910 OA
ATOM     24  O   LIG    1       -3.731   3.095   0.597  0.00  0.00    -0.910 OA
BRANCH  22  29
ATOM     25  C   LIG    1        2.490   1.048  -0.016  0.00  0.00    +0.090 C 
ATOM     26  C   LIG    1        1.175   1.783   0.000  0.00  0.00    -0.020 A 
ATOM     27  C   LIG    1       -0.013   1.076   0.008  0.00  0.00    +0.000 A 
ATOM     28  C   LIG    1       -1.219   1.751   0.017  0.00  0.00    +0.130 A 
ATOM     29  C   LIG    1       -1.238   3.133   0.029  0.00  0.00    -0.660 A 
ATOM     30  C   LIG    1       -0.050   3.840   0.022  0.00  0.00    +0.130 A 
ATOM     31  C   LIG    1        1.156   3.165   0.008  0.00  0.00    +0.000 A 
ENDBRANCH  22  29
ENDBRANCH   1  22
TORSDOF 3
