REMARK  Name = ZINCrg00001Jdv7B.0
REMARK                            x       y       z     vdW  Elec       q    Type
REMARK                         _______ _______ _______ _____ _____    ______ ____
ROOT
ATOM      1  C   LIG    1        1.169   2.851  -1.757  0.00  0.00    +0.250 C 
ENDROOT
BRANCH   1   2
ATOM      2  C   LIG    1       -0.253   2.400  -1.970  0.00  0.00    +0.530 C 
ATOM      3  N   LIG    1       -0.597   1.120  -1.730  0.00  0.00    -0.610 N 
ATOM      4  C   LIG    1        0.414   0.105  -1.388  0.00  0.00    +0.280 C 
ATOM      5  C   LIG    1        0.099  -0.433   0.009  0.00  0.00    +0.260 C 
ATOM      6  N   LIG    1       -1.319  -0.750   0.131  0.00  0.00    -0.720 N 
ATOM      7  H   LIG    1       -1.581  -1.381   0.820  0.00  0.00    +0.400 HD
ATOM      8  C   LIG    1       -2.279  -0.235  -0.638  0.00  0.00    +0.520 C 
ATOM      9  O   LIG    1       -3.432  -0.516  -0.388  0.00  0.00    -0.540 OA
ATOM     10  C   LIG    1       -1.998   0.678  -1.800  0.00  0.00    +0.260 C 
ATOM     11  C   LIG    1       -2.235  -0.071  -3.112  0.00  0.00    +0.070 C 
ATOM     12  O   LIG    1       -1.088   3.191  -2.356  0.00  0.00    -0.520 OA
ENDBRANCH   1   2
BRANCH   1  14
ATOM     13  C   LIG    1        2.820   4.006  -3.128  0.00  0.00    +0.530 C 
ATOM     14  N   LIG    1        1.528   3.833  -2.783  0.00  0.00    -0.720 N 
ATOM     15  H   LIG    1        0.837   4.360  -3.214  0.00  0.00    +0.410 HD
ATOM     16  O   LIG    1        3.685   3.348  -2.589  0.00  0.00    -0.520 OA
BRANCH  13  17
ATOM     17  C   LIG    1        3.189   5.017  -4.183  0.00  0.00    +0.170 C 
BRANCH  17  21
ATOM     18  N   LIG    1        6.827   5.456  -4.207  0.00  0.00    -0.360 N 
ATOM     19  C   LIG    1        6.706   4.508  -5.161  0.00  0.00    +0.280 A 
ATOM     20  C   LIG    1        5.390   4.217  -5.287  0.00  0.00    -0.230 A 
ATOM     21  C   LIG    1        4.684   5.014  -4.380  0.00  0.00    +0.120 A 
ATOM     22 BR   LIG    1        4.639   2.954  -6.478  0.00  0.00    -0.020 Br
ATOM     23  N   LIG    1        5.544   5.761  -3.736  0.00  0.00    -0.270 NA
BRANCH  18  25
ATOM     24  C   LIG    1        7.986   7.585  -3.879  0.00  0.00    +0.040 C 
ATOM     25  C   LIG    1        8.080   6.063  -3.750  0.00  0.00    +0.320 C 
ENDBRANCH  18  25
ENDBRANCH  17  21
ENDBRANCH  13  17
ENDBRANCH   1  14
BRANCH   1  26
ATOM     26  C   LIG    1        1.301   3.487  -0.372  0.00  0.00    -0.070 C 
ATOM     27  C   LIG    1        0.355   4.686  -0.270  0.00  0.00    +0.030 C 
ATOM     28  C   LIG    1        2.742   3.956  -0.162  0.00  0.00    +0.050 C 
ATOM     29  C   LIG    1        0.938   2.458   0.699  0.00  0.00    +0.040 C 
ENDBRANCH   1  26
TORSDOF 6
