REMARK  Name = ZINCqH0000004ucA.0
REMARK                            x       y       z     vdW  Elec       q    Type
REMARK                         _______ _______ _______ _____ _____    ______ ____
ROOT
ATOM      1  C   LIG    1       -0.752   3.011   1.463  0.00  0.00    +0.320 C 
ATOM      2  C   LIG    1       -1.101   3.703   0.150  0.00  0.00    -0.120 A 
ATOM      3  C   LIG    1       -1.093   3.061  -1.033  0.00  0.00    -0.180 A 
ATOM      4  S   LIG    1       -1.526   4.178  -2.321  0.00  0.00    +0.110 S 
ATOM      5  C   LIG    1       -1.711   5.491  -1.168  0.00  0.00    -0.040 A 
ATOM      6  C   LIG    1       -0.761   1.597  -1.227  0.00  0.00    +0.120 C 
ATOM      7  C   LIG    1       -0.013   1.086   0.008  0.00  0.00    +0.290 C 
ATOM      8  C   LIG    1       -1.449   5.047   0.058  0.00  0.00    +0.020 A 
ATOM      9  N   LIG    1       -0.708   1.564   1.212  0.00  0.00    -0.600 N 
ATOM     10  C   LIG    1       -1.294   0.697   2.062  0.00  0.00    +0.530 C 
ATOM     11  O   LIG    1       -1.864   1.108   3.051  0.00  0.00    -0.510 OA
ENDROOT
BRANCH   1  13
ATOM     12  C   LIG    1        0.904   2.887   3.330  0.00  0.00    +0.020 C 
ATOM     13  C   LIG    1        0.616   3.490   1.953  0.00  0.00    +0.020 C 
ENDBRANCH   1  13
BRANCH  10  14
ATOM     14  C   LIG    1       -1.242  -0.783   1.784  0.00  0.00    +0.280 C 
BRANCH  14  15
ATOM     15  O   LIG    1       -1.929  -1.487   2.820  0.00  0.00    -0.240 OA
BRANCH  15  16
ATOM     16  C   LIG    1       -1.975  -2.836   2.720  0.00  0.00    +0.360 A 
ATOM     17  N   LIG    1       -1.450  -3.561   1.764  0.00  0.00    -0.320 NA
ATOM     18  N   LIG    1       -1.686  -4.805   1.989  0.00  0.00    -0.250 NA
ATOM     19  C   LIG    1       -2.372  -4.923   3.099  0.00  0.00    +0.210 A 
ATOM     20  O   LIG    1       -2.564  -3.679   3.588  0.00  0.00    -0.200 OA
BRANCH  19  21
ATOM     21  C   LIG    1       -2.843  -6.185   3.708  0.00  0.00    -0.020 A 
ATOM     22  C   LIG    1       -3.562  -6.161   4.904  0.00  0.00    +0.050 A 
ATOM     23  C   LIG    1       -4.002  -7.342   5.465  0.00  0.00    +0.010 A 
ATOM     24  C   LIG    1       -3.723  -8.550   4.849  0.00  0.00    +0.040 A 
ATOM     25  C   LIG    1       -3.006  -8.581   3.666  0.00  0.00    +0.020 A 
ATOM     26  C   LIG    1       -2.564  -7.407   3.093  0.00  0.00    +0.070 A 
ENDBRANCH  19  21
ENDBRANCH  15  16
ENDBRANCH  14  15
ENDBRANCH  10  14
TORSDOF 5
