REMARK  Name = ZINCvU00000006Ha.0
REMARK                            x       y       z     vdW  Elec       q    Type
REMARK                         _______ _______ _______ _____ _____    ______ ____
ROOT
ATOM      1  C   LIG    1       -2.149   1.758   1.166  0.00  0.00    +0.320 C 
ATOM      2  C   LIG    1       -2.517   2.647   0.004  0.00  0.00    -0.100 A 
ATOM      3  C   LIG    1       -2.220   3.924  -0.357  0.00  0.00    +0.050 A 
ATOM      4  C   LIG    1       -2.739   4.465  -1.535  0.00  0.00    +0.010 A 
ATOM      5  C   LIG    1       -3.553   3.754  -2.368  0.00  0.00    +0.040 A 
ATOM      6  C   LIG    1       -3.881   2.431  -2.028  0.00  0.00    -0.050 A 
ATOM      7  C   LIG    1       -4.705   1.596  -2.799  0.00  0.00    +0.040 A 
ATOM      8  C   LIG    1       -4.949   0.326  -2.362  0.00  0.00    +0.010 A 
ATOM      9  C   LIG    1       -4.407  -0.172  -1.175  0.00  0.00    +0.070 A 
ATOM     10  C   LIG    1       -3.603   0.612  -0.404  0.00  0.00    -0.110 A 
ATOM     11  C   LIG    1       -3.346   1.908  -0.837  0.00  0.00    -0.060 A 
ATOM     12  C   LIG    1       -2.865   0.416   0.898  0.00  0.00    +0.300 C 
ENDROOT
BRANCH   1  14
ATOM     13  C   LIG    1        0.017   1.098   0.021  0.00  0.00    +0.280 C 
ATOM     14  N   LIG    1       -0.698   1.558   1.213  0.00  0.00    -0.620 N 
BRANCH  14  15
ATOM     15  C   LIG    1        0.003   1.807   2.395  0.00  0.00    +0.210 A 
ATOM     16  C   LIG    1       -0.651   2.361   3.489  0.00  0.00    -0.080 A 
ATOM     17  C   LIG    1        0.044   2.601   4.658  0.00  0.00    +0.050 A 
ATOM     18  C   LIG    1        1.392   2.301   4.737  0.00  0.00    -0.050 A 
ATOM     19  C   LIG    1        2.047   1.754   3.648  0.00  0.00    +0.050 A 
ATOM     20  C   LIG    1        1.356   1.506   2.478  0.00  0.00    -0.070 A 
ENDBRANCH  14  15
ENDBRANCH   1  14
BRANCH  12  21
ATOM     21  N   LIG    1       -3.810   0.120   1.978  0.00  0.00    -1.100 NA
ATOM     22  H   LIG    1       -4.294   0.842   2.410  0.00  0.00    +0.420 HD
BRANCH  21  23
ATOM     23  S   LIG    1       -4.053  -1.445   2.460  0.00  0.00    +2.690 S 
ATOM     24  O   LIG    1       -4.269  -2.201   1.276  0.00  0.00    -0.950 OA
ATOM     25  O   LIG    1       -4.986  -1.395   3.531  0.00  0.00    -0.950 OA
BRANCH  23  26
ATOM     26  C   LIG    1       -2.536  -2.020   3.148  0.00  0.00    -0.680 A 
ATOM     27  C   LIG    1       -1.600  -2.637   2.339  0.00  0.00    +0.140 A 
ATOM     28  C   LIG    1       -0.408  -3.083   2.877  0.00  0.00    +0.010 A 
ATOM     29  C   LIG    1       -0.156  -2.923   4.227  0.00  0.00    +0.020 A 
ATOM     30  C   LIG    1       -1.095  -2.311   5.038  0.00  0.00    +0.020 A 
ATOM     31 CL   LIG    1        1.339  -3.489   4.905  0.00  0.00    -0.050 Cl
ATOM     32  C   LIG    1       -2.285  -1.860   4.498  0.00  0.00    +0.150 A 
ENDBRANCH  23  26
ENDBRANCH  21  23
ENDBRANCH  12  21
TORSDOF 5
