REMARK  Name = ZINCqH0000008Dvo.0
REMARK                            x       y       z     vdW  Elec       q    Type
REMARK                         _______ _______ _______ _____ _____    ______ ____
ROOT
ATOM      1  C   LIG    1        5.303   1.315  -0.041  0.00  0.00    +0.560 C 
ATOM      2  N   LIG    1        4.635   2.486  -0.029  0.00  0.00    -0.640 N 
ATOM      3  H   LIG    1        5.124   3.324  -0.029  0.00  0.00    +0.420 HD
ATOM      4  O   LIG    1        4.690   0.266  -0.040  0.00  0.00    -0.440 OA
ENDROOT
BRANCH   2   5
ATOM      5  C   LIG    1        3.251   2.493  -0.015  0.00  0.00    +0.510 A 
ATOM      6  N   LIG    1        2.494   1.425  -0.014  0.00  0.00    -0.470 NA
ATOM      7  C   LIG    1        1.187   1.793   0.000  0.00  0.00    +0.080 A 
ATOM      8  C   LIG    1       -0.013   1.076   0.008  0.00  0.00    +0.080 A 
ATOM      9  C   LIG    1       -1.213   1.750   0.017  0.00  0.00    +0.030 A 
ATOM     10  C   LIG    1       -1.242   3.137   0.030  0.00  0.00    +0.050 A 
ATOM     11  C   LIG    1       -0.066   3.861   0.022  0.00  0.00    -0.020 A 
ATOM     12 CL   LIG    1       -0.113   5.596   0.031  0.00  0.00    -0.070 Cl
ATOM     13  C   LIG    1        1.153   3.197   0.008  0.00  0.00    +0.060 A 
ATOM     14  N   LIG    1        2.473   3.614  -0.003  0.00  0.00    -0.500 N 
ATOM     15  C   LIG    1        2.946   5.001   0.001  0.00  0.00    +0.330 C 
ENDBRANCH   2   5
BRANCH   1  18
ATOM     16  C   LIG    1        8.884   0.147  -0.081  0.00  0.00    +0.310 A 
ATOM     17  C   LIG    1        7.494   0.107  -0.062  0.00  0.00    +0.030 A 
ATOM     18  C   LIG    1        6.784   1.308  -0.055  0.00  0.00    -0.060 A 
ATOM     19  C   LIG    1        7.508   2.506  -0.056  0.00  0.00    -0.040 A 
ATOM     20  C   LIG    1        8.887   2.458  -0.070  0.00  0.00    +0.300 A 
ATOM     21  N   LIG    1        9.527   1.304  -0.081  0.00  0.00    -0.500 NA
BRANCH  16  26
ATOM     22  C   LIG    1       13.017  -1.503  -1.533  0.00  0.00    +0.040 C 
ATOM     23  C   LIG    1       11.675  -1.923  -0.930  0.00  0.00    -0.010 C 
ATOM     24  C   LIG    1       10.602  -2.108  -2.035  0.00  0.00    +0.010 C 
ATOM     25  C   LIG    1        9.280  -1.845  -1.284  0.00  0.00    +0.210 C 
ATOM     26  N   LIG    1        9.607  -1.040  -0.093  0.00  0.00    -0.470 N 
ATOM     27  C   LIG    1       11.061  -0.776  -0.088  0.00  0.00    +0.220 C 
ENDBRANCH  16  26
ENDBRANCH   1  18
TORSDOF 3
