REMARK  Name = ZINCzw0000000fLJ.1
REMARK                            x       y       z     vdW  Elec       q    Type
REMARK                         _______ _______ _______ _____ _____    ______ ____
ROOT
ATOM      1  N   LIG    1        0.304   1.743  -2.353  0.00  0.00    -0.530 NA
ATOM      2  C   LIG    1        1.599   2.339  -2.712  0.00  0.00    +0.220 C 
ATOM      3  C   LIG    1        2.196   1.578  -3.897  0.00  0.00    +0.280 C 
ATOM      4  N   LIG    1        1.274   1.647  -5.038  0.00  0.00    -0.380 N 
ATOM      5  C   LIG    1       -0.006   1.026  -4.673  0.00  0.00    +0.270 C 
ATOM      6  H   LIG    1        1.120   2.612  -5.289  0.00  0.00    +0.430 HD
ATOM      7  C   LIG    1       -0.622   1.782  -3.494  0.00  0.00    +0.220 C 
ENDROOT
BRANCH   1   8
ATOM      8  C   LIG    1       -0.277   2.412  -1.181  0.00  0.00    +0.190 C 
BRANCH   8   9
ATOM      9  C   LIG    1        0.596   2.138   0.046  0.00  0.00    +0.310 C 
BRANCH   9  24
ATOM     10  O   LIG    1        1.212   4.624   0.789  0.00  0.00    -0.500 OA
ATOM     11  C   LIG    1        0.400   4.064   1.500  0.00  0.00    +0.580 A 
ATOM     12  C   LIG    1       -0.164   4.767   2.661  0.00  0.00    -0.170 A 
ATOM     13  C   LIG    1        0.199   6.066   2.988  0.00  0.00    +0.150 A 
ATOM     14  C   LIG    1       -0.357   6.687   4.100  0.00  0.00    +0.000 A 
ATOM     15  C   LIG    1       -1.265   6.050   4.896  0.00  0.00    +0.110 A 
ATOM     16  C   LIG    1       -1.659   4.733   4.600  0.00  0.00    -0.080 A 
ATOM     17  C   LIG    1       -2.590   4.035   5.388  0.00  0.00    +0.110 A 
ATOM     18  C   LIG    1       -2.941   2.757   5.060  0.00  0.00    +0.000 A 
ATOM     19  C   LIG    1       -2.400   2.114   3.954  0.00  0.00    +0.150 A 
ATOM     20  C   LIG    1       -1.477   2.768   3.150  0.00  0.00    -0.170 A 
ATOM     21  C   LIG    1       -0.875   2.133   1.969  0.00  0.00    +0.570 A 
ATOM     22  O   LIG    1       -1.184   0.995   1.670  0.00  0.00    -0.490 OA
ATOM     23  C   LIG    1       -1.101   4.091   3.474  0.00  0.00    +0.010 A 
ATOM     24  N   LIG    1        0.017   2.804   1.215  0.00  0.00    -0.560 N 
ENDBRANCH   9  24
ENDBRANCH   8   9
ENDBRANCH   1   8
BRANCH   4  25
ATOM     25  C   LIG    1        1.856   0.931  -6.182  0.00  0.00    +0.250 C 
BRANCH  25  26
ATOM     26  C   LIG    1        0.966   1.125  -7.411  0.00  0.00    +0.270 C 
BRANCH  26  27
ATOM     27  C   LIG    1        1.553   0.375  -8.579  0.00  0.00    -0.090 A 
ATOM     28  C   LIG    1        2.598   0.923  -9.298  0.00  0.00    +0.040 A 
ATOM     29  C   LIG    1        3.139   0.232 -10.367  0.00  0.00    +0.110 A 
ATOM     30  C   LIG    1        2.628  -1.002 -10.722  0.00  0.00    -0.020 A 
ATOM     31  C   LIG    1        1.579  -1.548 -10.005  0.00  0.00    +0.110 A 
ATOM     32  C   LIG    1        1.041  -0.860  -8.934  0.00  0.00    +0.050 A 
BRANCH  30  33
ATOM     33  N   LIG    1        3.204  -1.740 -11.869  0.00  0.00    +0.020 N 
ATOM     34  O   LIG    1        4.128  -1.259 -12.500  0.00  0.00    -0.140 OA
ATOM     35  O   LIG    1        2.753  -2.828 -12.181  0.00  0.00    -0.140 OA
ENDBRANCH  30  33
ENDBRANCH  26  27
BRANCH  26  36
ATOM     36  O   LIG    1        0.890   2.516  -7.729  0.00  0.00    -0.540 OA
ATOM     37  H   LIG    1        1.745   2.922  -7.929  0.00  0.00    +0.390 HD
ENDBRANCH  26  36
ENDBRANCH  25  26
ENDBRANCH   4  25
TORSDOF 8
