REMARK  Name = ZINCrD00000F5LpY.0
REMARK                            x       y       z     vdW  Elec       q    Type
REMARK                         _______ _______ _______ _____ _____    ______ ____
ROOT
ATOM      1  N   LIG    1        0.850  -1.830   0.938  0.00  0.00    -0.570 N 
ENDROOT
BRANCH   1   2
ATOM      2  C   LIG    1        1.971  -2.248   0.241  0.00  0.00    +0.580 A 
ATOM      3  N   LIG    1        2.856  -1.348  -0.159  0.00  0.00    -0.520 NA
ATOM      4  C   LIG    1        3.938  -1.714  -0.826  0.00  0.00    +0.390 A 
ATOM      5  C   LIG    1        4.139  -3.056  -1.105  0.00  0.00    -0.080 A 
ATOM      6  C   LIG    1        3.192  -3.971  -0.672  0.00  0.00    +0.130 A 
ATOM      7  N   LIG    1        2.135  -3.540  -0.004  0.00  0.00    -0.540 NA
BRANCH   6   8
ATOM      8  C   LIG    1        3.369  -5.442  -0.952  0.00  0.00    +0.520 C 
ATOM      9  F   LIG    1        4.080  -5.607  -2.146  0.00  0.00    -0.170 F 
ATOM     10  F   LIG    1        2.114  -6.048  -1.068  0.00  0.00    -0.160 F 
ATOM     11  F   LIG    1        4.078  -6.035   0.099  0.00  0.00    -0.170 F 
ENDBRANCH   6   8
ENDBRANCH   1   2
BRANCH   1  12
ATOM     12  C   LIG    1       -0.140  -2.811   1.389  0.00  0.00    +0.440 C 
BRANCH  12  16
ATOM     13  C   LIG    1       -3.086  -2.515  -0.751  0.00  0.00    -0.060 A 
ATOM     14  C   LIG    1       -2.484  -3.588  -1.345  0.00  0.00    +0.070 A 
ATOM     15  C   LIG    1       -1.306  -3.839  -0.625  0.00  0.00    -0.030 A 
ATOM     16  C   LIG    1       -1.241  -2.921   0.365  0.00  0.00    +0.010 A 
ATOM     17  O   LIG    1       -2.317  -2.128   0.289  0.00  0.00    -0.150 OA
BRANCH  13  18
ATOM     18  C   LIG    1       -4.347  -1.897  -1.165  0.00  0.00    +0.550 C 
ATOM     19  O   LIG    1       -4.956  -2.340  -2.120  0.00  0.00    -0.480 OA
BRANCH  18  20
ATOM     20  O   LIG    1       -4.833  -0.836  -0.488  0.00  0.00    -0.350 OA
BRANCH  20  22
ATOM     21  C   LIG    1       -6.477   0.911  -0.070  0.00  0.00    +0.070 C 
ATOM     22  C   LIG    1       -6.088  -0.275  -0.955  0.00  0.00    +0.200 C 
ENDBRANCH  20  22
ENDBRANCH  18  20
ENDBRANCH  13  18
ENDBRANCH  12  16
ENDBRANCH   1  12
BRANCH   1  23
ATOM     23  C   LIG    1        0.654  -0.407   1.224  0.00  0.00    +0.330 C 
BRANCH  23  24
ATOM     24  C   LIG    1        1.188  -0.089   2.622  0.00  0.00    +0.130 C 
ATOM     25  C   LIG    1        0.858   1.362   2.977  0.00  0.00    +0.030 C 
BRANCH  24  26
ATOM     26  O   LIG    1        2.605  -0.275   2.644  0.00  0.00    -0.370 OA
ATOM     27  C   LIG    1        3.116  -0.693   3.912  0.00  0.00    +0.190 C 
ENDBRANCH  24  26
ENDBRANCH  23  24
ENDBRANCH   1  23
TORSDOF 10
