REMARK  Name = ZINCvU00000008O8.0
REMARK                            x       y       z     vdW  Elec       q    Type
REMARK                         _______ _______ _______ _____ _____    ______ ____
ROOT
ATOM      1  N   LIG    1       -1.964   2.548   3.436  0.00  0.00    -0.410 N 
ATOM      2  C   LIG    1       -1.305   2.047   4.548  0.00  0.00    +0.100 A 
ATOM      3  C   LIG    1       -0.025   2.198   5.056  0.00  0.00    +0.060 A 
ATOM      4  C   LIG    1        0.335   1.547   6.218  0.00  0.00    +0.110 A 
ATOM      5  C   LIG    1       -0.577   0.741   6.883  0.00  0.00    -0.050 A 
ATOM      6  C   LIG    1       -1.856   0.586   6.397  0.00  0.00    +0.170 A 
ATOM      7  C   LIG    1       -2.235   1.234   5.220  0.00  0.00    +0.060 A 
ATOM      8  N   LIG    1       -3.388   1.267   4.502  0.00  0.00    -0.480 NA
ATOM      9  C   LIG    1       -3.233   2.037   3.453  0.00  0.00    +0.280 A 
ENDROOT
BRANCH   1  15
ATOM     10  C   LIG    1       -0.787   2.892   1.346  0.00  0.00    +0.160 A 
ATOM     11  C   LIG    1       -0.254   3.750   0.398  0.00  0.00    -0.060 A 
ATOM     12  C   LIG    1       -0.367   5.119   0.562  0.00  0.00    +0.090 A 
ATOM     13  C   LIG    1       -1.002   5.635   1.677  0.00  0.00    -0.010 A 
ATOM     14  C   LIG    1       -1.532   4.785   2.630  0.00  0.00    +0.090 A 
ATOM     15  C   LIG    1       -1.427   3.412   2.469  0.00  0.00    +0.050 A 
BRANCH  10  17
ATOM     16  C   LIG    1       -0.013   1.086   0.008  0.00  0.00    +0.250 C 
ATOM     17  O   LIG    1       -0.682   1.547   1.184  0.00  0.00    -0.310 OA
ENDBRANCH  10  17
ENDBRANCH   1  15
BRANCH   5  18
ATOM     18  N   LIG    1       -0.175   0.050   8.129  0.00  0.00    +0.030 N 
ATOM     19  O   LIG    1       -0.972  -0.659   8.716  0.00  0.00    -0.160 OA
ATOM     20  O   LIG    1        0.954   0.190   8.566  0.00  0.00    -0.160 OA
ENDBRANCH   5  18
BRANCH   9  21
ATOM     21  S   LIG    1       -4.474   2.367   2.247  0.00  0.00    +0.080 S 
BRANCH  21  22
ATOM     22  C   LIG    1       -5.835   1.379   2.917  0.00  0.00    +0.100 C 
BRANCH  22  23
ATOM     23  C   LIG    1       -7.040   1.511   2.022  0.00  0.00    +0.420 C 
ATOM     24  O   LIG    1       -6.985   2.206   1.029  0.00  0.00    -0.430 OA
BRANCH  23  25
ATOM     25  C   LIG    1       -8.284   0.799   2.353  0.00  0.00    -0.150 A 
ATOM     26  C   LIG    1       -8.349  -0.008   3.494  0.00  0.00    +0.090 A 
ATOM     27  C   LIG    1       -9.520  -0.668   3.801  0.00  0.00    +0.040 A 
ATOM     28  C   LIG    1      -10.626  -0.544   2.976  0.00  0.00    -0.060 A 
ATOM     29  C   LIG    1      -10.566   0.248   1.841  0.00  0.00    +0.040 A 
ATOM     30 BR   LIG    1      -12.224  -1.460   3.401  0.00  0.00    -0.030 Br
ATOM     31  C   LIG    1       -9.405   0.919   1.525  0.00  0.00    +0.100 A 
ENDBRANCH  23  25
ENDBRANCH  22  23
ENDBRANCH  21  22
ENDBRANCH   9  21
TORSDOF 7
