REMARK  Name = ZINCb70000002hek.0
REMARK                            x       y       z     vdW  Elec       q    Type
REMARK                         _______ _______ _______ _____ _____    ______ ____
ROOT
ATOM      1  C   LIG    1       -2.105   0.887   1.277  0.00  0.00    +0.060 C 
ATOM      2  C   LIG    1       -0.696   1.477   1.217  0.00  0.00    +0.260 C 
ATOM      3  N   LIG    1       -0.012   1.005   0.008  0.00  0.00    -0.500 N 
ATOM      4  C   LIG    1       -0.719   1.490  -1.184  0.00  0.00    +0.300 C 
ATOM      5  C   LIG    1       -2.131   0.903  -1.217  0.00  0.00    +0.060 C 
ATOM      6  C   LIG    1       -2.868   1.409  -2.459  0.00  0.00    +0.230 C 
ATOM      7  O   LIG    1       -4.146   0.770  -2.539  0.00  0.00    -0.360 OA
ATOM      8  C   LIG    1       -4.069  -0.658  -2.586  0.00  0.00    +0.210 C 
ATOM      9  C   LIG    1       -3.333  -1.163  -1.342  0.00  0.00    +0.220 C 
ATOM     10  O   LIG    1       -2.055  -0.524  -1.262  0.00  0.00    -0.380 OA
ATOM     11  H   LIG    1        0.935   1.353   0.000  0.00  0.00    +0.430 HD
ATOM     12  H   LIG    1        0.002  -0.004   0.002  0.00  0.00    +0.440 HD
ATOM     13  C   LIG    1       -2.890   1.334   0.040  0.00  0.00    +0.040 C 
ENDROOT
TORSDOF 0
