REMARK  Name = ZINCrg000000sYx9.0
REMARK                            x       y       z     vdW  Elec       q    Type
REMARK                         _______ _______ _______ _____ _____    ______ ____
ROOT
ATOM      1  N   LIG    1        0.048  -0.040  -0.141  0.00  0.00    -0.710 N 
ATOM      2  H   LIG    1        0.886  -0.475  -0.363  0.00  0.00    +0.410 HD
ATOM      3  C   LIG    1        0.022   1.284   0.107  0.00  0.00    +0.610 C 
ATOM      4  O   LIG    1       -1.029   1.831   0.380  0.00  0.00    -0.520 OA
ENDROOT
BRANCH   3   5
ATOM      5  C   LIG    1        1.269   2.073   0.041  0.00  0.00    -0.020 A 
ATOM      6  N   LIG    1        2.471   1.610  -0.247  0.00  0.00    -0.230 NA
ATOM      7  N   LIG    1        3.338   2.558  -0.219  0.00  0.00    -0.190 N 
ATOM      8  C   LIG    1        2.723   3.740   0.103  0.00  0.00    -0.040 A 
ATOM      9  C   LIG    1        1.392   3.458   0.270  0.00  0.00    +0.060 A 
BRANCH   7  10
ATOM     10  C   LIG    1        4.705   2.407  -0.478  0.00  0.00    +0.110 A 
ATOM     11  C   LIG    1        5.359   3.305  -1.311  0.00  0.00    +0.070 A 
ATOM     12  C   LIG    1        6.710   3.156  -1.559  0.00  0.00    +0.030 A 
ATOM     13  C   LIG    1        7.408   2.107  -0.988  0.00  0.00    +0.030 A 
ATOM     14  C   LIG    1        6.758   1.208  -0.163  0.00  0.00    +0.030 A 
ATOM     15  C   LIG    1        5.409   1.354   0.094  0.00  0.00    +0.040 A 
ENDBRANCH   7  10
BRANCH   8  16
ATOM     16  C   LIG    1        3.366   5.056   0.237  0.00  0.00    +0.590 C 
ATOM     17  O   LIG    1        4.577   5.151   0.171  0.00  0.00    -0.520 OA
ATOM     18  N   LIG    1        2.614   6.157   0.433  0.00  0.00    -0.830 N 
ATOM     19  H   LIG    1        3.030   7.033   0.449  0.00  0.00    +0.410 HD
ATOM     20  H   LIG    1        1.655   6.073   0.558  0.00  0.00    +0.410 HD
ENDBRANCH   8  16
ENDBRANCH   3   5
BRANCH   1  21
ATOM     21  C   LIG    1       -1.189  -0.822  -0.076  0.00  0.00    +0.330 C 
BRANCH  21  26
ATOM     22  C   LIG    1       -0.278  -4.473   0.328  0.00  0.00    -0.140 A 
ATOM     23  C   LIG    1       -0.339  -4.917  -0.994  0.00  0.00    +0.050 A 
ATOM     24  C   LIG    1       -0.674  -4.034  -2.000  0.00  0.00    +0.000 A 
ATOM     25  C   LIG    1       -0.953  -2.712  -1.700  0.00  0.00    +0.060 A 
ATOM     26  C   LIG    1       -0.888  -2.264  -0.393  0.00  0.00    -0.120 A 
ATOM     27  C   LIG    1       -0.555  -3.137   0.623  0.00  0.00    +0.100 A 
BRANCH  22  31
ATOM     28  N   LIG    1        0.347  -6.702   1.123  0.00  0.00    -0.850 N 
ATOM     29  H   LIG    1        0.581  -7.319   1.834  0.00  0.00    +0.410 HD
ATOM     30  H   LIG    1        0.305  -7.013   0.205  0.00  0.00    +0.400 HD
ATOM     31  C   LIG    1        0.080  -5.413   1.411  0.00  0.00    +0.560 C 
ATOM     32  O   LIG    1        0.132  -5.024   2.561  0.00  0.00    -0.540 OA
ENDBRANCH  22  31
ENDBRANCH  21  26
ENDBRANCH   1  21
TORSDOF 6
