REMARK  Name = ZINCpk000000nyh6.1
REMARK                            x       y       z     vdW  Elec       q    Type
REMARK                         _______ _______ _______ _____ _____    ______ ____
ROOT
ATOM      1  C   LIG    1       -4.453   1.577   3.535  0.00  0.00    +0.520 C 
ATOM      2  N   LIG    1       -5.530   1.324   4.305  0.00  0.00    -0.730 N 
ATOM      3  H   LIG    1       -5.415   0.936   5.186  0.00  0.00    +0.410 HD
ATOM      4  O   LIG    1       -4.596   2.062   2.433  0.00  0.00    -0.520 OA
ENDROOT
BRANCH   1   5
ATOM      5  C   LIG    1       -3.071   1.257   4.043  0.00  0.00    +0.170 C 
BRANCH   5   9
ATOM      6  N   LIG    1       -0.698   1.558   1.213  0.00  0.00    -0.410 N 
ATOM      7  N   LIG    1       -1.657   0.850   1.951  0.00  0.00    -0.490 N 
ATOM      8  H   LIG    1       -1.983  -0.042   1.752  0.00  0.00    +0.440 HD
ATOM      9  C   LIG    1       -2.052   1.633   2.998  0.00  0.00    +0.200 A 
ATOM     10  C   LIG    1       -1.376   2.798   2.939  0.00  0.00    -0.170 A 
ATOM     11  C   LIG    1       -0.517   2.751   1.817  0.00  0.00    +0.530 A 
ATOM     12  O   LIG    1        0.247   3.629   1.458  0.00  0.00    -0.550 OA
BRANCH   6  13
ATOM     13  C   LIG    1       -0.013   1.086   0.008  0.00  0.00    +0.320 C 
BRANCH  13  15
ATOM     14  C   LIG    1       -0.666   3.119  -1.289  0.00  0.00    +0.020 C 
ATOM     15  C   LIG    1       -0.753   1.593  -1.232  0.00  0.00    -0.040 C 
ATOM     16  C   LIG    1       -0.111   0.998  -2.487  0.00  0.00    +0.030 C 
ENDBRANCH  13  15
ENDBRANCH   6  13
ENDBRANCH   5   9
ENDBRANCH   1   5
BRANCH   2  17
ATOM     17  C   LIG    1       -6.873   1.635   3.811  0.00  0.00    +0.380 C 
BRANCH  17  18
ATOM     18  C   LIG    1       -7.892   1.260   4.855  0.00  0.00    +0.060 A 
ATOM     19  C   LIG    1       -8.424   2.087   5.785  0.00  0.00    -0.030 A 
ATOM     20  C   LIG    1       -9.327   1.346   6.554  0.00  0.00    -0.020 A 
ATOM     21  N   LIG    1       -9.331   0.116   6.108  0.00  0.00    -0.220 NA
ATOM     22  N   LIG    1       -8.433   0.037   5.036  0.00  0.00    -0.340 N 
ATOM     23  C   LIG    1       -8.135  -1.163   4.249  0.00  0.00    +0.380 C 
BRANCH  20  24
ATOM     24  C   LIG    1      -10.150   1.872   7.702  0.00  0.00    +0.560 C 
ATOM     25  F   LIG    1      -11.063   2.820   7.226  0.00  0.00    -0.160 F 
ATOM     26  F   LIG    1       -9.306   2.470   8.644  0.00  0.00    -0.160 F 
ATOM     27  F   LIG    1      -10.844   0.816   8.301  0.00  0.00    -0.170 F 
ENDBRANCH  20  24
ENDBRANCH  17  18
ENDBRANCH   2  17
TORSDOF 7
