REMARK  Name = ZINCkj000005iIRA.0
REMARK                            x       y       z     vdW  Elec       q    Type
REMARK                         _______ _______ _______ _____ _____    ______ ____
ROOT
ATOM      1  S   LIG    1        2.589   0.513   0.096  0.00  0.00    +2.690 S 
ATOM      2  O   LIG    1        1.958  -0.675   0.553  0.00  0.00    -0.950 OA
ATOM      3  O   LIG    1        3.679   1.124   0.772  0.00  0.00    -0.940 OA
ENDROOT
BRANCH   1   7
ATOM      4  C   LIG    1        4.015  -0.338  -4.117  0.00  0.00    +0.190 A 
ATOM      5  C   LIG    1        3.249   0.788  -3.858  0.00  0.00    -0.090 A 
ATOM      6  C   LIG    1        2.810   1.043  -2.572  0.00  0.00    +0.140 A 
ATOM      7  C   LIG    1        3.144   0.182  -1.544  0.00  0.00    -0.720 A 
ATOM      8  C   LIG    1        3.909  -0.942  -1.800  0.00  0.00    +0.060 A 
ATOM      9  C   LIG    1        4.266  -1.881  -0.677  0.00  0.00    +0.110 C 
ATOM     10  C   LIG    1        4.345  -1.204  -3.084  0.00  0.00    -0.020 A 
BRANCH   4  12
ATOM     11  C   LIG    1        4.066   0.340  -6.395  0.00  0.00    +0.250 C 
ATOM     12  O   LIG    1        4.443  -0.594  -5.382  0.00  0.00    -0.310 OA
ENDBRANCH   4  12
ENDBRANCH   1   7
BRANCH   1  13
ATOM     13  N   LIG    1        1.402   1.662  -0.012  0.00  0.00    -1.000 NA
ATOM     14  C   LIG    1        1.756   3.084  -0.020  0.00  0.00    +0.310 C 
BRANCH  13  15
ATOM     15  C   LIG    1       -0.004   1.258  -0.099  0.00  0.00    +0.250 C 
ATOM     16  C   LIG    1       -0.766   1.790   1.118  0.00  0.00    +0.060 C 
ATOM     17  C   LIG    1       -2.248   1.430   0.979  0.00  0.00    +0.270 C 
ATOM     18  N   LIG    1       -2.791   2.034  -0.244  0.00  0.00    -0.510 N 
ATOM     19  C   LIG    1       -2.111   1.475  -1.419  0.00  0.00    +0.280 C 
ATOM     20  H   LIG    1       -3.779   1.839  -0.303  0.00  0.00    +0.440 HD
ATOM     21  H   LIG    1       -2.647   3.032  -0.217  0.00  0.00    +0.430 HD
ATOM     22  C   LIG    1       -0.625   1.836  -1.373  0.00  0.00    +0.050 C 
ENDBRANCH  13  15
ENDBRANCH   1  13
TORSDOF 4
