REMARK  Name = ZINCpe000000YTUI.0
REMARK                            x       y       z     vdW  Elec       q    Type
REMARK                         _______ _______ _______ _____ _____    ______ ____
ROOT
ATOM      1  N   LIG    1        2.087   1.389   1.118  0.00  0.00    -0.520 NA
ATOM      2  C   LIG    1        1.329   2.015   0.026  0.00  0.00    +0.190 C 
ATOM      3  C   LIG    1       -0.126   1.538   0.080  0.00  0.00    +0.310 C 
ATOM      4  N   LIG    1       -0.137   0.068   0.081  0.00  0.00    -0.590 N 
ATOM      5  C   LIG    1        0.708  -0.633   1.061  0.00  0.00    +0.310 C 
ATOM      6  C   LIG    1        2.130  -0.071   0.968  0.00  0.00    +0.190 C 
ENDROOT
BRANCH   4   7
ATOM      7  C   LIG    1       -0.924  -0.641  -0.820  0.00  0.00    +0.420 A 
ATOM      8  N   LIG    1       -1.743   0.007  -1.615  0.00  0.00    -0.340 NA
ATOM      9  N   LIG    1       -2.542  -0.686  -2.526  0.00  0.00    -0.270 N 
ATOM     10  C   LIG    1       -3.454  -0.308  -3.447  0.00  0.00    +0.410 A 
ATOM     11  N   LIG    1       -3.903  -1.391  -4.030  0.00  0.00    -0.270 NA
ATOM     12  N   LIG    1       -3.331  -2.433  -3.535  0.00  0.00    -0.250 NA
ATOM     13  C   LIG    1       -2.476  -2.055  -2.597  0.00  0.00    +0.110 A 
ATOM     14  C   LIG    1       -1.597  -2.749  -1.744  0.00  0.00    +0.190 A 
ATOM     15  C   LIG    1       -0.829  -2.046  -0.871  0.00  0.00    -0.030 A 
ENDBRANCH   4   7
BRANCH   1  16
ATOM     16  C   LIG    1        3.442   1.950   1.207  0.00  0.00    +0.220 C 
BRANCH  16  18
ATOM     17  O   LIG    1        2.280   3.918   1.793  0.00  0.00    -0.500 OA
ATOM     18  C   LIG    1        3.360   3.401   1.604  0.00  0.00    +0.510 C 
ATOM     19  N   LIG    1        4.488   4.125   1.747  0.00  0.00    -0.680 N 
ATOM     20  H   LIG    1        5.347   3.735   1.521  0.00  0.00    +0.410 HD
BRANCH  19  21
ATOM     21  C   LIG    1        4.420   5.439   2.223  0.00  0.00    +0.140 A 
ATOM     22  C   LIG    1        5.306   6.398   1.749  0.00  0.00    -0.030 A 
ATOM     23  C   LIG    1        5.233   7.695   2.216  0.00  0.00    +0.030 A 
ATOM     24  C   LIG    1        4.285   8.038   3.163  0.00  0.00    -0.010 A 
ATOM     25  C   LIG    1        3.405   7.085   3.641  0.00  0.00    +0.030 A 
ATOM     26  C   LIG    1        3.470   5.787   3.174  0.00  0.00    +0.010 A 
ENDBRANCH  19  21
ENDBRANCH  16  18
ENDBRANCH   1  16
TORSDOF 4
