REMARK  Name = ZINCpk000000oYgg.0
REMARK                            x       y       z     vdW  Elec       q    Type
REMARK                         _______ _______ _______ _____ _____    ______ ____
ROOT
ATOM      1  S   LIG    1        3.938   1.870  -2.145  0.00  0.00    +2.780 S 
ATOM      2  O   LIG    1        3.809   3.108  -1.459  0.00  0.00    -0.970 OA
ATOM      3  O   LIG    1        3.720   1.730  -3.542  0.00  0.00    -0.960 OA
ENDROOT
BRANCH   1   8
ATOM      4  C   LIG    1        8.580  -0.818  -0.565  0.00  0.00    +0.650 C 
ATOM      5  N   LIG    1        7.327  -0.381  -0.801  0.00  0.00    -0.590 N 
ATOM      6  C   LIG    1        6.586  -0.836  -1.986  0.00  0.00    +0.300 C 
ATOM      7  C   LIG    1        6.128   0.393  -2.780  0.00  0.00    +0.290 C 
ATOM      8  N   LIG    1        5.478   1.333  -1.856  0.00  0.00    -1.010 NA
ATOM      9  C   LIG    1        6.220   1.793  -0.674  0.00  0.00    +0.290 C 
ATOM     10  C   LIG    1        6.676   0.559   0.123  0.00  0.00    +0.290 C 
ATOM     11  O   LIG    1        9.107  -1.595  -1.336  0.00  0.00    -0.570 OA
BRANCH   4  12
ATOM     12  O   LIG    1        9.247  -0.393   0.524  0.00  0.00    -0.370 OA
BRANCH  12  14
ATOM     13  C   LIG    1       11.187  -0.314   1.995  0.00  0.00    +0.070 C 
ATOM     14  C   LIG    1       10.593  -0.904   0.714  0.00  0.00    +0.220 C 
ENDBRANCH  12  14
ENDBRANCH   4  12
ENDBRANCH   1   8
BRANCH   1  15
ATOM     15  N   LIG    1        2.902   0.813  -1.402  0.00  0.00    -1.010 NA
ATOM     16  C   LIG    1        2.399  -0.354  -2.131  0.00  0.00    +0.300 C 
BRANCH  15  17
ATOM     17  C   LIG    1        2.490   1.045  -0.016  0.00  0.00    +0.360 C 
BRANCH  17  18
ATOM     18  C   LIG    1        1.175   1.782   0.000  0.00  0.00    -0.100 A 
ATOM     19  C   LIG    1       -0.013   1.076   0.008  0.00  0.00    +0.060 A 
ATOM     20  C   LIG    1       -1.220   1.750   0.017  0.00  0.00    +0.020 A 
ATOM     21  C   LIG    1       -1.239   3.134   0.030  0.00  0.00    +0.070 A 
ATOM     22  C   LIG    1       -0.047   3.842   0.022  0.00  0.00    +0.070 A 
ATOM     23  F   LIG    1       -0.064   5.193   0.029  0.00  0.00    -0.130 F 
ATOM     24  F   LIG    1       -2.418   3.793   0.044  0.00  0.00    -0.130 F 
ATOM     25  C   LIG    1        1.159   3.165   0.007  0.00  0.00    +0.050 A 
ENDBRANCH  17  18
ENDBRANCH  15  17
ENDBRANCH   1  15
TORSDOF 6
