REMARK  Name = ZINCqH0000007okP.1
REMARK                            x       y       z     vdW  Elec       q    Type
REMARK                         _______ _______ _______ _____ _____    ______ ____
ROOT
ATOM      1  N   LIG    1       -0.698   1.558   1.213  0.00  0.00    -0.720 N 
ATOM      2  H   LIG    1       -1.241   2.362   1.179  0.00  0.00    +0.400 HD
ATOM      3  C   LIG    1       -0.575   0.877   2.369  0.00  0.00    +0.710 C 
ATOM      4  N   LIG    1       -1.206   1.311   3.478  0.00  0.00    -0.620 N 
ATOM      5  H   LIG    1       -1.749   2.115   3.444  0.00  0.00    +0.440 HD
ATOM      6  O   LIG    1        0.104  -0.130   2.412  0.00  0.00    -0.540 OA
ENDROOT
BRANCH   4   7
ATOM      7  C   LIG    1       -1.080   0.614   4.662  0.00  0.00    +0.430 A 
ATOM      8  N   LIG    1       -1.637   0.920   5.817  0.00  0.00    -0.500 NA
ATOM      9  C   LIG    1       -1.235  -0.040   6.678  0.00  0.00    +0.240 A 
ATOM     10  N   LIG    1       -0.468  -0.864   6.011  0.00  0.00    -0.380 NA
ATOM     11  O   LIG    1       -0.373  -0.509   4.856  0.00  0.00    +0.100 OA
BRANCH   9  12
ATOM     12  C   LIG    1       -1.595  -0.141   8.114  0.00  0.00    -0.030 A 
ATOM     13  C   LIG    1       -2.421   0.818   8.697  0.00  0.00    +0.070 A 
ATOM     14  C   LIG    1       -2.759   0.715  10.031  0.00  0.00    +0.010 A 
ATOM     15  C   LIG    1       -2.268  -0.330  10.793  0.00  0.00    +0.030 A 
ATOM     16  C   LIG    1       -1.442  -1.281  10.221  0.00  0.00    +0.010 A 
ATOM     17  C   LIG    1       -1.104  -1.192   8.886  0.00  0.00    +0.050 A 
ENDBRANCH   9  12
ENDBRANCH   4   7
BRANCH   1  18
ATOM     18  C   LIG    1       -0.013   1.086   0.008  0.00  0.00    +0.320 C 
ATOM     19  C   LIG    1        1.423   1.615  -0.003  0.00  0.00    +0.040 C 
BRANCH  18  23
ATOM     20  C   LIG    1       -2.080   2.499  -3.456  0.00  0.00    +0.100 A 
ATOM     21  C   LIG    1       -1.567   1.212  -3.430  0.00  0.00    -0.040 A 
ATOM     22  C   LIG    1       -0.899   0.758  -2.309  0.00  0.00    +0.070 A 
ATOM     23  C   LIG    1       -0.742   1.585  -1.213  0.00  0.00    -0.110 A 
ATOM     24  C   LIG    1       -1.257   2.868  -1.232  0.00  0.00    +0.030 A 
ATOM     25  C   LIG    1       -1.922   3.330  -2.354  0.00  0.00    +0.080 A 
ATOM     26  F   LIG    1       -2.421   4.585  -2.375  0.00  0.00    -0.130 F 
BRANCH  20  28
ATOM     27  C   LIG    1       -2.863   2.040  -5.654  0.00  0.00    +0.250 C 
ATOM     28  O   LIG    1       -2.738   2.948  -4.558  0.00  0.00    -0.310 OA
ENDBRANCH  20  28
ENDBRANCH  18  23
ENDBRANCH   1  18
TORSDOF 5
