REMARK  Name = ZINCrD000000C5Zc.0
REMARK                            x       y       z     vdW  Elec       q    Type
REMARK                         _______ _______ _______ _____ _____    ______ ____
ROOT
ATOM      1  O   LIG    1       -2.412   1.127   0.132  0.00  0.00    -0.560 OA
ATOM      2  C   LIG    1       -2.408  -0.087   0.058  0.00  0.00    +0.710 C 
ATOM      3  N   LIG    1       -3.561  -0.773   0.184  0.00  0.00    -0.630 N 
ATOM      4  C   LIG    1       -3.553  -2.240   0.272  0.00  0.00    +0.280 C 
ATOM      5  C   LIG    1       -4.326  -2.658   1.532  0.00  0.00    +0.060 C 
ATOM      6  C   LIG    1       -5.725  -2.039   1.495  0.00  0.00    -0.450 C 
ATOM      7  C   LIG    1       -5.608  -0.513   1.486  0.00  0.00    +0.050 C 
ATOM      8  C   LIG    1       -4.850  -0.070   0.231  0.00  0.00    +0.330 C 
ATOM      9  N   LIG    1       -1.251  -0.746  -0.150  0.00  0.00    -0.680 N 
ATOM     10  H   LIG    1       -1.262  -1.697  -0.337  0.00  0.00    +0.410 HD
ENDROOT
BRANCH   9  11
ATOM     11  C   LIG    1       -0.034  -0.056  -0.098  0.00  0.00    +0.170 A 
ATOM     12  C   LIG    1       -0.003   1.316  -0.305  0.00  0.00    +0.010 A 
ATOM     13  C   LIG    1        1.200   1.994  -0.253  0.00  0.00    +0.040 A 
ATOM     14  C   LIG    1        2.372   1.306   0.006  0.00  0.00    -0.020 A 
ATOM     15  C   LIG    1        2.344  -0.061   0.213  0.00  0.00    -0.030 A 
ATOM     16  C   LIG    1        1.144  -0.744   0.162  0.00  0.00    -0.030 A 
BRANCH  15  17
ATOM     17  C   LIG    1        3.623  -0.806   0.494  0.00  0.00    -0.010 C 
ATOM     18  C   LIG    1        4.885   0.024   0.738  0.00  0.00    +0.020 C 
ATOM     19  C   LIG    1        4.721  -0.752  -0.571  0.00  0.00    +0.030 C 
ENDBRANCH  15  17
ENDBRANCH   9  11
BRANCH   6  20
ATOM     20  S   LIG    1       -6.658  -2.566   2.959  0.00  0.00    +2.610 S 
ATOM     21  O   LIG    1       -8.021  -2.179   2.847  0.00  0.00    -0.950 OA
ATOM     22  O   LIG    1       -5.917  -2.304   4.143  0.00  0.00    -0.950 OA
BRANCH  20  23
ATOM     23  N   LIG    1       -6.692  -4.218   2.855  0.00  0.00    -1.000 NA
ATOM     24  C   LIG    1       -5.703  -5.034   3.572  0.00  0.00    +0.290 C 
ATOM     25  C   LIG    1       -6.451  -6.067   4.429  0.00  0.00    +0.020 C 
ATOM     26  C   LIG    1       -7.400  -6.870   3.536  0.00  0.00    +0.010 C 
ATOM     27  C   LIG    1       -8.430  -5.929   2.907  0.00  0.00    +0.020 C 
ATOM     28  C   LIG    1       -7.708  -4.895   2.038  0.00  0.00    +0.280 C 
ENDBRANCH  20  23
ENDBRANCH   6  20
TORSDOF 4
