REMARK  Name = ZINCvU00000009V9.0
REMARK                            x       y       z     vdW  Elec       q    Type
REMARK                         _______ _______ _______ _____ _____    ______ ____
ROOT
ATOM      1  O   LIG    1       -3.628  -4.287  -0.075  0.00  0.00    -0.520 OA
ATOM      2  C   LIG    1       -4.318  -3.295   0.032  0.00  0.00    +0.540 C 
ATOM      3  N   LIG    1       -5.656  -3.414   0.141  0.00  0.00    -0.590 N 
ENDROOT
BRANCH   3   4
ATOM      4  C   LIG    1       -6.267  -4.741   0.247  0.00  0.00    +0.350 C 
BRANCH   4   5
ATOM      5  C   LIG    1       -6.367  -5.134   1.698  0.00  0.00    -0.110 A 
ATOM      6  C   LIG    1       -5.332  -5.824   2.300  0.00  0.00    +0.030 A 
ATOM      7  C   LIG    1       -5.421  -6.180   3.633  0.00  0.00    +0.000 A 
ATOM      8  C   LIG    1       -6.551  -5.856   4.361  0.00  0.00    +0.010 A 
ATOM      9  C   LIG    1       -7.589  -5.171   3.757  0.00  0.00    +0.000 A 
ATOM     10  C   LIG    1       -7.497  -4.810   2.426  0.00  0.00    +0.010 A 
ENDBRANCH   4   5
ENDBRANCH   3   4
BRANCH   3  11
ATOM     11  C   LIG    1       -6.499  -2.216   0.154  0.00  0.00    +0.330 C 
BRANCH  11  12
ATOM     12  C   LIG    1       -7.004  -1.942  -1.239  0.00  0.00    -0.110 A 
ATOM     13  C   LIG    1       -6.334  -1.048  -2.054  0.00  0.00    +0.010 A 
ATOM     14  C   LIG    1       -6.795  -0.800  -3.333  0.00  0.00    +0.000 A 
ATOM     15  C   LIG    1       -7.930  -1.439  -3.795  0.00  0.00    +0.010 A 
ATOM     16  C   LIG    1       -8.603  -2.329  -2.978  0.00  0.00    +0.000 A 
ATOM     17  C   LIG    1       -8.140  -2.580  -1.700  0.00  0.00    +0.020 A 
ENDBRANCH  11  12
ENDBRANCH   3  11
BRANCH   2  18
ATOM     18  C   LIG    1       -3.679  -1.930   0.044  0.00  0.00    +0.100 C 
BRANCH  18  19
ATOM     19  S   LIG    1       -1.874  -2.108   0.033  0.00  0.00    +0.090 S 
BRANCH  19  20
ATOM     20  C   LIG    1       -1.312  -0.438   0.049  0.00  0.00    +0.210 A 
ATOM     21  N   LIG    1       -2.073   0.625   0.065  0.00  0.00    -0.290 NA
ATOM     22  N   LIG    1       -1.242   1.753   0.079  0.00  0.00    -0.260 NA
ATOM     23  C   LIG    1       -0.001   1.331   0.063  0.00  0.00    +0.180 A 
ATOM     24  S   LIG    1        1.685   1.864   0.060  0.00  0.00    +0.200 S 
ATOM     25  C   LIG    1        2.356   0.228   0.038  0.00  0.00    -0.140 A 
ATOM     26  C   LIG    1        3.660  -0.241   0.026  0.00  0.00    +0.100 A 
ATOM     27  C   LIG    1        3.900  -1.601   0.009  0.00  0.00    +0.050 A 
ATOM     28  C   LIG    1        2.833  -2.482   0.005  0.00  0.00    +0.070 A 
ATOM     29  C   LIG    1        1.537  -2.018   0.017  0.00  0.00    +0.050 A 
ATOM     30  C   LIG    1        1.271  -0.641   0.034  0.00  0.00    +0.100 A 
ATOM     31  N   LIG    1        0.012  -0.029   0.047  0.00  0.00    -0.440 N 
ENDBRANCH  19  20
ENDBRANCH  18  19
ENDBRANCH   2  18
TORSDOF 7
