REMARK  Name = ZINCrH000004n7zG.0
REMARK                            x       y       z     vdW  Elec       q    Type
REMARK                         _______ _______ _______ _____ _____    ______ ____
ROOT
ATOM      1  C   LIG    1       -1.984   1.463   0.379  0.00  0.00    -0.050 C 
ATOM      2  C   LIG    1       -2.619   1.485  -0.775  0.00  0.00    -0.070 C 
ATOM      3  C   LIG    1       -4.104   1.677  -0.889  0.00  0.00    +0.270 C 
ATOM      4  N   LIG    1       -4.750   1.436   0.407  0.00  0.00    -0.500 NA
ATOM      5  C   LIG    1       -4.085   2.218   1.462  0.00  0.00    +0.230 C 
ATOM      6  C   LIG    1       -2.689   1.633   1.696  0.00  0.00    +0.030 C 
ENDROOT
BRANCH   1  14
ATOM      7  C   LIG    1        0.747  -2.282  -0.322  0.00  0.00    +0.100 A 
ATOM      8  C   LIG    1        2.101  -1.974  -0.230  0.00  0.00    -0.050 A 
ATOM      9  C   LIG    1        2.510  -0.687   0.045  0.00  0.00    +0.030 A 
ATOM     10  C   LIG    1        1.566   0.317   0.233  0.00  0.00    +0.060 A 
ATOM     11  N   LIG    1        1.665   1.665   0.513  0.00  0.00    -0.590 N 
ATOM     12  H   LIG    1        2.499   2.147   0.630  0.00  0.00    +0.420 HD
ATOM     13  C   LIG    1        0.423   2.220   0.601  0.00  0.00    +0.250 A 
ATOM     14  C   LIG    1       -0.521   1.269   0.379  0.00  0.00    -0.150 A 
ATOM     15  C   LIG    1        0.199   0.007   0.139  0.00  0.00    -0.050 A 
ATOM     16  C   LIG    1       -0.204  -1.298  -0.139  0.00  0.00    +0.020 A 
BRANCH   7  18
ATOM     17  C   LIG    1        1.395  -4.526  -0.772  0.00  0.00    +0.230 C 
ATOM     18  O   LIG    1        0.360  -3.557  -0.594  0.00  0.00    -0.320 OA
ENDBRANCH   7  18
ENDBRANCH   1  14
BRANCH   4  19
ATOM     19  C   LIG    1       -4.752   0.004   0.736  0.00  0.00    +0.140 C 
ATOM     20  C   LIG    1       -5.421  -0.778  -0.396  0.00  0.00    +0.080 C 
BRANCH  19  21
ATOM     21  C   LIG    1       -5.515  -0.216   2.018  0.00  0.00    +0.510 C 
ATOM     22  N   LIG    1       -5.214  -1.264   2.809  0.00  0.00    -0.640 N 
ATOM     23  H   LIG    1       -4.507  -1.877   2.555  0.00  0.00    +0.420 HD
ATOM     24  O   LIG    1       -6.400   0.551   2.336  0.00  0.00    -0.440 OA
BRANCH  22  25
ATOM     25  C   LIG    1       -5.918  -1.466   3.991  0.00  0.00    +0.270 A 
ATOM     26  N   LIG    1       -6.874  -0.707   4.426  0.00  0.00    -0.480 NA
ATOM     27  C   LIG    1       -7.438  -1.051   5.568  0.00  0.00    +0.250 A 
ATOM     28  C   LIG    1       -6.926  -2.147   6.132  0.00  0.00    -0.090 A 
ATOM     29  S   LIG    1       -5.642  -2.750   5.087  0.00  0.00    +0.120 S 
ENDBRANCH  22  25
ENDBRANCH  19  21
ENDBRANCH   4  19
TORSDOF 5
