REMARK  Name = ZINCpe00000ztf6D.1
REMARK                            x       y       z     vdW  Elec       q    Type
REMARK                         _______ _______ _______ _____ _____    ______ ____
ROOT
ATOM      1  O   LIG    1       -4.688   4.529  -0.113  0.00  0.00    -0.510 OA
ATOM      2  C   LIG    1       -3.476   4.444  -0.082  0.00  0.00    +0.710 C 
ATOM      3  N   LIG    1       -2.655   5.502  -0.092  0.00  0.00    -0.670 N 
ATOM      4  H   LIG    1       -2.955   6.424  -0.125  0.00  0.00    +0.440 HD
ATOM      5  C   LIG    1       -1.360   5.126  -0.051  0.00  0.00    +0.550 C 
ATOM      6  C   LIG    1       -1.380   3.616  -0.009  0.00  0.00    +0.100 C 
ATOM      7  C   LIG    1       -0.732   3.111   1.278  0.00  0.00    +0.080 C 
ATOM      8  C   LIG    1       -0.727   1.578   1.268  0.00  0.00    +0.070 C 
ATOM      9  C   LIG    1       -0.013   1.086   0.008  0.00  0.00    +0.240 C 
ATOM     10  N   LIG    1       -0.721   1.571  -1.183  0.00  0.00    -0.370 N 
ATOM     11  H   LIG    1       -1.683   1.271  -1.146  0.00  0.00    +0.430 HD
ATOM     12  C   LIG    1       -0.670   3.038  -1.228  0.00  0.00    +0.300 C 
ATOM     13  O   LIG    1       -0.386   5.848  -0.049  0.00  0.00    -0.440 OA
ATOM     14  N   LIG    1       -2.808   3.276  -0.033  0.00  0.00    -0.720 N 
ATOM     15  H   LIG    1       -3.194   2.386  -0.018  0.00  0.00    +0.440 HD
ENDROOT
BRANCH  10  16
ATOM     16  C   LIG    1       -0.084   1.023  -2.387  0.00  0.00    +0.340 C 
BRANCH  16  17
ATOM     17  C   LIG    1       -0.250  -0.475  -2.406  0.00  0.00    -0.140 A 
ATOM     18  C   LIG    1        0.789  -1.291  -2.011  0.00  0.00    +0.050 A 
ATOM     19  C   LIG    1        0.637  -2.666  -2.022  0.00  0.00    +0.040 A 
ATOM     20  C   LIG    1       -0.555  -3.232  -2.441  0.00  0.00    -0.060 A 
ATOM     21  C   LIG    1       -1.601  -2.425  -2.845  0.00  0.00    +0.080 A 
ATOM     22 BR   LIG    1       -0.751  -5.112  -2.461  0.00  0.00    -0.030 Br
ATOM     23  C   LIG    1       -1.454  -1.038  -2.830  0.00  0.00    +0.080 A 
BRANCH  23  24
ATOM     24  C   LIG    1       -2.571  -0.168  -3.261  0.00  0.00    +0.060 A 
ATOM     25  N   LIG    1       -2.577   1.165  -3.293  0.00  0.00    -0.410 NA
ATOM     26  N   LIG    1       -3.732   1.537  -3.731  0.00  0.00    -0.160 NA
ATOM     27  N   LIG    1       -4.452   0.496  -3.964  0.00  0.00    -0.160 NA
ATOM     28  N   LIG    1       -3.772  -0.563  -3.687  0.00  0.00    -0.340 NA
ENDBRANCH  23  24
ENDBRANCH  16  17
ENDBRANCH  10  16
TORSDOF 3
