REMARK  Name = ZINCpe00000ztf6D.0
REMARK                            x       y       z     vdW  Elec       q    Type
REMARK                         _______ _______ _______ _____ _____    ______ ____
ROOT
ATOM      1  O   LIG    1       -6.744   7.323   4.082  0.00  0.00    -0.520 OA
ATOM      2  C   LIG    1       -5.924   6.473   3.794  0.00  0.00    +0.710 C 
ATOM      3  N   LIG    1       -4.691   6.422   4.312  0.00  0.00    -0.670 N 
ATOM      4  H   LIG    1       -4.345   7.056   4.960  0.00  0.00    +0.440 HD
ATOM      5  C   LIG    1       -3.988   5.380   3.821  0.00  0.00    +0.530 C 
ATOM      6  C   LIG    1       -4.921   4.684   2.857  0.00  0.00    +0.110 C 
ATOM      7  C   LIG    1       -5.184   3.251   3.313  0.00  0.00    +0.080 C 
ATOM      8  C   LIG    1       -3.887   2.443   3.203  0.00  0.00    +0.070 C 
ATOM      9  C   LIG    1       -3.365   2.526   1.766  0.00  0.00    +0.240 C 
ATOM     10  N   LIG    1       -3.091   3.925   1.420  0.00  0.00    -0.370 N 
ATOM     11  H   LIG    1       -2.441   4.315   2.086  0.00  0.00    +0.440 HD
ATOM     12  C   LIG    1       -4.340   4.698   1.448  0.00  0.00    +0.290 C 
ATOM     13  O   LIG    1       -2.849   5.069   4.094  0.00  0.00    -0.440 OA
ATOM     14  N   LIG    1       -6.154   5.478   2.916  0.00  0.00    -0.710 N 
ATOM     15  H   LIG    1       -6.972   5.317   2.421  0.00  0.00    +0.450 HD
ENDROOT
BRANCH  10  16
ATOM     16  C   LIG    1       -2.507   3.990   0.073  0.00  0.00    +0.340 C 
BRANCH  16  17
ATOM     17  C   LIG    1       -1.156   3.323   0.079  0.00  0.00    -0.140 A 
ATOM     18  C   LIG    1       -1.017   2.038  -0.406  0.00  0.00    +0.050 A 
ATOM     19  C   LIG    1        0.222   1.424  -0.401  0.00  0.00    +0.040 A 
ATOM     20  C   LIG    1        1.330   2.093   0.089  0.00  0.00    -0.060 A 
ATOM     21  C   LIG    1        1.204   3.379   0.576  0.00  0.00    +0.080 A 
ATOM     22 BR   LIG    1        3.021   1.245   0.091  0.00  0.00    -0.030 Br
ATOM     23  C   LIG    1       -0.044   4.000   0.579  0.00  0.00    +0.080 A 
BRANCH  23  24
ATOM     24  C   LIG    1       -0.189   5.377   1.106  0.00  0.00    +0.060 A 
ATOM     25  N   LIG    1       -1.325   6.059   1.256  0.00  0.00    -0.420 NA
ATOM     26  N   LIG    1       -1.022   7.213   1.745  0.00  0.00    -0.160 NA
ATOM     27  N   LIG    1        0.253   7.287   1.901  0.00  0.00    -0.160 NA
ATOM     28  N   LIG    1        0.793   6.180   1.519  0.00  0.00    -0.340 NA
ENDBRANCH  23  24
ENDBRANCH  16  17
ENDBRANCH  10  16
TORSDOF 3
