REMARK  Name = ZINCvU00000007GX.0
REMARK                            x       y       z     vdW  Elec       q    Type
REMARK                         _______ _______ _______ _____ _____    ______ ____
ROOT
ATOM      1  C   LIG    1       -3.992   1.966  -0.633  0.00  0.00    +0.150 A 
ATOM      2  N   LIG    1       -3.962   3.236  -0.303  0.00  0.00    -0.290 NA
ATOM      3  N   LIG    1       -5.127   3.756  -0.459  0.00  0.00    -0.270 NA
ATOM      4  C   LIG    1       -5.967   2.856  -0.886  0.00  0.00    +0.200 A 
ATOM      5  N   LIG    1       -5.275   1.681  -1.013  0.00  0.00    -0.400 N 
ENDROOT
BRANCH   5   6
ATOM      6  C   LIG    1       -5.777   0.443  -1.442  0.00  0.00    +0.110 A 
ATOM      7  C   LIG    1       -6.244   0.295  -2.740  0.00  0.00    +0.030 A 
ATOM      8  C   LIG    1       -6.733  -0.927  -3.161  0.00  0.00    +0.040 A 
ATOM      9  C   LIG    1       -6.768  -1.998  -2.287  0.00  0.00    +0.030 A 
ATOM     10  C   LIG    1       -6.308  -1.851  -0.991  0.00  0.00    +0.040 A 
ATOM     11  C   LIG    1       -5.813  -0.634  -0.566  0.00  0.00    +0.040 A 
ENDBRANCH   5   6
BRANCH   1  12
ATOM     12  S   LIG    1       -2.637   0.839  -0.589  0.00  0.00    +0.090 S 
BRANCH  12  14
ATOM     13  C   LIG    1       -1.656   2.407   1.422  0.00  0.00    +0.080 C 
ATOM     14  C   LIG    1       -1.330   1.943   0.001  0.00  0.00    +0.020 C 
BRANCH  14  15
ATOM     15  C   LIG    1       -0.014   1.208   0.002  0.00  0.00    +0.540 C 
ATOM     16  N   LIG    1        1.143   1.898   0.001  0.00  0.00    -0.660 N 
ATOM     17  H   LIG    1        1.131   2.866  -0.062  0.00  0.00    +0.420 HD
ATOM     18  O   LIG    1        0.003  -0.004  -0.001  0.00  0.00    -0.500 OA
BRANCH  16  19
ATOM     19  C   LIG    1        2.364   1.218   0.092  0.00  0.00    +0.170 A 
ATOM     20  C   LIG    1        2.513  -0.025  -0.507  0.00  0.00    +0.060 A 
ATOM     21  C   LIG    1        3.721  -0.692  -0.420  0.00  0.00    -0.010 A 
ATOM     22  C   LIG    1        4.777  -0.126   0.272  0.00  0.00    +0.040 A 
ATOM     23  C   LIG    1        4.630   1.110   0.874  0.00  0.00    +0.070 A 
ATOM     24 CL   LIG    1        3.911  -2.244  -1.174  0.00  0.00    -0.050 Cl
ATOM     25  C   LIG    1        3.426   1.784   0.786  0.00  0.00    -0.060 A 
ATOM     26 CL   LIG    1        3.242   3.336   1.544  0.00  0.00    -0.050 Cl
ENDBRANCH  16  19
ENDBRANCH  14  15
ENDBRANCH  12  14
ENDBRANCH   1  12
BRANCH   4  27
ATOM     27  C   LIG    1       -7.429   3.068  -1.183  0.00  0.00    +0.310 C 
BRANCH  27  28
ATOM     28  N   LIG    1       -8.218   2.811   0.029  0.00  0.00    -0.510 NA
ATOM     29  C   LIG    1       -7.702   3.599   1.177  0.00  0.00    +0.180 C 
ATOM     30  C   LIG    1       -8.902   3.626   2.156  0.00  0.00    +0.020 C 
ATOM     31  C   LIG    1      -10.117   3.755   1.210  0.00  0.00    +0.010 C 
ATOM     32  C   LIG    1       -9.623   3.236  -0.153  0.00  0.00    +0.170 C 
ENDBRANCH  27  28
ENDBRANCH   4  27
TORSDOF 7
