REMARK  Name = ZINCtV00001bB3w5.0
REMARK                            x       y       z     vdW  Elec       q    Type
REMARK                         _______ _______ _______ _____ _____    ______ ____
ROOT
ATOM      1  N   LIG    1        3.538   6.271   0.623  0.00  0.00    -0.550 NA
ATOM      2  C   LIG    1        4.598   5.549   0.362  0.00  0.00    +0.360 A 
ATOM      3  S   LIG    1        6.233   6.128  -0.002  0.00  0.00    -0.030 S 
ATOM      4  C   LIG    1        6.920   4.506  -0.203  0.00  0.00    -0.040 A 
ATOM      5  C   LIG    1        5.911   3.653   0.013  0.00  0.00    +0.180 A 
ATOM      6  N   LIG    1        4.683   4.181   0.315  0.00  0.00    -0.380 N 
ENDROOT
BRANCH   5   7
ATOM      7  C   LIG    1        6.114   2.192  -0.071  0.00  0.00    -0.030 A 
ATOM      8  C   LIG    1        7.203   1.599   0.573  0.00  0.00    +0.050 A 
ATOM      9  C   LIG    1        7.389   0.237   0.498  0.00  0.00    +0.020 A 
ATOM     10  C   LIG    1        6.497  -0.550  -0.230  0.00  0.00    -0.030 A 
ATOM     11  C   LIG    1        5.412   0.041  -0.878  0.00  0.00    +0.020 A 
ATOM     12  C   LIG    1        5.221   1.402  -0.800  0.00  0.00    +0.030 A 
BRANCH  10  13
ATOM     13  C   LIG    1        6.701  -2.016  -0.315  0.00  0.00    -0.050 A 
ATOM     14  C   LIG    1        5.808  -2.807  -1.036  0.00  0.00    +0.010 A 
ATOM     15  C   LIG    1        6.006  -4.170  -1.117  0.00  0.00    +0.000 A 
ATOM     16  C   LIG    1        7.082  -4.754  -0.473  0.00  0.00    +0.000 A 
ATOM     17  C   LIG    1        7.969  -3.975   0.250  0.00  0.00    +0.000 A 
ATOM     18  C   LIG    1        7.784  -2.610   0.332  0.00  0.00    +0.020 A 
ENDBRANCH  10  13
ENDBRANCH   5   7
BRANCH   1  20
ATOM     19  C   LIG    1        2.776   8.305  -0.501  0.00  0.00    +0.030 C 
ATOM     20  C   LIG    1        3.631   7.733   0.631  0.00  0.00    +0.210 C 
ENDBRANCH   1  20
BRANCH   6  21
ATOM     21  N   LIG    1        3.570   3.365   0.556  0.00  0.00    -0.210 NA
ATOM     22  C   LIG    1        2.509   3.479  -0.184  0.00  0.00    +0.290 C 
BRANCH  22  23
ATOM     23  C   LIG    1        1.297   2.705   0.141  0.00  0.00    -0.040 A 
ATOM     24  C   LIG    1        0.134   2.872  -0.614  0.00  0.00    +0.060 A 
ATOM     25  C   LIG    1       -0.997   2.144  -0.304  0.00  0.00    +0.030 A 
ATOM     26  C   LIG    1       -0.978   1.246   0.749  0.00  0.00    +0.050 A 
ATOM     27  C   LIG    1        0.169   1.079   1.504  0.00  0.00    +0.040 A 
ATOM     28  C   LIG    1        1.307   1.799   1.206  0.00  0.00    -0.070 A 
ATOM     29  I   LIG    1        3.045   1.538   2.346  0.00  0.00    +0.020 I 
ENDBRANCH  22  23
ENDBRANCH   6  21
TORSDOF 5
