REMARK  Name = ZINCpk00000y6y5Q.2
REMARK                            x       y       z     vdW  Elec       q    Type
REMARK                         _______ _______ _______ _____ _____    ______ ____
ROOT
ATOM      1  C   LIG    1       -1.524   8.310   2.851  0.00  0.00    +0.270 C 
ENDROOT
BRANCH   1   7
ATOM      2  C   LIG    1       -0.928  11.201   1.700  0.00  0.00    +0.160 C 
ATOM      3  C   LIG    1       -0.209  10.541   2.848  0.00  0.00    +0.110 A 
ATOM      4  N   LIG    1        0.770  11.064   3.542  0.00  0.00    -0.290 NA
ATOM      5  N   LIG    1        1.162  10.135   4.515  0.00  0.00    -0.320 N 
ATOM      6  C   LIG    1        0.380   9.040   4.382  0.00  0.00    +0.230 A 
ATOM      7  C   LIG    1       -0.472   9.264   3.355  0.00  0.00    -0.220 A 
BRANCH   5   8
ATOM      8  C   LIG    1        2.181  10.312   5.461  0.00  0.00    +0.160 A 
ATOM      9  C   LIG    1        2.462   9.306   6.376  0.00  0.00    -0.010 A 
ATOM     10  C   LIG    1        3.470   9.481   7.304  0.00  0.00    +0.040 A 
ATOM     11  C   LIG    1        4.191  10.661   7.330  0.00  0.00    +0.000 A 
ATOM     12  C   LIG    1        3.909  11.666   6.424  0.00  0.00    +0.040 A 
ATOM     13  C   LIG    1        2.906  11.495   5.490  0.00  0.00    +0.020 A 
ENDBRANCH   5   8
ENDBRANCH   1   7
BRANCH   1  14
ATOM     14  N   LIG    1       -1.029   7.627   1.648  0.00  0.00    -0.520 NA
ATOM     15  C   LIG    1        0.327   7.082   1.868  0.00  0.00    +0.180 C 
ATOM     16  C   LIG    1        0.371   5.779   1.030  0.00  0.00    +0.030 C 
ATOM     17  C   LIG    1       -1.069   5.236   1.221  0.00  0.00    +0.100 C 
ATOM     18  C   LIG    1       -1.923   6.520   1.263  0.00  0.00    +0.240 C 
BRANCH  17  19
ATOM     19  O   LIG    1       -1.182   4.514   2.450  0.00  0.00    -0.540 OA
ATOM     20  H   LIG    1       -0.635   3.717   2.489  0.00  0.00    +0.380 HD
ENDBRANCH  17  19
BRANCH  17  21
ATOM     21  C   LIG    1       -1.476   4.354   0.039  0.00  0.00    +0.320 C 
BRANCH  21  22
ATOM     22  N   LIG    1       -0.650   3.144   0.025  0.00  0.00    -0.300 N 
ATOM     23  C   LIG    1       -1.108   1.871   0.017  0.00  0.00    +0.140 A 
ATOM     24  C   LIG    1       -0.013   1.076   0.008  0.00  0.00    +0.140 A 
ATOM     25  N   LIG    1        1.048   1.891   0.002  0.00  0.00    -0.270 NA
ATOM     26  N   LIG    1        0.637   3.110   0.013  0.00  0.00    -0.080 NA
ENDBRANCH  21  22
ENDBRANCH  17  21
ENDBRANCH   1  14
TORSDOF 6
