REMARK  Name = ZINCrg00000SjSn1.0
REMARK                            x       y       z     vdW  Elec       q    Type
REMARK                         _______ _______ _______ _____ _____    ______ ____
ROOT
ATOM      1  N   LIG    1        1.312  -0.345  -0.012  0.00  0.00    -0.560 N 
ATOM      2  C   LIG    1        0.004  -0.007   0.010  0.00  0.00    +0.510 C 
ATOM      3  C   LIG    1       -0.020   1.493   0.015  0.00  0.00    +0.510 C 
ATOM      4  N   LIG    1        1.276   1.873  -0.005  0.00  0.00    -0.570 N 
ATOM      5  O   LIG    1       -0.997   2.212   0.028  0.00  0.00    -0.400 OA
ATOM      6  O   LIG    1       -0.949  -0.757   0.024  0.00  0.00    -0.400 OA
ATOM      7  C   LIG    1        2.050   0.777  -0.021  0.00  0.00    +0.720 C 
ATOM      8  O   LIG    1        3.265   0.796  -0.039  0.00  0.00    -0.480 OA
ENDROOT
BRANCH   1   9
ATOM      9  C   LIG    1        1.838  -1.712  -0.024  0.00  0.00    +0.380 C 
BRANCH   9  12
ATOM     10  N   LIG    1        2.468  -3.413  -1.706  0.00  0.00    -0.660 N 
ATOM     11  H   LIG    1        2.769  -3.978  -0.978  0.00  0.00    +0.410 HD
ATOM     12  C   LIG    1        1.996  -2.177  -1.449  0.00  0.00    +0.500 C 
ATOM     13  O   LIG    1        1.698  -1.439  -2.364  0.00  0.00    -0.510 OA
BRANCH  10  18
ATOM     14  C   LIG    1        2.696  -5.308  -7.048  0.00  0.00    +0.090 C 
ATOM     15  C   LIG    1        2.635  -4.804  -5.629  0.00  0.00    -0.100 A 
ATOM     16  C   LIG    1        2.869  -3.468  -5.361  0.00  0.00    +0.030 A 
ATOM     17  C   LIG    1        2.815  -3.003  -4.061  0.00  0.00    +0.030 A 
ATOM     18  C   LIG    1        2.524  -3.880  -3.024  0.00  0.00    +0.130 A 
ATOM     19  C   LIG    1        2.295  -5.222  -3.296  0.00  0.00    -0.010 A 
ATOM     20  C   LIG    1        2.345  -5.679  -4.599  0.00  0.00    +0.030 A 
ENDBRANCH  10  18
ENDBRANCH   9  12
ENDBRANCH   1   9
BRANCH   4  21
ATOM     21  C   LIG    1        1.758   3.257  -0.009  0.00  0.00    +0.340 C 
BRANCH  21  22
ATOM     22  C   LIG    1        1.949   3.735   1.432  0.00  0.00    +0.000 C 
BRANCH  22  23
ATOM     23  C   LIG    1        2.452   5.179   1.428  0.00  0.00    +0.310 C 
BRANCH  23  24
ATOM     24  N   LIG    1        2.635   5.637   2.808  0.00  0.00    -0.460 N 
ATOM     25  C   LIG    1        3.777   5.528   3.554  0.00  0.00    +0.110 A 
ATOM     26  C   LIG    1        3.510   6.072   4.757  0.00  0.00    +0.140 A 
ATOM     27  N   LIG    1        2.240   6.502   4.744  0.00  0.00    -0.490 NA
ATOM     28  C   LIG    1        1.711   6.250   3.578  0.00  0.00    +0.380 A 
ENDBRANCH  23  24
ENDBRANCH  22  23
ENDBRANCH  21  22
ENDBRANCH   4  21
TORSDOF 7
