REMARK  Name = ZINCrg000000thG7.0
REMARK                            x       y       z     vdW  Elec       q    Type
REMARK                         _______ _______ _______ _____ _____    ______ ____
ROOT
ATOM      1  O   LIG    1        4.963  -0.210  -6.197  0.00  0.00    -0.520 OA
ATOM      2  C   LIG    1        4.299  -1.041  -5.615  0.00  0.00    +0.510 C 
ATOM      3  N   LIG    1        3.962  -0.852  -4.324  0.00  0.00    -0.600 N 
ATOM      4  C   LIG    1        4.393   0.358  -3.608  0.00  0.00    +0.290 C 
ATOM      5  C   LIG    1        5.151  -0.065  -2.344  0.00  0.00    +0.310 C 
ATOM      6  N   LIG    1        4.347  -1.064  -1.626  0.00  0.00    -1.000 NA
ATOM      7  C   LIG    1        3.921  -2.276  -2.340  0.00  0.00    +0.300 C 
ATOM      8  C   LIG    1        3.158  -1.851  -3.606  0.00  0.00    +0.280 C 
ENDROOT
BRANCH   6   9
ATOM      9  S   LIG    1        3.934  -0.832  -0.039  0.00  0.00    +2.690 S 
ATOM     10  O   LIG    1        3.679  -2.121   0.502  0.00  0.00    -0.950 OA
ATOM     11  O   LIG    1        4.899   0.061   0.500  0.00  0.00    -0.950 OA
BRANCH   9  12
ATOM     12  C   LIG    1        2.396   0.029  -0.021  0.00  0.00    -0.680 A 
ATOM     13  C   LIG    1        1.208  -0.679  -0.013  0.00  0.00    +0.120 A 
ATOM     14  C   LIG    1        0.002  -0.004   0.002  0.00  0.00    -0.010 A 
ATOM     15  C   LIG    1       -0.017   1.378   0.010  0.00  0.00    +0.070 A 
ATOM     16  C   LIG    1        1.171   2.086   0.002  0.00  0.00    -0.010 A 
ATOM     17  C   LIG    1        2.377   1.411  -0.015  0.00  0.00    +0.120 A 
ENDBRANCH   9  12
ENDBRANCH   6   9
BRANCH   2  18
ATOM     18  C   LIG    1        3.850  -2.286  -6.336  0.00  0.00    +0.370 C 
BRANCH  18  19
ATOM     19  N   LIG    1        4.341  -2.255  -7.716  0.00  0.00    -0.330 N 
ATOM     20  N   LIG    1        3.613  -1.718  -8.626  0.00  0.00    -0.190 NA
ATOM     21  C   LIG    1        3.985  -1.654  -9.874  0.00  0.00    +0.270 A 
ATOM     22  C   LIG    1        5.224  -2.183 -10.276  0.00  0.00    +0.010 A 
ATOM     23  C   LIG    1        6.021  -2.762  -9.325  0.00  0.00    -0.110 A 
ATOM     24 CL   LIG    1        7.565  -3.438  -9.738  0.00  0.00    +0.020 Cl
ATOM     25 CL   LIG    1        5.731  -2.104 -11.934  0.00  0.00    -0.000 Cl
ATOM     26  C   LIG    1        5.546  -2.786  -7.995  0.00  0.00    +0.500 A 
ATOM     27  O   LIG    1        6.220  -3.286  -7.109  0.00  0.00    -0.500 OA
ENDBRANCH  18  19
ENDBRANCH   2  18
TORSDOF 4
