REMARK  Name = ZINCrH00000tj1im.0
REMARK                            x       y       z     vdW  Elec       q    Type
REMARK                         _______ _______ _______ _____ _____    ______ ____
ROOT
ATOM      1  C   LIG    1       -3.591   2.599   3.133  0.00  0.00    +0.420 C 
ATOM      2  O   LIG    1       -3.714   2.965   4.284  0.00  0.00    -0.420 OA
ENDROOT
BRANCH   1   7
ATOM      3  C   LIG    1       -0.117   1.842   2.465  0.00  0.00    -0.220 A 
ATOM      4  C   LIG    1       -0.718   1.572   1.248  0.00  0.00    +0.140 A 
ATOM      5  N   LIG    1       -2.032   1.820   1.354  0.00  0.00    -0.520 N 
ATOM      6  H   LIG    1       -2.682   1.714   0.642  0.00  0.00    +0.430 HD
ATOM      7  C   LIG    1       -2.313   2.245   2.636  0.00  0.00    -0.100 A 
ATOM      8  C   LIG    1       -0.013   1.086   0.008  0.00  0.00    +0.150 C 
ATOM      9  C   LIG    1       -1.132   2.270   3.346  0.00  0.00    +0.000 A 
ATOM     10  C   LIG    1       -0.959   2.677   4.787  0.00  0.00    +0.140 C 
BRANCH   3  11
ATOM     11  C   LIG    1        1.316   1.708   2.781  0.00  0.00    +0.550 C 
ATOM     12  O   LIG    1        2.066   2.649   2.612  0.00  0.00    -0.490 OA
BRANCH  11  14
ATOM     13  C   LIG    1        3.215   0.481   3.548  0.00  0.00    +0.260 C 
ATOM     14  O   LIG    1        1.794   0.542   3.258  0.00  0.00    -0.350 OA
ENDBRANCH  11  14
ENDBRANCH   3  11
ENDBRANCH   1   7
BRANCH   1  15
ATOM     15  C   LIG    1       -4.797   2.521   2.234  0.00  0.00    +0.240 C 
BRANCH  15  16
ATOM     16  O   LIG    1       -5.978   2.932   2.972  0.00  0.00    -0.330 OA
BRANCH  16  17
ATOM     17  C   LIG    1       -7.146   2.919   2.310  0.00  0.00    +0.480 C 
ATOM     18  O   LIG    1       -7.180   2.576   1.152  0.00  0.00    -0.480 OA
BRANCH  17  19
ATOM     19  C   LIG    1       -8.414   3.333   3.011  0.00  0.00    +0.150 C 
BRANCH  19  20
ATOM     20  S   LIG    1       -9.810   3.209   1.858  0.00  0.00    -0.170 S 
BRANCH  20  21
ATOM     21  C   LIG    1      -11.221   3.739   2.868  0.00  0.00    +0.140 C 
BRANCH  21  22
ATOM     22  C   LIG    1      -12.478   3.690   2.039  0.00  0.00    -0.070 A 
ATOM     23  C   LIG    1      -12.877   4.803   1.322  0.00  0.00    +0.050 A 
ATOM     24  C   LIG    1      -14.027   4.757   0.558  0.00  0.00    +0.030 A 
ATOM     25  C   LIG    1      -14.786   3.601   0.519  0.00  0.00    -0.030 A 
ATOM     26  C   LIG    1      -14.389   2.489   1.240  0.00  0.00    +0.030 A 
ATOM     27 CL   LIG    1      -16.235   3.546  -0.435  0.00  0.00    -0.070 Cl
ATOM     28  C   LIG    1      -13.236   2.534   2.000  0.00  0.00    +0.050 A 
ENDBRANCH  21  22
ENDBRANCH  20  21
ENDBRANCH  19  20
ENDBRANCH  17  19
ENDBRANCH  16  17
ENDBRANCH  15  16
ENDBRANCH   1  15
TORSDOF 10
