REMARK  Name = ZINCvU0000000ILN.0
REMARK                            x       y       z     vdW  Elec       q    Type
REMARK                         _______ _______ _______ _____ _____    ______ ____
ROOT
ATOM      1  N   LIG    1       -0.020   1.094   2.454  0.00  0.00    -0.530 N 
ATOM      2  C   LIG    1       -0.362  -0.095   3.006  0.00  0.00    +0.640 A 
ATOM      3  N   LIG    1        0.240  -0.575   4.059  0.00  0.00    -0.530 NA
ATOM      4  C   LIG    1        1.233   0.096   4.664  0.00  0.00    +0.420 A 
ATOM      5  C   LIG    1        1.627   1.333   4.142  0.00  0.00    -0.280 A 
ATOM      6  C   LIG    1        2.716   1.827   4.996  0.00  0.00    +0.160 A 
ATOM      7  N   LIG    1        3.455   2.921   4.981  0.00  0.00    -0.380 NA
ATOM      8  C   LIG    1        4.395   3.096   5.915  0.00  0.00    +0.080 A 
ATOM      9  C   LIG    1        5.196   4.252   5.924  0.00  0.00    +0.060 A 
ATOM     10  C   LIG    1        6.146   4.407   6.886  0.00  0.00    +0.040 A 
ATOM     11  C   LIG    1        6.339   3.436   7.867  0.00  0.00    +0.050 A 
ATOM     12  C   LIG    1        5.583   2.305   7.890  0.00  0.00    +0.050 A 
ATOM     13  C   LIG    1        4.591   2.107   6.914  0.00  0.00    +0.120 A 
ATOM     14  N   LIG    1        3.836   1.003   6.918  0.00  0.00    -0.430 NA
ATOM     15  C   LIG    1        2.910   0.835   5.995  0.00  0.00    +0.300 A 
ATOM     16  N   LIG    1        2.005  -0.184   5.763  0.00  0.00    -0.410 N 
ATOM     17  C   LIG    1        0.969   1.836   2.999  0.00  0.00    +0.560 A 
ATOM     18  O   LIG    1        1.285   2.910   2.517  0.00  0.00    -0.500 OA
ENDROOT
BRANCH  16  19
ATOM     19  C   LIG    1        1.893  -1.343   6.542  0.00  0.00    +0.110 A 
ATOM     20  C   LIG    1        0.736  -1.581   7.273  0.00  0.00    +0.040 A 
ATOM     21  C   LIG    1        0.625  -2.727   8.035  0.00  0.00    +0.020 A 
ATOM     22  C   LIG    1        1.670  -3.632   8.081  0.00  0.00    -0.070 A 
ATOM     23  C   LIG    1        2.826  -3.395   7.359  0.00  0.00    +0.020 A 
ATOM     24  C   LIG    1        1.548  -4.879   8.918  0.00  0.00    +0.100 C 
ATOM     25  C   LIG    1        2.940  -2.254   6.590  0.00  0.00    +0.040 A 
ENDBRANCH  16  19
BRANCH   1  26
ATOM     26  C   LIG    1       -0.729   1.579   1.267  0.00  0.00    +0.300 C 
BRANCH  26  27
ATOM     27  C   LIG    1       -0.013   1.086   0.008  0.00  0.00    +0.000 C 
BRANCH  27  28
ATOM     28  C   LIG    1       -0.753   1.593  -1.232  0.00  0.00    +0.020 C 
BRANCH  28  29
ATOM     29  C   LIG    1       -0.037   1.099  -2.490  0.00  0.00    +0.000 C 
BRANCH  29  31
ATOM     30  C   LIG    1       -0.060   1.113  -4.989  0.00  0.00    -0.010 C 
ATOM     31  C   LIG    1       -0.777   1.606  -3.730  0.00  0.00    -0.010 C 
ENDBRANCH  29  31
ENDBRANCH  28  29
ENDBRANCH  27  28
ENDBRANCH  26  27
ENDBRANCH   1  26
TORSDOF 6
