REMARK  Name = ZINCrH000004suJW.0
REMARK                            x       y       z     vdW  Elec       q    Type
REMARK                         _______ _______ _______ _____ _____    ______ ____
ROOT
ATOM      1  N   LIG    1        0.158  -1.838   1.654  0.00  0.00    -0.630 N 
ATOM      2  H   LIG    1        0.108  -2.466   0.916  0.00  0.00    +0.420 HD
ATOM      3  C   LIG    1        0.120  -0.512   1.416  0.00  0.00    +0.500 C 
ATOM      4  O   LIG    1        0.182   0.272   2.339  0.00  0.00    -0.440 OA
ENDROOT
BRANCH   3   5
ATOM      5  C   LIG    1        0.002  -0.004   0.002  0.00  0.00    +0.070 C 
ATOM      6  C   LIG    1        1.197  -0.494  -0.817  0.00  0.00    +0.100 C 
ATOM      7  C   LIG    1        2.444   0.231  -0.389  0.00  0.00    +0.520 C 
ATOM      8  N   LIG    1        2.395   1.522  -0.013  0.00  0.00    -0.660 N 
ATOM      9  H   LIG    1        3.209   1.979   0.248  0.00  0.00    +0.420 HD
ATOM     10  C   LIG    1        1.177   2.210   0.003  0.00  0.00    +0.210 A 
ATOM     11  C   LIG    1        1.160   3.597   0.011  0.00  0.00    -0.050 A 
ATOM     12  C   LIG    1       -0.048   4.272   0.026  0.00  0.00    +0.140 A 
ATOM     13  C   LIG    1       -1.238   3.562   0.033  0.00  0.00    -0.030 A 
ATOM     14  C   LIG    1       -1.221   2.180   0.020  0.00  0.00    +0.100 A 
ATOM     15  F   LIG    1       -0.067   5.622   0.035  0.00  0.00    -0.130 F 
ATOM     16  O   LIG    1        3.506  -0.355  -0.384  0.00  0.00    -0.510 OA
ATOM     17  C   LIG    1       -0.018   1.502   0.010  0.00  0.00    -0.120 A 
ENDBRANCH   3   5
BRANCH   1  22
ATOM     18  C   LIG    1        0.533  -1.413   6.479  0.00  0.00    +0.170 C 
ATOM     19  C   LIG    1        0.440  -2.160   5.173  0.00  0.00    +0.150 A 
ATOM     20  C   LIG    1        0.452  -3.508   5.098  0.00  0.00    -0.230 A 
ATOM     21  S   LIG    1        0.324  -3.956   3.399  0.00  0.00    +0.160 S 
ATOM     22  C   LIG    1        0.266  -2.306   2.956  0.00  0.00    +0.280 A 
ATOM     23  N   LIG    1        0.344  -1.554   4.011  0.00  0.00    -0.470 NA
BRANCH  20  24
ATOM     24  C   LIG    1        0.555  -4.440   6.237  0.00  0.00    +0.220 A 
ATOM     25  C   LIG    1        0.557  -5.818   6.007  0.00  0.00    -0.040 A 
ATOM     26  C   LIG    1        0.654  -6.678   7.085  0.00  0.00    +0.080 A 
ATOM     27  C   LIG    1        0.747  -6.136   8.361  0.00  0.00    -0.040 A 
ATOM     28  C   LIG    1        0.740  -4.763   8.517  0.00  0.00    +0.270 A 
ATOM     29  N   LIG    1        0.652  -3.963   7.474  0.00  0.00    -0.470 NA
ENDBRANCH  20  24
ENDBRANCH   1  22
TORSDOF 3
