REMARK  Name = ZINCrH000004k3i6.0
REMARK                            x       y       z     vdW  Elec       q    Type
REMARK                         _______ _______ _______ _____ _____    ______ ____
ROOT
ATOM      1  N   LIG    1        3.584   2.137  -0.021  0.00  0.00    -0.680 N 
ATOM      2  H   LIG    1        4.430   1.668   0.051  0.00  0.00    +0.400 HD
ATOM      3  C   LIG    1        3.565   3.481  -0.115  0.00  0.00    +0.710 C 
ATOM      4  N   LIG    1        4.720   4.166  -0.225  0.00  0.00    -0.730 N 
ATOM      5  H   LIG    1        5.566   3.691  -0.235  0.00  0.00    +0.400 HD
ATOM      6  O   LIG    1        2.504   4.077  -0.102  0.00  0.00    -0.560 OA
ENDROOT
BRANCH   1  12
ATOM      7  C   LIG    1        2.319   0.155   0.565  0.00  0.00    +0.090 A 
ATOM      8  C   LIG    1        1.127  -0.553   0.556  0.00  0.00    +0.030 A 
ATOM      9  C   LIG    1        0.004  -0.007  -0.038  0.00  0.00    -0.010 A 
ATOM     10  C   LIG    1        0.066   1.243  -0.625  0.00  0.00    +0.040 A 
ATOM     11  C   LIG    1        1.251   1.956  -0.620  0.00  0.00    +0.020 A 
ATOM     12  C   LIG    1        2.381   1.417  -0.026  0.00  0.00    +0.200 A 
BRANCH   7  14
ATOM     13  C   LIG    1        4.319  -1.305   0.407  0.00  0.00    +0.310 C 
ATOM     14  N   LIG    1        3.457  -0.395   1.166  0.00  0.00    -0.960 N 
BRANCH  14  15
ATOM     15  S   LIG    1        3.830  -0.018   2.735  0.00  0.00    +2.590 S 
ATOM     16  O   LIG    1        3.236   1.258   2.939  0.00  0.00    -0.930 OA
ATOM     17  O   LIG    1        5.238  -0.191   2.812  0.00  0.00    -0.950 OA
ATOM     18  C   LIG    1        2.978  -1.281   3.719  0.00  0.00    -0.280 C 
ENDBRANCH  14  15
ENDBRANCH   7  14
ENDBRANCH   1  12
BRANCH   4  19
ATOM     19  C   LIG    1        4.699   5.627  -0.327  0.00  0.00    +0.310 C 
BRANCH  19  20
ATOM     20  C   LIG    1        6.009   6.185   0.167  0.00  0.00    -0.090 A 
ATOM     21  C   LIG    1        7.194   5.541  -0.139  0.00  0.00    +0.000 A 
ATOM     22  C   LIG    1        8.396   6.054   0.311  0.00  0.00    +0.000 A 
ATOM     23  C   LIG    1        8.412   7.207   1.074  0.00  0.00    +0.000 A 
ATOM     24  C   LIG    1        7.228   7.848   1.385  0.00  0.00    +0.010 A 
ATOM     25  C   LIG    1        6.026   7.336   0.931  0.00  0.00    +0.020 A 
ENDBRANCH  19  20
BRANCH  19  26
ATOM     26  C   LIG    1        4.491   6.033  -1.788  0.00  0.00    -0.030 C 
ATOM     27  C   LIG    1        3.954   7.464  -1.959  0.00  0.00    +0.020 C 
ATOM     28  C   LIG    1        3.060   6.907  -3.082  0.00  0.00    +0.010 C 
ATOM     29  C   LIG    1        3.159   5.543  -2.379  0.00  0.00    +0.030 C 
ENDBRANCH  19  26
ENDBRANCH   4  19
TORSDOF 6
