REMARK  Name = ZINCrH000004t474.0
REMARK                            x       y       z     vdW  Elec       q    Type
REMARK                         _______ _______ _______ _____ _____    ______ ____
ROOT
ATOM      1  C   LIG    1        0.723   1.245  -2.112  0.00  0.00    +0.590 C 
ATOM      2  N   LIG    1       -0.146   0.605  -1.304  0.00  0.00    -0.610 N 
ATOM      3  C   LIG    1       -1.280  -0.150  -1.859  0.00  0.00    +0.240 C 
ATOM      4  C   LIG    1       -2.558   0.297  -1.140  0.00  0.00    +0.210 C 
ATOM      5  O   LIG    1       -2.360   0.201   0.273  0.00  0.00    -0.370 OA
ATOM      6  C   LIG    1       -1.327   1.050   0.780  0.00  0.00    +0.230 C 
ATOM      7  C   LIG    1        0.012   0.641   0.158  0.00  0.00    +0.250 C 
ATOM      8  O   LIG    1        1.729   1.748  -1.647  0.00  0.00    -0.490 OA
ENDROOT
BRANCH   1  16
ATOM      9  C   LIG    1        2.157   1.679  -7.859  0.00  0.00    +0.310 C 
ATOM     10  N   LIG    1        0.883   1.593  -7.140  0.00  0.00    -0.460 N 
ATOM     11  C   LIG    1       -0.356   1.596  -7.712  0.00  0.00    +0.230 A 
ATOM     12  C   LIG    1       -1.291   1.503  -6.747  0.00  0.00    -0.070 A 
ATOM     13  C   LIG    1       -0.630   1.437  -5.503  0.00  0.00    +0.040 A 
ATOM     14  N   LIG    1       -0.792   1.340  -4.142  0.00  0.00    -0.550 N 
ATOM     15  H   LIG    1       -1.641   1.283  -3.675  0.00  0.00    +0.420 HD
ATOM     16  C   LIG    1        0.456   1.335  -3.550  0.00  0.00    -0.010 A 
ATOM     17  C   LIG    1        1.407   1.437  -4.541  0.00  0.00    +0.060 A 
ATOM     18  C   LIG    1        0.737   1.495  -5.769  0.00  0.00    -0.010 A 
ENDBRANCH   1  16
BRANCH   7  19
ATOM     19  C   LIG    1        1.073   1.645   0.530  0.00  0.00    -0.020 A 
ATOM     20  C   LIG    1        0.873   2.988   0.272  0.00  0.00    +0.030 A 
ATOM     21  C   LIG    1        1.843   3.910   0.617  0.00  0.00    +0.070 A 
ATOM     22  C   LIG    1        3.018   3.487   1.210  0.00  0.00    -0.180 A 
ATOM     23  C   LIG    1        3.220   2.143   1.463  0.00  0.00    +0.070 A 
ATOM     24  C   LIG    1        2.248   1.222   1.123  0.00  0.00    +0.020 A 
BRANCH  22  25
ATOM     25  C   LIG    1        4.079   4.492   1.582  0.00  0.00    +0.510 C 
ATOM     26  F   LIG    1        4.788   4.030   2.696  0.00  0.00    -0.180 F 
ATOM     27  F   LIG    1        3.474   5.716   1.888  0.00  0.00    -0.180 F 
ATOM     28  F   LIG    1        4.957   4.662   0.507  0.00  0.00    -0.180 F 
ENDBRANCH  22  25
ENDBRANCH   7  19
TORSDOF 3
