REMARK  Name = ZINCpe00000MJLfd.0
REMARK                            x       y       z     vdW  Elec       q    Type
REMARK                         _______ _______ _______ _____ _____    ______ ____
ROOT
ATOM      1  N   LIG    1       -1.091  -0.528  -0.821  0.00  0.00    -1.100 NA
ATOM      2  H   LIG    1       -1.367  -0.052  -1.620  0.00  0.00    +0.420 HD
ENDROOT
BRANCH   1   7
ATOM      3  C   LIG    1       -0.019   1.541   0.011  0.00  0.00    +0.240 C 
ATOM      4  O   LIG    1        1.372   1.929  -0.001  0.00  0.00    -0.360 OA
ATOM      5  C   LIG    1        2.015   1.015  -0.917  0.00  0.00    +0.200 C 
ATOM      6  C   LIG    1        1.371  -0.357  -0.622  0.00  0.00    +0.010 C 
ATOM      7  C   LIG    1        0.002  -0.004   0.002  0.00  0.00    +0.230 C 
BRANCH   3  10
ATOM      8  N   LIG    1       -2.207   2.800   2.642  0.00  0.00    -0.370 N 
ATOM      9  C   LIG    1       -1.997   2.403   1.369  0.00  0.00    +0.240 A 
ATOM     10  C   LIG    1       -0.695   2.049   1.257  0.00  0.00    -0.240 A 
ATOM     11  C   LIG    1       -0.088   2.245   2.502  0.00  0.00    +0.250 A 
ATOM     12  N   LIG    1       -0.993   2.695   3.333  0.00  0.00    -0.290 NA
BRANCH   8  14
ATOM     13  C   LIG    1       -3.828   2.430   4.436  0.00  0.00    +0.040 C 
ATOM     14  C   LIG    1       -3.479   3.264   3.201  0.00  0.00    +0.310 C 
ENDBRANCH   8  14
ENDBRANCH   3  10
ENDBRANCH   1   7
BRANCH   1  15
ATOM     15  S   LIG    1       -1.855  -1.931  -0.386  0.00  0.00    +2.690 S 
ATOM     16  O   LIG    1       -0.832  -2.877  -0.110  0.00  0.00    -0.940 OA
ATOM     17  O   LIG    1       -2.875  -2.149  -1.352  0.00  0.00    -0.950 OA
BRANCH  15  18
ATOM     18  C   LIG    1       -2.676  -1.626   1.143  0.00  0.00    -0.680 A 
ATOM     19  C   LIG    1       -3.978  -1.157   1.146  0.00  0.00    +0.160 A 
ATOM     20  C   LIG    1       -4.630  -0.915   2.342  0.00  0.00    +0.000 A 
ATOM     21  C   LIG    1       -3.984  -1.139   3.541  0.00  0.00    +0.100 A 
ATOM     22  C   LIG    1       -2.671  -1.613   3.544  0.00  0.00    -0.150 A 
ATOM     23  C   LIG    1       -2.022  -1.861   2.334  0.00  0.00    +0.190 A 
BRANCH  22  24
ATOM     24  C   LIG    1       -1.973  -1.856   4.825  0.00  0.00    +0.560 C 
ATOM     25  O   LIG    1       -0.830  -2.268   4.825  0.00  0.00    -0.530 OA
ATOM     26  N   LIG    1       -2.605  -1.620   5.992  0.00  0.00    -0.850 N 
ATOM     27  H   LIG    1       -2.147  -1.780   6.832  0.00  0.00    +0.410 HD
ATOM     28  H   LIG    1       -3.518  -1.291   5.992  0.00  0.00    +0.400 HD
ENDBRANCH  22  24
ENDBRANCH  15  18
ENDBRANCH   1  15
TORSDOF 6
