REMARK  Name = ZINCvU0000000H5R.0
REMARK                            x       y       z     vdW  Elec       q    Type
REMARK                         _______ _______ _______ _____ _____    ______ ____
ROOT
ATOM      1  C   LIG    1        8.209   2.744  -0.092  0.00  0.00    +0.280 A 
ATOM      2  N   LIG    1        7.256   3.623  -0.075  0.00  0.00    -0.470 NA
ATOM      3  C   LIG    1        6.019   3.163  -0.062  0.00  0.00    +0.090 A 
ATOM      4  C   LIG    1        5.922   1.832  -0.063  0.00  0.00    -0.070 A 
ATOM      5  S   LIG    1        7.553   1.165  -0.093  0.00  0.00    +0.150 S 
ENDROOT
BRANCH   1   8
ATOM      6  C   LIG    1       11.443   4.639  -0.341  0.00  0.00    +0.110 C 
ATOM      7  C   LIG    1        9.975   4.323  -0.208  0.00  0.00    +0.510 C 
ATOM      8  N   LIG    1        9.568   3.043  -0.108  0.00  0.00    -0.480 N 
ATOM      9  O   LIG    1        9.161   5.222  -0.192  0.00  0.00    -0.470 OA
BRANCH   8  10
ATOM     10  C   LIG    1       10.512   2.012  -0.019  0.00  0.00    +0.080 A 
ATOM     11  C   LIG    1       10.978   1.601   1.223  0.00  0.00    -0.050 A 
ATOM     12  C   LIG    1       11.905   0.580   1.307  0.00  0.00    +0.010 A 
ATOM     13  C   LIG    1       12.377  -0.024   0.156  0.00  0.00    -0.050 A 
ATOM     14  C   LIG    1       11.920   0.388  -1.082  0.00  0.00    +0.010 A 
ATOM     15  C   LIG    1       13.393  -1.134   0.252  0.00  0.00    +0.100 C 
ATOM     16  C   LIG    1       10.469   2.263   2.477  0.00  0.00    +0.110 C 
ATOM     17  C   LIG    1       10.989   1.404  -1.173  0.00  0.00    -0.050 A 
ATOM     18  C   LIG    1       10.490   1.851  -2.522  0.00  0.00    +0.100 C 
ENDBRANCH   8  10
ENDBRANCH   1   8
BRANCH   3  19
ATOM     19  C   LIG    1        4.814   4.067  -0.042  0.00  0.00    +0.350 C 
BRANCH  19  20
ATOM     20  O   LIG    1        3.605   3.263  -0.032  0.00  0.00    -0.350 OA
BRANCH  20  21
ATOM     21  C   LIG    1        2.431   3.923  -0.013  0.00  0.00    +0.520 C 
ATOM     22  O   LIG    1        2.417   5.138  -0.006  0.00  0.00    -0.500 OA
BRANCH  21  23
ATOM     23  C   LIG    1        1.162   3.171  -0.001  0.00  0.00    -0.160 A 
ATOM     24  C   LIG    1        1.171   1.774  -0.009  0.00  0.00    +0.130 A 
ATOM     25  C   LIG    1       -0.012   1.075  -0.003  0.00  0.00    -0.010 A 
ATOM     26  C   LIG    1       -1.233   1.751   0.005  0.00  0.00    +0.150 A 
ATOM     27  O   LIG    1       -2.500   1.258   0.000  0.00  0.00    -0.300 OA
ATOM     28  C   LIG    1       -3.409   2.274   0.455  0.00  0.00    +0.240 C 
ATOM     29  C   LIG    1       -2.687   3.583   0.058  0.00  0.00    +0.090 C 
ATOM     30  C   LIG    1       -1.236   3.143   0.026  0.00  0.00    -0.190 A 
ATOM     31  C   LIG    1       -0.060   3.852   0.017  0.00  0.00    +0.140 A 
ENDBRANCH  21  23
ENDBRANCH  20  21
ENDBRANCH  19  20
ENDBRANCH   3  19
TORSDOF 6
