REMARK  Name = ZINCnE000001SAxb.0
REMARK                            x       y       z     vdW  Elec       q    Type
REMARK                         _______ _______ _______ _____ _____    ______ ____
ROOT
ATOM      1  N   LIG    1        2.385   1.523  -0.012  0.00  0.00    -0.680 NA
ATOM      2  C   LIG    1        1.111   1.915   0.002  0.00  0.00    +0.380 A 
ATOM      3  C   LIG    1       -0.013   1.076   0.008  0.00  0.00    -0.180 A 
ATOM      4  C   LIG    1       -1.140   1.872   0.017  0.00  0.00    +0.100 A 
ATOM      5  N   LIG    1       -0.738   3.189   0.026  0.00  0.00    -0.350 NA
ATOM      6  N   LIG    1        0.663   3.216   0.013  0.00  0.00    -0.490 N 
ATOM      7  H   LIG    1        1.219   4.011   0.012  0.00  0.00    +0.440 HD
ENDROOT
BRANCH   4   8
ATOM      8  C   LIG    1       -2.528   1.397   0.020  0.00  0.00    +0.150 A 
ATOM      9  C   LIG    1       -3.629   2.196   0.029  0.00  0.00    -0.040 A 
ATOM     10  C   LIG    1       -4.782   1.296   0.029  0.00  0.00    -0.120 A 
ATOM     11  C   LIG    1       -6.166   1.487   0.036  0.00  0.00    +0.040 A 
ATOM     12  C   LIG    1       -6.999   0.403   0.033  0.00  0.00    -0.020 A 
ATOM     13  C   LIG    1       -6.479  -0.883   0.024  0.00  0.00    +0.020 A 
ATOM     14  C   LIG    1       -5.116  -1.093   0.017  0.00  0.00    +0.030 A 
ATOM     15  C   LIG    1       -4.249  -0.007   0.020  0.00  0.00    +0.050 A 
ATOM     16  O   LIG    1       -2.906   0.102   0.009  0.00  0.00    -0.180 OA
ENDBRANCH   4   8
BRANCH   1  18
ATOM     17  O   LIG    1        3.092   3.620  -0.008  0.00  0.00    -0.650 OA
ATOM     18  C   LIG    1        3.364   2.432  -0.017  0.00  0.00    +0.500 C 
BRANCH  18  19
ATOM     19  C   LIG    1        4.779   1.996  -0.032  0.00  0.00    -0.130 A 
ATOM     20  C   LIG    1        5.813   2.938  -0.043  0.00  0.00    +0.100 A 
ATOM     21  C   LIG    1        7.119   2.479  -0.051  0.00  0.00    -0.060 A 
ATOM     22  C   LIG    1        7.357   1.117  -0.061  0.00  0.00    +0.240 A 
ATOM     23  N   LIG    1        6.361   0.251  -0.056  0.00  0.00    -0.500 NA
ATOM     24  C   LIG    1        5.103   0.639  -0.042  0.00  0.00    +0.320 A 
ENDBRANCH  18  19
ENDBRANCH   1  18
TORSDOF 3
