REMARK  Name = ZINCnE000001LH9L.1
REMARK                            x       y       z     vdW  Elec       q    Type
REMARK                         _______ _______ _______ _____ _____    ______ ____
ROOT
ATOM      1  N   LIG    1       -3.062   0.942  -1.339  0.00  0.00    -0.740 N 
ATOM      2  H   LIG    1       -2.589   1.378  -2.065  0.00  0.00    +0.390 HD
ATOM      3  C   LIG    1       -4.223   0.302  -1.579  0.00  0.00    +0.570 C 
ATOM      4  O   LIG    1       -4.816  -0.245  -0.669  0.00  0.00    -0.540 OA
ENDROOT
BRANCH   3   5
ATOM      5  C   LIG    1       -4.775   0.265  -2.945  0.00  0.00    -0.360 A 
ATOM      6  C   LIG    1       -5.976  -0.397  -3.189  0.00  0.00    +0.340 A 
ATOM      7  C   LIG    1       -6.494  -0.425  -4.500  0.00  0.00    -0.150 A 
ATOM      8  C   LIG    1       -7.700  -1.082  -4.789  0.00  0.00    +0.080 A 
ATOM      9  C   LIG    1       -8.174  -1.091  -6.066  0.00  0.00    -0.080 A 
ATOM     10  C   LIG    1       -7.478  -0.457  -7.092  0.00  0.00    +0.010 A 
ATOM     11  C   LIG    1       -6.304   0.190  -6.847  0.00  0.00    -0.050 A 
ATOM     12  C   LIG    1       -5.785   0.220  -5.543  0.00  0.00    +0.020 A 
ATOM     13  C   LIG    1       -4.574   0.881  -5.260  0.00  0.00    -0.180 A 
ATOM     14  O   LIG    1       -6.638  -1.009  -2.178  0.00  0.00    -0.640 OA
ATOM     15  C   LIG    1       -4.089   0.905  -3.994  0.00  0.00    +0.090 A 
ENDBRANCH   3   5
BRANCH   1  16
ATOM     16  C   LIG    1       -2.513   0.978   0.019  0.00  0.00    +0.320 C 
BRANCH  16  22
ATOM     17  C   LIG    1       -1.236   3.137   0.030  0.00  0.00    +0.140 A 
ATOM     18  C   LIG    1       -0.043   3.844   0.023  0.00  0.00    -0.080 A 
ATOM     19  C   LIG    1        1.161   3.165   0.008  0.00  0.00    +0.040 A 
ATOM     20  C   LIG    1        1.176   1.783   0.000  0.00  0.00    -0.040 A 
ATOM     21  C   LIG    1       -0.013   1.076   0.008  0.00  0.00    +0.070 A 
ATOM     22  C   LIG    1       -1.218   1.750   0.017  0.00  0.00    -0.130 A 
BRANCH  17  24
ATOM     23  C   LIG    1       -2.364   5.230   0.054  0.00  0.00    +0.230 C 
ATOM     24  O   LIG    1       -2.421   3.802   0.046  0.00  0.00    -0.300 OA
ENDBRANCH  17  24
ENDBRANCH  16  22
ENDBRANCH   1  16
TORSDOF 4
