REMARK  Name = ZINCrD000000C3ic.0
REMARK                            x       y       z     vdW  Elec       q    Type
REMARK                         _______ _______ _______ _____ _____    ______ ____
ROOT
ATOM      1  O   LIG    1       -1.983  -0.300   1.319  0.00  0.00    -0.560 OA
ATOM      2  C   LIG    1       -1.718   0.805   1.753  0.00  0.00    +0.710 C 
ATOM      3  N   LIG    1       -0.658   1.482   1.270  0.00  0.00    -0.730 N 
ATOM      4  H   LIG    1       -0.446   2.363   1.616  0.00  0.00    +0.400 HD
ATOM      5  N   LIG    1       -2.484   1.351   2.717  0.00  0.00    -0.680 N 
ATOM      6  H   LIG    1       -2.229   2.197   3.118  0.00  0.00    +0.410 HD
ENDROOT
BRANCH   5   7
ATOM      7  C   LIG    1       -3.649   0.697   3.142  0.00  0.00    +0.130 A 
ATOM      8  C   LIG    1       -4.055   0.795   4.471  0.00  0.00    +0.010 A 
ATOM      9  C   LIG    1       -5.197   0.159   4.904  0.00  0.00    +0.010 A 
ATOM     10  C   LIG    1       -5.958  -0.589   4.011  0.00  0.00    +0.080 A 
ATOM     11  N   LIG    1       -7.119  -1.321   4.140  0.00  0.00    -0.600 N 
ATOM     12  H   LIG    1       -7.623  -1.428   4.962  0.00  0.00    +0.420 HD
ATOM     13  C   LIG    1       -7.455  -1.875   2.935  0.00  0.00    +0.220 A 
ATOM     14  C   LIG    1       -6.550  -1.532   2.005  0.00  0.00    -0.050 A 
ATOM     15  C   LIG    1       -5.551  -0.690   2.669  0.00  0.00    -0.090 A 
ATOM     16  C   LIG    1       -4.394  -0.037   2.239  0.00  0.00    +0.070 A 
ENDBRANCH   5   7
BRANCH   3  17
ATOM     17  C   LIG    1        0.175   0.888   0.221  0.00  0.00    +0.270 C 
ATOM     18  C   LIG    1        1.588   1.517   0.230  0.00  0.00    +0.070 C 
ATOM     19  C   LIG    1        1.922   1.563  -1.277  0.00  0.00    +0.280 C 
ATOM     20  N   LIG    1        0.626   1.604  -1.965  0.00  0.00    -0.580 N 
ATOM     21  C   LIG    1       -0.372   1.225  -1.149  0.00  0.00    +0.510 C 
ATOM     22  O   LIG    1       -1.542   1.162  -1.464  0.00  0.00    -0.490 OA
BRANCH  20  23
ATOM     23  C   LIG    1        0.452   1.990  -3.301  0.00  0.00    +0.070 A 
ATOM     24  C   LIG    1        0.211   3.323  -3.615  0.00  0.00    +0.140 A 
ATOM     25  C   LIG    1        0.045   3.700  -4.936  0.00  0.00    -0.010 A 
ATOM     26  C   LIG    1        0.107   2.753  -5.941  0.00  0.00    +0.100 A 
ATOM     27  C   LIG    1        0.341   1.426  -5.632  0.00  0.00    -0.010 A 
ATOM     28  F   LIG    1        0.145   4.248  -2.634  0.00  0.00    -0.120 F 
ATOM     29  C   LIG    1        0.514   1.041  -4.314  0.00  0.00    +0.140 A 
ATOM     30  F   LIG    1        0.743  -0.256  -4.013  0.00  0.00    -0.120 F 
ENDBRANCH  20  23
ENDBRANCH   3  17
TORSDOF 3
