REMARK  Name = ZINCpk00001AZiqg.0
REMARK                            x       y       z     vdW  Elec       q    Type
REMARK                         _______ _______ _______ _____ _____    ______ ____
ROOT
ATOM      1  S   LIG    1       -1.931  -1.873   3.489  0.00  0.00    +2.730 S 
ATOM      2  O   LIG    1       -0.626  -1.671   4.014  0.00  0.00    -0.910 OA
ATOM      3  O   LIG    1       -2.390  -3.130   3.013  0.00  0.00    -0.910 OA
ENDROOT
BRANCH   1   4
ATOM      4  N   LIG    1       -2.099  -0.807   2.233  0.00  0.00    -0.860 NA
ATOM      5  O   LIG    1       -3.079  -0.886   1.208  0.00  0.00    -0.110 OA
ATOM      6  C   LIG    1       -3.299   0.449   0.712  0.00  0.00    +0.150 C 
ATOM      7  C   LIG    1       -3.644   0.385  -0.785  0.00  0.00    +0.060 C 
ATOM      8  C   LIG    1       -2.318   0.446  -1.559  0.00  0.00    +0.030 C 
ATOM      9  C   LIG    1       -1.194   0.510  -0.507  0.00  0.00    +0.040 C 
ATOM     10  C   LIG    1       -1.868   1.077   0.763  0.00  0.00    +0.030 C 
ATOM     11  C   LIG    1       -1.258   0.378   1.996  0.00  0.00    +0.290 C 
BRANCH  11  12
ATOM     12  C   LIG    1       -1.301   1.296   3.190  0.00  0.00    +0.440 C 
ATOM     13  O   LIG    1       -2.281   1.322   3.896  0.00  0.00    -0.480 OA
BRANCH  12  14
ATOM     14  O   LIG    1       -0.251   2.084   3.469  0.00  0.00    -0.350 OA
ATOM     15  C   LIG    1       -0.315   2.858   4.695  0.00  0.00    +0.280 C 
ENDBRANCH  12  14
ENDBRANCH  11  12
ENDBRANCH   1   4
BRANCH   1  20
ATOM     16  N   LIG    1       -4.368  -1.687   4.812  0.00  0.00    -0.300 N 
ATOM     17  N   LIG    1       -4.896  -1.099   5.969  0.00  0.00    -0.240 NA
ATOM     18  C   LIG    1       -3.934  -0.450   6.573  0.00  0.00    +0.090 A 
ATOM     19  C   LIG    1       -2.763  -0.609   5.825  0.00  0.00    +0.030 A 
ATOM     20  C   LIG    1       -3.057  -1.376   4.750  0.00  0.00    -0.490 A 
BRANCH  18  21
ATOM     21  C   LIG    1       -4.064   0.332   7.854  0.00  0.00    +0.040 C 
ATOM     22  C   LIG    1       -2.776   0.694   8.596  0.00  0.00    +0.030 C 
ATOM     23  C   LIG    1       -3.707  -0.384   9.159  0.00  0.00    +0.040 C 
ENDBRANCH  18  21
BRANCH  16  25
ATOM     24  C   LIG    1       -5.163  -3.950   4.330  0.00  0.00    +0.050 C 
ATOM     25  C   LIG    1       -5.109  -2.500   3.844  0.00  0.00    +0.310 C 
ENDBRANCH  16  25
ENDBRANCH   1  20
TORSDOF 6
