REMARK  Name = ZINCpe000000XrPW.0
REMARK                            x       y       z     vdW  Elec       q    Type
REMARK                         _______ _______ _______ _____ _____    ______ ____
ROOT
ATOM      1  C   UNK A  0       -4.688  -0.386  -0.255  0.00  0.00    +0.040 A 
ATOM      2  C   UNK A  0       -4.753   1.000  -0.254  0.00  0.00    +0.040 A 
ATOM      3  C   UNK A  0       -3.595   1.747  -0.164  0.00  0.00    +0.000 A 
ATOM      4  C   UNK A  0       -2.363   1.111  -0.073  0.00  0.00    +0.170 A 
ATOM      5  C   UNK A  0       -2.296  -0.277  -0.079  0.00  0.00    +0.000 A 
ATOM      6  C   UNK A  0       -3.455  -1.024  -0.164  0.00  0.00    +0.150 A 
ATOM      7  F   UNK A  0       -3.390  -2.374  -0.164  0.00  0.00    -0.120 F 
ENDROOT
BRANCH   1  11
ATOM      8  C   UNK A  0       -7.594  -3.213   0.791  0.00  0.00    +0.020 C 
ATOM      9  C   UNK A  0       -8.006  -1.744   0.670  0.00  0.00    +0.200 C 
ATOM     10  C   UNK A  0       -6.764  -0.855   0.778  0.00  0.00    +0.170 C 
ATOM     11  N   UNK A  0       -5.862  -1.143  -0.347  0.00  0.00    -0.490 N 
ATOM     12  C   UNK A  0       -6.540  -0.909  -1.631  0.00  0.00    +0.170 C 
ATOM     13  C   UNK A  0       -7.784  -1.798  -1.714  0.00  0.00    +0.160 C 
ATOM     14  C   UNK A  0       -8.537  -1.502  -3.013  0.00  0.00    +0.050 C 
ATOM     15  O   UNK A  0       -8.633  -1.527  -0.597  0.00  0.00    -0.380 OA
ENDBRANCH   1  11
BRANCH   4  16
ATOM     16  N   UNK A  0       -1.191   1.868   0.018  0.00  0.00    -0.640 N 
ATOM     17  H   UNK A  0       -1.129   2.723  -0.436  0.00  0.00    +0.430 HD
ATOM     18  C   UNK A  0       -0.147   1.409   0.737  0.00  0.00    +0.510 C 
ATOM     19  O   UNK A  0       -0.257   0.387   1.383  0.00  0.00    -0.490 OA
BRANCH  18  20
ATOM     20  C   UNK A  0        1.147   2.155   0.734  0.00  0.00    +0.510 C 
ATOM     21  N   ALA A  1        2.192   1.693   1.448  0.00  0.00    -0.690 N 
ATOM     22  H   ALA A  1        2.104   0.877   1.964  0.00  0.00    +0.420 HD
ATOM     23  O   UNK A  0        1.257   3.176   0.088  0.00  0.00    -0.520 OA
BRANCH  21  24
ATOM     24  CA  ALA A  1        3.462   2.425   1.445  0.00  0.00    +0.250 C 
ATOM     25  CB  ALA A  1        4.292   2.001   0.232  0.00  0.00    +0.040 C 
BRANCH  24  26
ATOM     26  C   ALA A  1        4.235   2.110   2.727  0.00  0.00    +0.200 C 
BRANCH  26  27
ATOM     27  O   ALA A  1        4.596   0.727   2.739  0.00  0.00    -0.570 OA
ATOM     28  H   ALA A  1        5.089   0.456   3.525  0.00  0.00    +0.390 HD
ENDBRANCH  26  27
ENDBRANCH  24  26
ENDBRANCH  21  24
ENDBRANCH  18  20
ENDBRANCH   4  16
TORSDOF 6
