REMARK  Name = ZINCrD00000l3TnC.0
REMARK                            x       y       z     vdW  Elec       q    Type
REMARK                         _______ _______ _______ _____ _____    ______ ____
ROOT
ATOM      1  C   LIG    1       -2.310   8.130   0.646  0.00  0.00    +0.260 C 
ATOM      2  C   LIG    1       -3.435   9.179   0.762  0.00  0.00    +0.030 C 
ATOM      3  C   LIG    1       -3.628   9.824  -0.584  0.00  0.00    +0.010 C 
ATOM      4  C   LIG    1       -4.737   9.145  -1.410  0.00  0.00    +0.000 C 
ATOM      5  C   LIG    1       -4.698   7.608  -1.313  0.00  0.00    +0.010 C 
ATOM      6  C   LIG    1       -3.297   7.062  -1.378  0.00  0.00    +0.030 C 
ATOM      7  C   LIG    1       -2.775   6.880   0.062  0.00  0.00    +0.240 C 
ENDROOT
BRANCH   1   9
ATOM      8  C   LIG    1       -0.859   8.686   2.522  0.00  0.00    +0.650 C 
ATOM      9  N   LIG    1       -1.776   7.860   1.983  0.00  0.00    -0.710 N 
ATOM     10  H   LIG    1       -2.084   7.086   2.481  0.00  0.00    +0.410 HD
ATOM     11  O   LIG    1       -0.474   9.656   1.899  0.00  0.00    -0.560 OA
BRANCH   8  12
ATOM     12  O   LIG    1       -0.368   8.438   3.751  0.00  0.00    -0.360 OA
BRANCH  12  14
ATOM     13  C   LIG    1        0.004  10.770   4.346  0.00  0.00    +0.040 C 
ATOM     14  C   LIG    1        0.617   9.370   4.269  0.00  0.00    +0.140 C 
ATOM     15  C   LIG    1        1.832   9.397   3.339  0.00  0.00    +0.040 C 
ATOM     16  C   LIG    1        1.054   8.927   5.666  0.00  0.00    +0.080 C 
ENDBRANCH  12  14
ENDBRANCH   8  12
ENDBRANCH   1   9
BRANCH   7  17
ATOM     17  N   LIG    1       -1.667   5.923   0.048  0.00  0.00    -0.720 N 
ATOM     18  H   LIG    1       -0.750   6.241   0.041  0.00  0.00    +0.400 HD
ATOM     19  C   LIG    1       -1.920   4.599   0.044  0.00  0.00    +0.570 C 
ATOM     20  O   LIG    1       -3.068   4.200   0.052  0.00  0.00    -0.530 OA
BRANCH  19  21
ATOM     21  C   LIG    1       -0.803   3.634   0.029  0.00  0.00    -0.130 A 
ATOM     22  C   LIG    1        0.517   4.090   0.019  0.00  0.00    +0.070 A 
ATOM     23  C   LIG    1        1.558   3.188   0.004  0.00  0.00    +0.030 A 
ATOM     24  C   LIG    1        1.300   1.824  -0.001  0.00  0.00    +0.060 A 
ATOM     25  O   LIG    1        2.139   0.749  -0.015  0.00  0.00    -0.300 OA
ATOM     26  C   LIG    1        1.336  -0.372   0.400  0.00  0.00    +0.440 C 
ATOM     27  O   LIG    1        0.002  -0.004   0.002  0.00  0.00    -0.300 OA
ATOM     28  C   LIG    1       -0.016   1.361   0.009  0.00  0.00    +0.020 A 
ATOM     29  C   LIG    1       -1.064   2.261   0.019  0.00  0.00    +0.110 A 
ENDBRANCH  19  21
ENDBRANCH   7  17
TORSDOF 5
