REMARK  Name = ZINCrD0000073tnc.0
REMARK                            x       y       z     vdW  Elec       q    Type
REMARK                         _______ _______ _______ _____ _____    ______ ____
ROOT
ATOM      1  N   LIG    1        9.388  -1.770  -3.670  0.00  0.00    -0.490 N 
ATOM      2  C   LIG    1        9.637  -0.494  -2.984  0.00  0.00    +0.200 C 
ATOM      3  C   LIG    1        9.202  -0.612  -1.521  0.00  0.00    +0.200 C 
ATOM      4  N   LIG    1        7.778  -0.969  -1.463  0.00  0.00    -0.540 NA
ATOM      5  C   LIG    1        7.529  -2.244  -2.149  0.00  0.00    +0.200 C 
ATOM      6  C   LIG    1        7.963  -2.127  -3.612  0.00  0.00    +0.200 C 
ENDROOT
BRANCH   1  10
ATOM      7  C   LIG    1       10.734  -1.633  -7.613  0.00  0.00    +0.100 A 
ATOM      8  C   LIG    1       10.143  -2.788  -7.122  0.00  0.00    +0.000 A 
ATOM      9  C   LIG    1        9.697  -2.834  -5.816  0.00  0.00    +0.030 A 
ATOM     10  C   LIG    1        9.840  -1.724  -4.994  0.00  0.00    +0.070 A 
ATOM     11  C   LIG    1       10.426  -0.566  -5.488  0.00  0.00    +0.000 A 
ATOM     12  C   LIG    1       10.877  -0.524  -6.793  0.00  0.00    -0.050 A 
BRANCH   7  14
ATOM     13  C   LIG    1       11.771  -0.367  -9.338  0.00  0.00    +0.230 C 
ATOM     14  O   LIG    1       11.173  -1.589  -8.899  0.00  0.00    -0.320 OA
ENDBRANCH   7  14
ENDBRANCH   1  10
BRANCH   4  15
ATOM     15  C   LIG    1        7.303  -1.017  -0.074  0.00  0.00    +0.350 C 
BRANCH  15  16
ATOM     16  C   LIG    1        5.802  -1.141  -0.060  0.00  0.00    +0.170 A 
ATOM     17  N   LIG    1        5.121  -2.253  -0.059  0.00  0.00    -0.280 NA
ATOM     18  N   LIG    1        3.862  -1.986  -0.045  0.00  0.00    -0.280 NA
ATOM     19  C   LIG    1        3.695  -0.685  -0.037  0.00  0.00    +0.220 A 
ATOM     20  O   LIG    1        4.921  -0.125  -0.051  0.00  0.00    -0.210 OA
BRANCH  19  21
ATOM     21  C   LIG    1        2.403   0.034  -0.021  0.00  0.00    -0.040 A 
ATOM     22  C   LIG    1        1.204  -0.681  -0.013  0.00  0.00    +0.080 A 
ATOM     23  C   LIG    1        0.002  -0.004   0.002  0.00  0.00    +0.020 A 
ATOM     24  C   LIG    1       -0.017   1.379   0.010  0.00  0.00    -0.060 A 
ATOM     25  C   LIG    1        1.168   2.093   0.002  0.00  0.00    +0.010 A 
ATOM     26  C   LIG    1       -1.334   2.112   0.020  0.00  0.00    +0.100 C 
ATOM     27  C   LIG    1        2.377   1.429  -0.013  0.00  0.00    +0.050 A 
ENDBRANCH  19  21
ENDBRANCH  15  16
ENDBRANCH   4  15
TORSDOF 5
