REMARK  Name = ZINCpe000000XCgU.0
REMARK                            x       y       z     vdW  Elec       q    Type
REMARK                         _______ _______ _______ _____ _____    ______ ____
ROOT
ATOM      1  C   LIG    1        4.682   1.576  -0.250  0.00  0.00    +0.160 C 
ATOM      2  C   LIG    1        4.762   0.075  -0.147  0.00  0.00    +0.130 A 
ATOM      3  C   LIG    1        5.942  -0.548  -0.374  0.00  0.00    -0.090 A 
ATOM      4  C   LIG    1        5.975  -1.963  -0.268  0.00  0.00    +0.380 A 
ATOM      5  C   LIG    1        4.717  -2.641   0.083  0.00  0.00    -0.040 A 
ATOM      6  N   LIG    1        3.639  -1.911   0.282  0.00  0.00    -0.170 NA
ATOM      7  O   LIG    1        7.005  -2.592  -0.458  0.00  0.00    -0.450 OA
ATOM      8  N   LIG    1        3.651  -0.634   0.171  0.00  0.00    -0.260 N 
ENDROOT
BRANCH   8   9
ATOM      9  C   LIG    1        2.459   0.063   0.395  0.00  0.00    +0.110 A 
ATOM     10  C   LIG    1        1.306  -0.290  -0.296  0.00  0.00    +0.040 A 
ATOM     11  C   LIG    1        0.131   0.400  -0.072  0.00  0.00    +0.040 A 
ATOM     12  C   LIG    1        0.101   1.441   0.838  0.00  0.00    +0.030 A 
ATOM     13  C   LIG    1        1.247   1.795   1.527  0.00  0.00    +0.040 A 
ATOM     14  C   LIG    1        2.425   1.109   1.308  0.00  0.00    +0.020 A 
ENDBRANCH   8   9
BRANCH   5  15
ATOM     15  C   LIG    1        4.665  -4.111   0.213  0.00  0.00    +0.590 C 
ATOM     16  N   LIG    1        3.506  -4.718   0.534  0.00  0.00    -0.710 N 
ATOM     17  H   LIG    1        2.705  -4.190   0.679  0.00  0.00    +0.410 HD
ATOM     18  O   LIG    1        5.668  -4.773   0.031  0.00  0.00    -0.490 OA
BRANCH  16  19
ATOM     19  C   LIG    1        3.454  -6.177   0.663  0.00  0.00    +0.190 C 
ATOM     20  C   LIG    1        3.870  -6.808  -0.666  0.00  0.00    +0.080 C 
ATOM     21  C   LIG    1        3.156  -8.175  -0.814  0.00  0.00    -0.290 C 
ATOM     22  S   LIG    1        1.470  -7.760  -0.209  0.00  0.00    +2.380 S 
ATOM     23  O   LIG    1        0.762  -7.051  -1.218  0.00  0.00    -0.930 OA
ATOM     24  O   LIG    1        0.888  -8.902   0.403  0.00  0.00    -0.930 OA
ATOM     25  C   LIG    1        4.440  -6.613   1.750  0.00  0.00    +0.060 C 
ATOM     26  C   LIG    1        2.036  -6.590   1.083  0.00  0.00    -0.310 C 
ENDBRANCH  16  19
ENDBRANCH   5  15
TORSDOF 3
