REMARK  Name = ZINCtV00001bB3hI.0
REMARK                            x       y       z     vdW  Elec       q    Type
REMARK                         _______ _______ _______ _____ _____    ______ ____
ROOT
ATOM      1  C   LIG    1       -1.312   1.890   0.019  0.00  0.00    -0.110 A 
ATOM      2  C   LIG    1       -2.336   0.968   0.022  0.00  0.00    +0.020 A 
ATOM      3  S   LIG    1       -1.654  -0.651   0.009  0.00  0.00    +0.080 S 
ATOM      4  C   LIG    1       -0.015  -0.013   0.007  0.00  0.00    -0.150 A 
ATOM      5  C   LIG    1        1.240  -0.863  -0.002  0.00  0.00    +0.120 C 
ATOM      6  C   LIG    1        2.426   0.013  -0.412  0.00  0.00    +0.030 C 
ATOM      7  C   LIG    1        2.421   1.286   0.439  0.00  0.00    +0.020 C 
ATOM      8  C   LIG    1        1.246   2.169   0.015  0.00  0.00    +0.100 C 
ATOM      9  C   LIG    1       -0.026   1.329   0.016  0.00  0.00    -0.070 A 
ENDROOT
BRANCH   1  12
ATOM     10  N   LIG    1       -1.657   3.996   1.200  0.00  0.00    -0.660 N 
ATOM     11  H   LIG    1       -1.646   3.503   2.035  0.00  0.00    +0.410 HD
ATOM     12  C   LIG    1       -1.548   3.338   0.028  0.00  0.00    +0.600 C 
ATOM     13  O   LIG    1       -1.645   3.946  -1.022  0.00  0.00    -0.510 OA
BRANCH  10  17
ATOM     14  C   LIG    1       -2.038   8.147   1.233  0.00  0.00    +0.120 A 
ATOM     15  C   LIG    1       -2.623   7.405   0.217  0.00  0.00    +0.010 A 
ATOM     16  C   LIG    1       -2.496   6.030   0.205  0.00  0.00    +0.070 A 
ATOM     17  C   LIG    1       -1.785   5.390   1.211  0.00  0.00    +0.110 A 
ATOM     18  C   LIG    1       -1.205   6.133   2.231  0.00  0.00    +0.030 A 
ATOM     19  C   LIG    1       -1.328   7.508   2.239  0.00  0.00    -0.060 A 
BRANCH  14  21
ATOM     20  C   LIG    1       -1.536  10.202   2.321  0.00  0.00    +0.250 C 
ATOM     21  O   LIG    1       -2.163   9.501   1.244  0.00  0.00    -0.320 OA
ENDBRANCH  14  21
ENDBRANCH  10  17
ENDBRANCH   1  12
BRANCH   2  22
ATOM     22  N   LIG    1       -3.654   1.261   0.029  0.00  0.00    -0.430 NA
ATOM     23  C   LIG    1       -4.538   0.298   0.026  0.00  0.00    +0.320 C 
BRANCH  23  24
ATOM     24  C   LIG    1       -5.973   0.618   0.034  0.00  0.00    -0.080 A 
ATOM     25  C   LIG    1       -6.396   1.952   0.051  0.00  0.00    +0.090 A 
ATOM     26  C   LIG    1       -7.743   2.244   0.054  0.00  0.00    +0.020 A 
ATOM     27  C   LIG    1       -8.677   1.220   0.051  0.00  0.00    -0.010 A 
ATOM     28  C   LIG    1       -8.266  -0.102   0.040  0.00  0.00    +0.020 A 
ATOM     29 CL   LIG    1      -10.371   1.598   0.062  0.00  0.00    -0.060 Cl
ATOM     30  C   LIG    1       -6.922  -0.410   0.032  0.00  0.00    +0.070 A 
ENDBRANCH  23  24
ENDBRANCH   2  22
TORSDOF 5
