REMARK  Name = ZINCpk00000Fb14A.1
REMARK                            x       y       z     vdW  Elec       q    Type
REMARK                         _______ _______ _______ _____ _____    ______ ____
ROOT
ATOM      1  C   LIG    1       -2.844   1.538   2.451  0.00  0.00    +0.240 C 
ATOM      2  C   LIG    1       -3.010   3.056   2.359  0.00  0.00    +0.030 C 
ENDROOT
BRANCH   1   3
ATOM      3  C   LIG    1       -4.202   0.885   2.480  0.00  0.00    +0.450 A 
ATOM      4  N   LIG    1       -4.460  -0.044   1.602  0.00  0.00    -0.560 NA
ATOM      5  C   LIG    1       -5.650  -0.674   1.565  0.00  0.00    +0.530 A 
ATOM      6  C   LIG    1       -6.671  -0.285   2.554  0.00  0.00    -0.210 A 
ATOM      7  C   LIG    1       -7.929  -0.880   2.591  0.00  0.00    +0.110 A 
ATOM      8  C   LIG    1       -8.844  -0.474   3.539  0.00  0.00    -0.020 A 
ATOM      9  C   LIG    1       -8.517   0.519   4.451  0.00  0.00    +0.080 A 
ATOM     10  C   LIG    1       -7.275   1.118   4.426  0.00  0.00    -0.020 A 
ATOM     11  C   LIG    1       -6.341   0.723   3.479  0.00  0.00    +0.180 A 
ATOM     12  O   LIG    1       -5.876  -1.540   0.738  0.00  0.00    -0.470 OA
ATOM     13  N   LIG    1       -5.082   1.286   3.413  0.00  0.00    -0.630 N 
ATOM     14  H   LIG    1       -4.832   1.980   4.044  0.00  0.00    +0.420 HD
ENDBRANCH   1   3
BRANCH   1  17
ATOM     15  C   LIG    1       -1.893   1.008  -1.155  0.00  0.00    +0.290 C 
ATOM     16  C   LIG    1       -2.666   1.582   0.036  0.00  0.00    +0.180 C 
ATOM     17  N   LIG    1       -2.094   1.055   1.284  0.00  0.00    -0.500 NA
ATOM     18  C   LIG    1       -0.669   1.404   1.392  0.00  0.00    +0.150 C 
ATOM     19  C   LIG    1        0.083   0.832   0.187  0.00  0.00    +0.250 C 
ATOM     20  O   LIG    1       -0.506   1.330  -1.017  0.00  0.00    -0.370 OA
BRANCH  15  24
ATOM     21  C   LIG    1       -4.332   1.448  -5.507  0.00  0.00    +0.190 C 
ATOM     22  C   LIG    1       -3.479   1.783  -4.310  0.00  0.00    +0.290 A 
ATOM     23  N   LIG    1       -3.198   0.978  -3.318  0.00  0.00    -0.530 NA
ATOM     24  C   LIG    1       -2.423   1.605  -2.433  0.00  0.00    +0.240 A 
ATOM     25  N   LIG    1       -2.193   2.820  -2.857  0.00  0.00    -0.290 NA
ATOM     26  N   LIG    1       -2.871   2.959  -4.079  0.00  0.00    -0.480 N 
ATOM     27  H   LIG    1       -2.895   3.747  -4.644  0.00  0.00    +0.440 HD
ENDBRANCH  15  24
ENDBRANCH   1  17
TORSDOF 3
