REMARK  Name = ZINCpk00000Fb14A.0
REMARK                            x       y       z     vdW  Elec       q    Type
REMARK                         _______ _______ _______ _____ _____    ______ ____
ROOT
ATOM      1  C   LIG    1        3.566   6.017  -0.001  0.00  0.00    +0.200 C 
ATOM      2  C   LIG    1        3.836   5.778  -1.488  0.00  0.00    +0.080 C 
ENDROOT
BRANCH   1   3
ATOM      3  C   LIG    1        4.806   5.693   0.793  0.00  0.00    +0.450 A 
ATOM      4  N   LIG    1        5.298   6.614   1.573  0.00  0.00    -0.570 NA
ATOM      5  C   LIG    1        6.403   6.400   2.313  0.00  0.00    +0.530 A 
ATOM      6  C   LIG    1        7.054   5.081   2.221  0.00  0.00    -0.210 A 
ATOM      7  C   LIG    1        8.199   4.770   2.950  0.00  0.00    +0.110 A 
ATOM      8  C   LIG    1        8.761   3.517   2.827  0.00  0.00    -0.010 A 
ATOM      9  C   LIG    1        8.199   2.575   1.977  0.00  0.00    +0.080 A 
ATOM     10  C   LIG    1        7.064   2.869   1.250  0.00  0.00    -0.020 A 
ATOM     11  C   LIG    1        6.482   4.124   1.364  0.00  0.00    +0.180 A 
ATOM     12  O   LIG    1        6.851   7.272   3.038  0.00  0.00    -0.480 OA
ATOM     13  N   LIG    1        5.346   4.469   0.659  0.00  0.00    -0.620 N 
ATOM     14  H   LIG    1        4.935   3.824   0.062  0.00  0.00    +0.420 HD
ENDBRANCH   1   3
BRANCH   1  17
ATOM     15  C   LIG    1        1.921   9.357  -0.571  0.00  0.00    +0.290 C 
ATOM     16  C   LIG    1        2.225   7.873  -0.791  0.00  0.00    +0.190 C 
ATOM     17  N   LIG    1        3.204   7.425   0.211  0.00  0.00    -0.510 NA
ATOM     18  C   LIG    1        2.690   7.638   1.572  0.00  0.00    +0.160 C 
ATOM     19  C   LIG    1        2.381   9.124   1.768  0.00  0.00    +0.250 C 
ATOM     20  O   LIG    1        1.453   9.550   0.767  0.00  0.00    -0.390 OA
BRANCH  15  25
ATOM     21  C   LIG    1       -2.297  11.263  -2.594  0.00  0.00    +0.200 C 
ATOM     22  C   LIG    1       -0.947  10.620  -2.411  0.00  0.00    +0.180 A 
ATOM     23  N   LIG    1       -0.168  10.173  -3.358  0.00  0.00    -0.290 NA
ATOM     24  N   LIG    1        0.906   9.689  -2.844  0.00  0.00    -0.280 NA
ATOM     25  C   LIG    1        0.861   9.804  -1.544  0.00  0.00    +0.180 A 
ATOM     26  N   LIG    1       -0.318  10.393  -1.232  0.00  0.00    -0.560 N 
ATOM     27  H   LIG    1       -0.645  10.611  -0.345  0.00  0.00    +0.430 HD
ENDBRANCH  15  25
ENDBRANCH   1  17
TORSDOF 3
