REMARK  Name = ZINCrH000004jYxa.0
REMARK                            x       y       z     vdW  Elec       q    Type
REMARK                         _______ _______ _______ _____ _____    ______ ____
ROOT
ATOM      1  C   LIG    1        7.220   3.346   0.802  0.00  0.00    -0.070 A 
ATOM      2  C   LIG    1        6.308   4.336   0.437  0.00  0.00    +0.030 A 
ATOM      3  C   LIG    1        5.043   4.343   0.989  0.00  0.00    +0.120 A 
ATOM      4  C   LIG    1        4.679   3.371   1.903  0.00  0.00    -0.660 A 
ATOM      5  C   LIG    1        5.580   2.389   2.274  0.00  0.00    +0.130 A 
ATOM      6  C   LIG    1        6.846   2.368   1.726  0.00  0.00    +0.050 A 
ENDROOT
BRANCH   1   9
ATOM      7  C   LIG    1        7.612   4.085  -1.892  0.00  0.00    +0.300 C 
ATOM      8  N   LIG    1        8.750   3.637  -1.087  0.00  0.00    -0.600 N 
ATOM      9  C   LIG    1        8.576   3.332   0.215  0.00  0.00    +0.560 C 
ATOM     10  O   LIG    1        9.535   3.046   0.905  0.00  0.00    -0.520 OA
BRANCH   8  11
ATOM     11  C   LIG    1       10.077   3.520  -1.696  0.00  0.00    +0.340 C 
BRANCH  11  12
ATOM     12  C   LIG    1       10.252   2.132  -2.257  0.00  0.00    -0.100 A 
ATOM     13  C   LIG    1       10.785   1.130  -1.469  0.00  0.00    +0.040 A 
ATOM     14  C   LIG    1       10.941  -0.145  -1.982  0.00  0.00    +0.020 A 
ATOM     15  C   LIG    1       10.573  -0.415  -3.287  0.00  0.00    +0.030 A 
ATOM     16  C   LIG    1       10.044   0.590  -4.078  0.00  0.00    -0.040 A 
ATOM     17 CL   LIG    1        9.581   0.252  -5.716  0.00  0.00    -0.070 Cl
ATOM     18  C   LIG    1        9.884   1.863  -3.562  0.00  0.00    +0.030 A 
ENDBRANCH  11  12
ENDBRANCH   8  11
ENDBRANCH   1   9
BRANCH   4  19
ATOM     19  S   LIG    1        3.062   3.386   2.602  0.00  0.00    +2.690 S 
ATOM     20  O   LIG    1        3.151   2.686   3.835  0.00  0.00    -0.950 OA
ATOM     21  O   LIG    1        2.594   4.724   2.501  0.00  0.00    -0.950 OA
BRANCH  19  22
ATOM     22  N   LIG    1        2.092   2.476   1.616  0.00  0.00    -1.000 NA
ATOM     23  C   LIG    1        1.372   3.095   0.495  0.00  0.00    +0.280 C 
ATOM     24  C   LIG    1       -0.116   2.748   0.614  0.00  0.00    +0.020 C 
ATOM     25  C   LIG    1       -0.276   1.229   0.700  0.00  0.00    +0.010 C 
ATOM     26  C   LIG    1        0.442   0.709   1.948  0.00  0.00    +0.020 C 
ATOM     27  C   LIG    1        1.936   1.033   1.845  0.00  0.00    +0.280 C 
ENDBRANCH  19  22
ENDBRANCH   4  19
TORSDOF 5
