REMARK  Name = ZINCrg000000mLjk.0
REMARK                            x       y       z     vdW  Elec       q    Type
REMARK                         _______ _______ _______ _____ _____    ______ ____
ROOT
ATOM      1  C   LIG    1        1.158  -2.322  -4.221  0.00  0.00    +0.130 A 
ATOM      2  C   LIG    1        1.541  -1.167  -4.889  0.00  0.00    +0.070 A 
ATOM      3  C   LIG    1        1.188   0.070  -4.386  0.00  0.00    +0.040 A 
ATOM      4  C   LIG    1        0.447   0.158  -3.221  0.00  0.00    +0.040 A 
ATOM      5  C   LIG    1        0.068  -0.992  -2.550  0.00  0.00    -0.660 A 
ATOM      6 CL   LIG    1       -0.003   1.714  -2.595  0.00  0.00    -0.040 Cl
ATOM      7  C   LIG    1        0.419  -2.231  -3.049  0.00  0.00    +0.160 A 
ENDROOT
BRANCH   1   9
ATOM      8  C   LIG    1        0.672  -4.620  -4.601  0.00  0.00    +0.490 C 
ATOM      9  N   LIG    1        1.515  -3.577  -4.728  0.00  0.00    -0.670 N 
ATOM     10  H   LIG    1        2.370  -3.695  -5.171  0.00  0.00    +0.420 HD
ATOM     11  O   LIG    1       -0.358  -4.495  -3.973  0.00  0.00    -0.500 OA
BRANCH   8  12
ATOM     12  C   LIG    1        1.010  -5.944  -5.237  0.00  0.00    +0.340 C 
BRANCH  12  14
ATOM     13  C   LIG    1        0.005  -7.678  -3.852  0.00  0.00    +0.570 C 
ATOM     14  N   LIG    1       -0.057  -6.907  -4.956  0.00  0.00    -0.600 N 
ATOM     15  C   LIG    1       -1.192  -7.033  -5.874  0.00  0.00    +0.290 C 
ATOM     16  O   LIG    1        0.949  -7.574  -3.089  0.00  0.00    -0.540 OA
BRANCH  13  19
ATOM     17  C   LIG    1       -0.895 -10.096  -1.442  0.00  0.00    +0.150 C 
ATOM     18  C   LIG    1       -0.956  -9.348  -2.513  0.00  0.00    -0.080 C 
ATOM     19  C   LIG    1       -1.016  -8.601  -3.583  0.00  0.00    -0.040 C 
ENDBRANCH  13  19
ENDBRANCH  12  14
ENDBRANCH   8  12
ENDBRANCH   1   9
BRANCH   5  20
ATOM     20  S   LIG    1       -0.870  -0.875  -1.063  0.00  0.00    +2.690 S 
ATOM     21  O   LIG    1       -1.906   0.065  -1.315  0.00  0.00    -0.930 OA
ATOM     22  O   LIG    1       -1.117  -2.208  -0.638  0.00  0.00    -0.940 OA
BRANCH  20  23
ATOM     23  N   LIG    1        0.111  -0.192   0.083  0.00  0.00    -1.000 NA
ATOM     24  C   LIG    1        0.045   1.248   0.377  0.00  0.00    +0.270 C 
ATOM     25  C   LIG    1        1.466   1.818   0.325  0.00  0.00    +0.220 C 
ATOM     26  O   LIG    1        2.318   1.037   1.166  0.00  0.00    -0.370 OA
ATOM     27  C   LIG    1        2.447  -0.328   0.762  0.00  0.00    +0.220 C 
ATOM     28  C   LIG    1        1.076  -1.008   0.837  0.00  0.00    +0.280 C 
ENDBRANCH  20  23
ENDBRANCH   5  20
TORSDOF 6
