REMARK  Name = ZINCpk00000y6zcW.0
REMARK                            x       y       z     vdW  Elec       q    Type
REMARK                         _______ _______ _______ _____ _____    ______ ____
ROOT
ATOM      1  N   LIG    1        0.317   1.264   0.290  0.00  0.00    -0.530 NA
ATOM      2  C   LIG    1       -0.365   1.996  -0.785  0.00  0.00    +0.190 C 
ATOM      3  C   LIG    1       -0.306   3.498  -0.493  0.00  0.00    +0.200 C 
ATOM      4  N   LIG    1        1.098   3.918  -0.382  0.00  0.00    -0.540 NA
ATOM      5  C   LIG    1        1.780   3.185   0.694  0.00  0.00    +0.280 C 
ATOM      6  C   LIG    1        1.198   5.369  -0.176  0.00  0.00    +0.200 C 
ATOM      7  C   LIG    1        1.721   1.684   0.402  0.00  0.00    +0.200 C 
ENDROOT
BRANCH   5   8
ATOM      8  C   LIG    1        3.219   3.626   0.770  0.00  0.00    +0.190 A 
ATOM      9  N   LIG    1        3.889   3.921   1.858  0.00  0.00    -0.470 NA
ATOM     10  C   LIG    1        5.123   4.257   1.443  0.00  0.00    +0.200 A 
ATOM     11  N   LIG    1        5.138   4.159   0.147  0.00  0.00    -0.380 NA
ATOM     12  O   LIG    1        4.054   3.798  -0.259  0.00  0.00    +0.100 OA
BRANCH  10  13
ATOM     13  C   LIG    1        6.276   4.676   2.319  0.00  0.00    +0.060 C 
ATOM     14  C   LIG    1        7.529   5.217   1.628  0.00  0.00    +0.050 C 
ATOM     15  C   LIG    1        7.547   3.827   2.268  0.00  0.00    +0.050 C 
ENDBRANCH  10  13
ENDBRANCH   5   8
BRANCH   1  16
ATOM     16  C   LIG    1        0.217  -0.187   0.085  0.00  0.00    +0.270 C 
BRANCH  16  18
ATOM     17  C   LIG    1       -1.835  -1.011   1.367  0.00  0.00    +0.270 A 
ATOM     18  C   LIG    1       -1.222  -0.616   0.220  0.00  0.00    -0.230 A 
ATOM     19  C   LIG    1       -2.162  -0.682  -0.813  0.00  0.00    +0.090 A 
ATOM     20  N   LIG    1       -3.296  -1.096  -0.310  0.00  0.00    -0.280 NA
ATOM     21  C   LIG    1       -1.911  -0.336  -2.258  0.00  0.00    +0.150 C 
ATOM     22  N   LIG    1       -3.118  -1.307   1.063  0.00  0.00    -0.380 N 
ATOM     23  C   LIG    1       -4.141  -1.773   2.003  0.00  0.00    +0.350 C 
BRANCH  17  25
ATOM     24  C   LIG    1       -0.739  -2.362   2.986  0.00  0.00    +0.240 C 
ATOM     25  O   LIG    1       -1.263  -1.091   2.595  0.00  0.00    -0.300 OA
ENDBRANCH  17  25
ENDBRANCH  16  18
ENDBRANCH   1  16
TORSDOF 5
