REMARK  Name = ZINCrD00000e77jk.0
REMARK                            x       y       z     vdW  Elec       q    Type
REMARK                         _______ _______ _______ _____ _____    ______ ____
ROOT
ATOM      1  C   LIG    1       -1.529  -0.003  -8.530  0.00  0.00    +0.520 C 
ATOM      2  N   LIG    1       -0.243   0.397  -8.485  0.00  0.00    -0.600 N 
ATOM      3  C   LIG    1        0.647  -0.234  -7.537  0.00  0.00    +0.290 C 
ATOM      4  C   LIG    1        0.604   0.536  -6.194  0.00  0.00    +0.010 C 
ATOM      5  C   LIG    1        1.274   1.839  -6.330  0.00  0.00    +0.240 C 
ATOM      6  C   LIG    1        0.612   2.784  -7.328  0.00  0.00    +0.030 C 
ATOM      7  C   LIG    1        1.121   2.482  -8.716  0.00  0.00    -0.070 C 
ATOM      8  C   LIG    1        1.154   3.773  -9.536  0.00  0.00    +0.040 C 
ATOM      9  C   LIG    1        2.535   1.906  -8.624  0.00  0.00    +0.030 C 
ATOM     10  C   LIG    1        0.199   1.461  -9.407  0.00  0.00    +0.270 C 
ATOM     11  O   LIG    1       -1.938  -0.820  -7.731  0.00  0.00    -0.530 OA
ENDROOT
BRANCH   5  12
ATOM     12  N   LIG    1        1.297   2.489  -5.018  0.00  0.00    -0.720 N 
ATOM     13  H   LIG    1        0.603   3.123  -4.779  0.00  0.00    +0.400 HD
ATOM     14  C   LIG    1        2.283   2.207  -4.143  0.00  0.00    +0.530 C 
ATOM     15  O   LIG    1        3.150   1.415  -4.442  0.00  0.00    -0.530 OA
BRANCH  14  16
ATOM     16  C   LIG    1        2.306   2.877  -2.793  0.00  0.00    -0.080 C 
ATOM     17  C   LIG    1        2.398   4.393  -2.977  0.00  0.00    +0.060 C 
ATOM     18  C   LIG    1        1.025   2.533  -2.030  0.00  0.00    +0.060 C 
BRANCH  16  19
ATOM     19  C   LIG    1        3.519   2.385  -2.001  0.00  0.00    +0.090 C 
BRANCH  19  20
ATOM     20  C   LIG    1        3.618   3.159  -0.685  0.00  0.00    +0.450 C 
ATOM     21  F   LIG    1        3.868   4.509  -0.956  0.00  0.00    -0.180 F 
ATOM     22  F   LIG    1        4.661   2.638   0.086  0.00  0.00    -0.180 F 
ATOM     23  F   LIG    1        2.413   3.040   0.017  0.00  0.00    -0.180 F 
ENDBRANCH  19  20
ENDBRANCH  16  19
ENDBRANCH  14  16
ENDBRANCH   5  12
BRANCH   1  24
ATOM     24  C   LIG    1       -2.460   0.564  -9.571  0.00  0.00    -0.010 C 
ATOM     25  C   LIG    1       -2.862   1.986  -9.175  0.00  0.00    +0.060 C 
BRANCH  24  26
ATOM     26  C   LIG    1       -3.711  -0.312  -9.668  0.00  0.00    +0.190 C 
BRANCH  26  28
ATOM     27  C   LIG    1       -5.740  -0.595 -10.911  0.00  0.00    +0.200 C 
ATOM     28  O   LIG    1       -4.539   0.158 -10.734  0.00  0.00    -0.390 OA
ENDBRANCH  26  28
ENDBRANCH  24  26
ENDBRANCH   1  24
TORSDOF 7
