REMARK  Name = ZINCrH00000No4Zj.0
REMARK                            x       y       z     vdW  Elec       q    Type
REMARK                         _______ _______ _______ _____ _____    ______ ____
ROOT
ATOM      1  C   LIG    1        1.176   3.567   0.009  0.00  0.00    +0.230 C 
ATOM      2  N   LIG    1        0.045   4.206   0.023  0.00  0.00    -0.200 NA
ENDROOT
BRANCH   1   8
ATOM      3  C   LIG    1       -0.017   1.380   0.010  0.00  0.00    +0.170 A 
ATOM      4  C   LIG    1        0.002  -0.004   0.002  0.00  0.00    -0.120 A 
ATOM      5  C   LIG    1        1.211  -0.683  -0.013  0.00  0.00    +0.160 A 
ATOM      6  C   LIG    1        2.412   0.023  -0.020  0.00  0.00    +0.060 A 
ATOM      7  C   LIG    1        2.405   1.404  -0.013  0.00  0.00    +0.040 A 
ATOM      8  C   LIG    1        1.189   2.094   0.002  0.00  0.00    -0.090 A 
BRANCH   3  10
ATOM      9  C   LIG    1       -2.390   1.251   0.020  0.00  0.00    +0.220 C 
ATOM     10  O   LIG    1       -1.202   2.044   0.019  0.00  0.00    -0.270 OA
ENDBRANCH   3  10
BRANCH   6  11
ATOM     11  O   LIG    1        3.595  -0.650  -0.034  0.00  0.00    -0.310 OA
ATOM     12  C   LIG    1        4.788   0.136  -0.042  0.00  0.00    +0.230 C 
ENDBRANCH   6  11
BRANCH   5  13
ATOM     13  O   LIG    1        1.224  -2.042  -0.019  0.00  0.00    -0.300 OA
ATOM     14  C   LIG    1       -0.043  -2.703  -0.010  0.00  0.00    +0.240 C 
ENDBRANCH   5  13
ENDBRANCH   1   8
BRANCH   2  15
ATOM     15  N   LIG    1        0.032   5.607   0.030  0.00  0.00    -0.580 N 
ATOM     16  H   LIG    1        0.868   6.100   0.025  0.00  0.00    +0.380 HD
ATOM     17  C   LIG    1       -1.141   6.270   0.045  0.00  0.00    +0.580 C 
ATOM     18  O   LIG    1       -2.189   5.652   0.051  0.00  0.00    -0.500 OA
BRANCH  17  19
ATOM     19  C   LIG    1       -1.155   7.748   0.052  0.00  0.00    -0.140 A 
ATOM     20  C   LIG    1        0.046   8.460   0.051  0.00  0.00    +0.040 A 
ATOM     21  C   LIG    1        0.026   9.839   0.053  0.00  0.00    +0.010 A 
ATOM     22  C   LIG    1       -1.180  10.517   0.067  0.00  0.00    -0.040 A 
ATOM     23  C   LIG    1       -2.374   9.817   0.074  0.00  0.00    +0.010 A 
ATOM     24  C   LIG    1       -2.368   8.438   0.067  0.00  0.00    +0.090 A 
BRANCH  22  25
ATOM     25  C   LIG    1       -1.194  12.024   0.075  0.00  0.00    -0.040 C 
ATOM     26  C   LIG    1       -1.932  12.534  -1.165  0.00  0.00    +0.040 C 
ATOM     27  C   LIG    1        0.243  12.547   0.065  0.00  0.00    +0.030 C 
ATOM     28  C   LIG    1       -1.909  12.520   1.334  0.00  0.00    +0.040 C 
ENDBRANCH  22  25
ENDBRANCH  17  19
ENDBRANCH   2  15
TORSDOF 7
