REMARK  Name = ZINC9p0000002Dpo.0
REMARK                            x       y       z     vdW  Elec       q    Type
REMARK                         _______ _______ _______ _____ _____    ______ ____
ROOT
ATOM      1  C   LIG    1        0.041   0.972   2.456  0.00  0.00    +0.030 C 
ENDROOT
BRANCH   1   2
ATOM      2  C   LIG    1       -0.699   1.479   1.216  0.00  0.00    +0.260 C 
BRANCH   2   3
ATOM      3  N   LIG    1       -0.012   1.005   0.008  0.00  0.00    -0.640 N 
ATOM      4  H   LIG    1       -0.500   1.339  -0.810  0.00  0.00    +0.440 HD
ATOM      5  H   LIG    1        0.935   1.354   0.000  0.00  0.00    +0.440 HD
ATOM      6  H   LIG    1        0.002  -0.004   0.002  0.00  0.00    +0.440 HD
ENDBRANCH   2   3
ENDBRANCH   1   2
BRANCH   1   7
ATOM      7  C   LIG    1       -0.675   1.465   3.715  0.00  0.00    +0.080 C 
BRANCH   7   8
ATOM      8  C   LIG    1        0.065   0.958   4.954  0.00  0.00    +0.010 C 
ATOM      9  C   LIG    1       -0.429   1.443   6.319  0.00  0.00    +0.120 C 
ATOM     10  C   LIG    1       -0.684  -0.001   5.881  0.00  0.00    -0.010 C 
ATOM     11 CL   LIG    1        0.274  -1.298   6.688  0.00  0.00    -0.080 Cl
ATOM     12 CL   LIG    1       -2.372  -0.448   5.429  0.00  0.00    -0.090 Cl
ENDBRANCH   7   8
ENDBRANCH   1   7
TORSDOF 4
