REMARK  Name = ZINCpe00000NpTcb.0
REMARK                            x       y       z     vdW  Elec       q    Type
REMARK                         _______ _______ _______ _____ _____    ______ ____
ROOT
ATOM      1  O   LIG    1       -0.880  -0.709   1.776  0.00  0.00    -0.510 OA
ATOM      2  C   LIG    1       -1.083   0.425   2.155  0.00  0.00    +0.520 C 
ATOM      3  N   LIG    1       -1.682   0.641   3.343  0.00  0.00    -0.720 N 
ATOM      4  H   LIG    1       -1.844   1.548   3.647  0.00  0.00    +0.400 HD
ENDROOT
BRANCH   2   5
ATOM      5  C   LIG    1       -0.666   1.592   1.298  0.00  0.00    -0.070 C 
ATOM      6  C   LIG    1        0.399   2.431   2.036  0.00  0.00    +0.060 C 
ATOM      7  C   LIG    1        1.747   1.894   1.491  0.00  0.00    +0.020 C 
ATOM      8  C   LIG    1        1.431   1.631  -0.003  0.00  0.00    +0.050 C 
ATOM      9  C   LIG    1       -1.894   2.480   1.018  0.00  0.00    -0.290 C 
ATOM     10  S   LIG    1       -2.449   1.905  -0.637  0.00  0.00    +2.380 S 
ATOM     11  O   LIG    1       -3.027   2.987  -1.354  0.00  0.00    -0.930 OA
ATOM     12  O   LIG    1       -3.150   0.675  -0.509  0.00  0.00    -0.920 OA
ATOM     13  C   LIG    1       -0.752   1.608  -1.239  0.00  0.00    -0.300 C 
ATOM     14  C   LIG    1       -0.013   1.086   0.008  0.00  0.00    +0.040 C 
ENDBRANCH   2   5
BRANCH   3  15
ATOM     15  C   LIG    1       -2.088  -0.494   4.176  0.00  0.00    +0.330 C 
BRANCH  15  16
ATOM     16  C   LIG    1       -2.728   0.016   5.441  0.00  0.00    -0.060 A 
ATOM     17  C   LIG    1       -1.949   0.254   6.558  0.00  0.00    +0.020 A 
ATOM     18  C   LIG    1       -2.549   0.730   7.709  0.00  0.00    +0.140 A 
ATOM     19  C   LIG    1       -3.909   0.953   7.741  0.00  0.00    -0.630 A 
ATOM     20  C   LIG    1       -4.708   0.710   6.638  0.00  0.00    -0.040 A 
ATOM     21  C   LIG    1       -6.181   0.982   6.822  0.00  0.00    +0.130 C 
ATOM     22  C   LIG    1       -6.420   1.934   8.011  0.00  0.00    -0.270 C 
ATOM     23  S   LIG    1       -4.953   1.555   9.046  0.00  0.00    +2.470 S 
ATOM     24  O   LIG    1       -5.186   0.437   9.892  0.00  0.00    -0.920 OA
ATOM     25  O   LIG    1       -4.326   2.740   9.518  0.00  0.00    -0.930 OA
ATOM     26  C   LIG    1       -4.086   0.235   5.479  0.00  0.00    +0.030 A 
ENDBRANCH  15  16
ENDBRANCH   3  15
TORSDOF 3
