REMARK  Name = ZINCrD000000fYRe.0
REMARK                            x       y       z     vdW  Elec       q    Type
REMARK                         _______ _______ _______ _____ _____    ______ ____
ROOT
ATOM      1  C   LIG    1       -1.211   3.192  -0.878  0.00  0.00    -0.660 A 
ATOM      2  C   LIG    1       -0.415   4.259  -1.250  0.00  0.00    +0.110 A 
ATOM      3  C   LIG    1       -0.585   4.854  -2.487  0.00  0.00    +0.020 A 
ATOM      4  C   LIG    1       -1.558   4.391  -3.350  0.00  0.00    +0.070 A 
ATOM      5  C   LIG    1       -2.364   3.322  -2.977  0.00  0.00    +0.130 A 
ATOM      6  C   LIG    1       -2.187   2.724  -1.736  0.00  0.00    +0.100 A 
ENDROOT
BRANCH   5   7
ATOM      7  N   LIG    1       -3.351   2.850  -3.849  0.00  0.00    -0.670 N 
ATOM      8  H   LIG    1       -4.169   2.467  -3.494  0.00  0.00    +0.420 HD
ATOM      9  C   LIG    1       -3.166   2.927  -5.181  0.00  0.00    +0.520 C 
ATOM     10  O   LIG    1       -2.108   3.321  -5.625  0.00  0.00    -0.520 OA
BRANCH   9  11
ATOM     11  C   LIG    1       -4.273   2.523  -6.120  0.00  0.00    +0.090 C 
BRANCH  11  12
ATOM     12  C   LIG    1       -3.807   2.704  -7.566  0.00  0.00    +0.070 C 
BRANCH  12  13
ATOM     13  C   LIG    1       -4.913   2.300  -8.506  0.00  0.00    +0.400 C 
ATOM     14  O   LIG    1       -5.971   1.905  -8.062  0.00  0.00    -0.450 OA
BRANCH  13  15
ATOM     15  C   LIG    1       -4.711   2.384  -9.961  0.00  0.00    -0.170 A 
ATOM     16  C   LIG    1       -3.495   2.844 -10.476  0.00  0.00    +0.060 A 
ATOM     17  C   LIG    1       -3.312   2.915 -11.841  0.00  0.00    +0.000 A 
ATOM     18  C   LIG    1       -4.330   2.543 -12.700  0.00  0.00    +0.040 A 
ATOM     19  C   LIG    1       -5.539   2.091 -12.198  0.00  0.00    +0.000 A 
ATOM     20  C   LIG    1       -5.736   2.010 -10.836  0.00  0.00    +0.070 A 
ENDBRANCH  13  15
ENDBRANCH  12  13
ENDBRANCH  11  12
ENDBRANCH   9  11
ENDBRANCH   5   7
BRANCH   1  21
ATOM     21  S   LIG    1       -0.986   2.433   0.696  0.00  0.00    +2.700 S 
ATOM     22  O   LIG    1       -0.593   3.467   1.588  0.00  0.00    -0.960 OA
ATOM     23  O   LIG    1       -2.125   1.611   0.912  0.00  0.00    -0.950 OA
BRANCH  21  24
ATOM     24  N   LIG    1        0.310   1.410   0.567  0.00  0.00    -1.110 NA
ATOM     25  H   LIG    1        1.123   1.592   1.063  0.00  0.00    +0.420 HD
BRANCH  24  27
ATOM     26  C   LIG    1       -0.295   0.635  -1.673  0.00  0.00    +0.030 C 
ATOM     27  C   LIG    1        0.226   0.227  -0.294  0.00  0.00    +0.180 C 
ATOM     28  C   LIG    1       -0.728  -0.791   0.332  0.00  0.00    +0.040 C 
ATOM     29  C   LIG    1        1.616  -0.398  -0.438  0.00  0.00    +0.050 C 
ENDBRANCH  24  27
ENDBRANCH  21  24
ENDBRANCH   1  21
TORSDOF 8
