REMARK  Name = ZINCnE000001LmSK.0
REMARK                            x       y       z     vdW  Elec       q    Type
REMARK                         _______ _______ _______ _____ _____    ______ ____
ROOT
ATOM      1  CA  LIG    1       -1.293  -0.774   0.011  0.00  0.00    +0.210 C 
ENDROOT
BRANCH   1   5
ATOM      2  C   LIG    1        2.380   1.411  -0.014  0.00  0.00    +0.120 A 
ATOM      3  C   LIG    1        1.170   2.087   0.002  0.00  0.00    -0.050 A 
ATOM      4  C   LIG    1       -0.017   1.378   0.010  0.00  0.00    +0.070 A 
ATOM      5  C   LIG    1        0.002  -0.004   0.002  0.00  0.00    -0.080 A 
ATOM      6  C   LIG    1        1.208  -0.682  -0.013  0.00  0.00    +0.080 A 
ATOM      7  C   LIG    1        2.397   0.022  -0.021  0.00  0.00    -0.060 A 
ATOM      8 CL   LIG    1        3.910  -0.828  -0.040  0.00  0.00    -0.070 Cl
BRANCH   2  10
ATOM      9  C   LIG    1        3.455   3.532  -0.013  0.00  0.00    +0.240 C 
ATOM     10  O   LIG    1        3.548   2.106  -0.021  0.00  0.00    -0.310 OA
ENDBRANCH   2  10
ENDBRANCH   1   5
BRANCH   1  11
ATOM     11  N   LIG    1       -1.164  -1.938   0.891  0.00  0.00    -0.700 N 
ATOM     12  H   LIG    1       -0.289  -2.319   1.065  0.00  0.00    +0.390 HD
ATOM     13  C   LIG    1       -2.260  -2.479   1.459  0.00  0.00    +0.510 C 
ATOM     14  O   LIG    1       -3.354  -2.002   1.241  0.00  0.00    -0.540 OA
BRANCH  13  15
ATOM     15  C   LIG    1       -2.127  -3.676   2.364  0.00  0.00    +0.080 C 
BRANCH  15  16
ATOM     16  C   LIG    1       -3.490  -4.082   2.864  0.00  0.00    -0.100 C 
ATOM     17  C   LIG    1       -4.122  -5.008   2.218  0.00  0.00    -0.050 C 
ATOM     18  C   LIG    1       -5.485  -5.512   2.591  0.00  0.00    +0.050 C 
ATOM     19  C   LIG    1       -5.826  -5.101   4.026  0.00  0.00    +0.000 C 
ATOM     20  C   LIG    1       -5.542  -3.602   4.181  0.00  0.00    +0.010 C 
ATOM     21  C   LIG    1       -4.031  -3.383   4.077  0.00  0.00    +0.060 C 
ENDBRANCH  15  16
ENDBRANCH  13  15
ENDBRANCH   1  11
BRANCH   1  22
ATOM     22  C   LIG    1       -1.613  -1.235  -1.388  0.00  0.00    +0.500 C 
ATOM     23  OXT LIG    1       -2.276  -0.527  -2.127  0.00  0.00    -0.690 OA
ATOM     24  O   LIG    1       -1.210  -2.317  -1.780  0.00  0.00    -0.680 OA
ENDBRANCH   1  22
TORSDOF 6
