REMARK  Name = ZINCrD0000072jpe.0
REMARK                            x       y       z     vdW  Elec       q    Type
REMARK                         _______ _______ _______ _____ _____    ______ ____
ROOT
ATOM      1  O   LIG    1       -2.894   7.765  -0.238  0.00  0.00    -0.280 OA
ENDROOT
BRANCH   1   8
ATOM      2  C   LIG    1       -3.963  13.234  -0.647  0.00  0.00    +0.040 A 
ATOM      3  C   LIG    1       -5.264  13.617  -0.726  0.00  0.00    -0.100 A 
ATOM      4  C   LIG    1       -6.284  12.645  -0.701  0.00  0.00    +0.510 A 
ATOM      5  O   LIG    1       -6.008  11.335  -0.601  0.00  0.00    -0.270 OA
ATOM      6  C   LIG    1       -4.736  10.887  -0.520  0.00  0.00    +0.190 A 
ATOM      7  C   LIG    1       -4.468   9.531  -0.423  0.00  0.00    -0.010 A 
ATOM      8  C   LIG    1       -3.156   9.093  -0.337  0.00  0.00    +0.190 A 
ATOM      9  C   LIG    1       -2.103  10.005  -0.357  0.00  0.00    -0.090 A 
ATOM     10  C   LIG    1       -2.349  11.344  -0.456  0.00  0.00    +0.140 A 
ATOM     11  O   LIG    1       -7.446  13.002  -0.771  0.00  0.00    -0.460 OA
ATOM     12  C   LIG    1       -3.668  11.804  -0.539  0.00  0.00    -0.190 A 
BRANCH   2  14
ATOM     13  C   LIG    1       -2.450  14.603   0.762  0.00  0.00    +0.040 C 
ATOM     14  C   LIG    1       -2.853  14.254  -0.672  0.00  0.00    +0.080 C 
ENDBRANCH   2  14
ENDBRANCH   1   8
BRANCH   1  15
ATOM     15  C   LIG    1       -1.520   7.379  -0.158  0.00  0.00    +0.250 C 
BRANCH  15  16
ATOM     16  C   LIG    1       -1.426   5.878  -0.054  0.00  0.00    +0.520 C 
ATOM     17  N   LIG    1       -0.220   5.283   0.033  0.00  0.00    -0.660 N 
ATOM     18  H   LIG    1        0.583   5.823   0.110  0.00  0.00    +0.420 HD
ATOM     19  O   LIG    1       -2.436   5.206  -0.049  0.00  0.00    -0.480 OA
BRANCH  17  20
ATOM     20  C   LIG    1       -0.125   3.890   0.013  0.00  0.00    +0.190 A 
ATOM     21  C   LIG    1       -1.101   3.147  -0.581  0.00  0.00    +0.040 A 
ATOM     22  C   LIG    1       -1.033   1.756  -0.622  0.00  0.00    +0.080 A 
ATOM     23  C   LIG    1       -0.001   1.077  -0.064  0.00  0.00    +0.050 A 
ATOM     24  C   LIG    1        1.053   1.783   0.572  0.00  0.00    +0.100 A 
ATOM     25  N   LIG    1        2.149   1.350   1.173  0.00  0.00    -0.590 NA
ATOM     26  S   LIG    1        2.964   2.565   1.700  0.00  0.00    +0.810 S 
ATOM     27  N   LIG    1        2.046   3.733   1.240  0.00  0.00    -0.600 NA
ATOM     28  C   LIG    1        0.990   3.241   0.613  0.00  0.00    +0.060 A 
ENDBRANCH  17  20
ENDBRANCH  15  16
ENDBRANCH   1  15
TORSDOF 5
