REMARK  Name = ZINCpk000000mSLW.0
REMARK                            x       y       z     vdW  Elec       q    Type
REMARK                         _______ _______ _______ _____ _____    ______ ____
ROOT
ATOM      1  C   LIG    1        4.002   1.893  10.384  0.00  0.00    +0.110 C 
ATOM      2  C   LIG    1        3.319   0.552  10.314  0.00  0.00    +0.510 C 
ATOM      3  N   LIG    1        2.651   0.194   9.200  0.00  0.00    -0.610 N 
ATOM      4  C   LIG    1        2.137  -1.169   9.107  0.00  0.00    +0.290 C 
ATOM      5  C   LIG    1        2.850  -1.915   7.973  0.00  0.00    +0.070 C 
ATOM      6  C   LIG    1        2.208  -1.526   6.660  0.00  0.00    -0.020 A 
ATOM      7  C   LIG    1        1.436  -2.451   5.979  0.00  0.00    +0.010 A 
ATOM      8  C   LIG    1        0.848  -2.103   4.777  0.00  0.00    +0.120 A 
ATOM      9  C   LIG    1        1.031  -0.835   4.260  0.00  0.00    -0.680 A 
ATOM     10  C   LIG    1        1.808   0.085   4.941  0.00  0.00    +0.130 A 
ATOM     11  C   LIG    1        2.390  -0.266   6.145  0.00  0.00    -0.100 A 
ATOM     12  C   LIG    1        3.233   0.746   6.888  0.00  0.00    +0.080 C 
ATOM     13  C   LIG    1        2.476   1.187   8.145  0.00  0.00    +0.280 C 
ATOM     14  O   LIG    1        3.371  -0.205  11.260  0.00  0.00    -0.540 OA
ENDROOT
BRANCH   9  15
ATOM     15  S   LIG    1        0.282  -0.392   2.727  0.00  0.00    +2.690 S 
ATOM     16  O   LIG    1        1.052   0.679   2.199  0.00  0.00    -0.950 OA
ATOM     17  O   LIG    1        0.056  -1.607   2.026  0.00  0.00    -0.950 OA
BRANCH  15  18
ATOM     18  N   LIG    1       -1.212   0.233   3.075  0.00  0.00    -0.990 NA
ATOM     19  C   LIG    1       -2.378  -0.650   3.141  0.00  0.00    +0.310 C 
BRANCH  18  20
ATOM     20  C   LIG    1       -1.366   1.670   3.316  0.00  0.00    +0.230 C 
ATOM     21  C   LIG    1       -1.920   1.893   4.725  0.00  0.00    +0.040 C 
BRANCH  20  22
ATOM     22  C   LIG    1       -2.334   2.258   2.288  0.00  0.00    +0.130 C 
ATOM     23  C   LIG    1       -2.400   3.777   2.460  0.00  0.00    +0.020 C 
ATOM     24  C   LIG    1       -1.844   1.926   0.877  0.00  0.00    +0.060 C 
BRANCH  22  25
ATOM     25  O   LIG    1       -3.635   1.700   2.484  0.00  0.00    -0.550 OA
ATOM     26  H   LIG    1       -4.009   1.872   3.359  0.00  0.00    +0.370 HD
ENDBRANCH  22  25
ENDBRANCH  20  22
ENDBRANCH  18  20
ENDBRANCH  15  18
ENDBRANCH   9  15
TORSDOF 5
