REMARK  Name = ZINCtV00001bB3td.0
REMARK                            x       y       z     vdW  Elec       q    Type
REMARK                         _______ _______ _______ _____ _____    ______ ____
ROOT
ATOM      1  C   LIG    1       -0.755   6.295  -1.207  0.00  0.00    +0.280 C 
ATOM      2  C   LIG    1       -0.981   7.667  -1.872  0.00  0.00    +0.020 C 
ATOM      3  C   LIG    1       -1.459   8.623  -0.759  0.00  0.00    +0.020 C 
ATOM      4  C   LIG    1       -2.067   7.684   0.313  0.00  0.00    +0.030 C 
ATOM      5  C   LIG    1       -1.109   6.468   0.285  0.00  0.00    +0.040 C 
ENDROOT
BRANCH   5   6
ATOM      6  C   LIG    1       -1.804   5.237   0.808  0.00  0.00    -0.030 A 
ATOM      7  C   LIG    1       -1.065   4.212   1.368  0.00  0.00    +0.020 A 
ATOM      8  C   LIG    1       -1.703   3.083   1.848  0.00  0.00    +0.060 A 
ATOM      9  C   LIG    1       -3.079   2.980   1.768  0.00  0.00    -0.180 A 
ATOM     10  C   LIG    1       -3.817   4.003   1.203  0.00  0.00    +0.060 A 
ATOM     11  C   LIG    1       -3.180   5.134   0.727  0.00  0.00    +0.010 A 
BRANCH   9  12
ATOM     12  C   LIG    1       -3.775   1.749   2.291  0.00  0.00    +0.510 C 
ATOM     13  F   LIG    1       -2.925   0.645   2.166  0.00  0.00    -0.180 F 
ATOM     14  F   LIG    1       -4.943   1.525   1.555  0.00  0.00    -0.180 F 
ATOM     15  F   LIG    1       -4.101   1.936   3.639  0.00  0.00    -0.180 F 
ENDBRANCH   9  12
ENDBRANCH   5   6
BRANCH   1  17
ATOM     16  C   LIG    1       -3.062   5.566  -1.973  0.00  0.00    +0.300 C 
ATOM     17  N   LIG    1       -1.631   5.292  -1.818  0.00  0.00    -0.550 N 
BRANCH  17  18
ATOM     18  C   LIG    1       -1.108   4.088  -2.247  0.00  0.00    +0.430 A 
ATOM     19  N   LIG    1        0.148   3.715  -2.168  0.00  0.00    -0.340 NA
ATOM     20  N   LIG    1        0.275   2.534  -2.663  0.00  0.00    -0.230 NA
ATOM     21  C   LIG    1       -0.893   2.107  -3.077  0.00  0.00    +0.160 A 
ATOM     22  O   LIG    1       -1.794   3.080  -2.817  0.00  0.00    -0.210 OA
BRANCH  21  23
ATOM     23  C   LIG    1       -1.173   0.799  -3.706  0.00  0.00    +0.020 A 
ATOM     24  C   LIG    1       -0.140  -0.117  -3.909  0.00  0.00    +0.080 A 
ATOM     25  C   LIG    1       -0.409  -1.336  -4.497  0.00  0.00    +0.040 A 
ATOM     26  C   LIG    1       -1.699  -1.651  -4.884  0.00  0.00    +0.040 A 
ATOM     27  C   LIG    1       -2.729  -0.748  -4.686  0.00  0.00    +0.050 A 
ATOM     28  C   LIG    1       -2.475   0.473  -4.094  0.00  0.00    -0.070 A 
ATOM     29 BR   LIG    1       -3.884   1.703  -3.816  0.00  0.00    -0.020 Br
ENDBRANCH  21  23
ENDBRANCH  17  18
ENDBRANCH   1  17
TORSDOF 5
