REMARK  Name = ZINCrg00000BneMd.0
REMARK                            x       y       z     vdW  Elec       q    Type
REMARK                         _______ _______ _______ _____ _____    ______ ____
ROOT
ATOM      1  C   LIG    1        1.229   7.280  -0.661  0.00  0.00    +0.260 C 
ATOM      2  C   LIG    1        1.313   5.979   0.156  0.00  0.00    +0.050 C 
ATOM      3  C   LIG    1        0.138   5.093  -0.304  0.00  0.00    -0.020 C 
ATOM      4  C   LIG    1       -0.893   6.096  -0.878  0.00  0.00    +0.010 C 
ATOM      5  C   LIG    1        0.005   7.139  -1.589  0.00  0.00    +0.150 C 
ENDROOT
BRANCH   1   8
ATOM      6  O   LIG    1        2.172   9.653  -1.525  0.00  0.00    -0.490 OA
ATOM      7  C   LIG    1        2.832   8.685  -1.841  0.00  0.00    +0.500 C 
ATOM      8  N   LIG    1        2.446   7.452  -1.458  0.00  0.00    -0.730 N 
ATOM      9  H   LIG    1        2.974   6.679  -1.710  0.00  0.00    +0.400 HD
BRANCH   7  10
ATOM     10  C   LIG    1        4.084   8.862  -2.661  0.00  0.00    +0.360 C 
BRANCH  10  11
ATOM     11  N   LIG    1        4.285  10.285  -2.945  0.00  0.00    -0.370 N 
ATOM     12  C   LIG    1        5.382  11.014  -2.676  0.00  0.00    +0.480 A 
ATOM     13  N   LIG    1        5.166  12.239  -3.084  0.00  0.00    -0.540 NA
ATOM     14  C   LIG    1        3.948  12.329  -3.616  0.00  0.00    +0.420 A 
ATOM     15  N   LIG    1        3.371  11.158  -3.559  0.00  0.00    -0.290 NA
ENDBRANCH  10  11
ENDBRANCH   7  10
ENDBRANCH   1   8
BRANCH   5  16
ATOM     16  O   LIG    1       -0.677   8.389  -1.712  0.00  0.00    -0.550 OA
ATOM     17  H   LIG    1       -1.455   8.357  -2.285  0.00  0.00    +0.380 HD
ENDBRANCH   5  16
BRANCH   3  18
ATOM     18  C   LIG    1       -0.458   4.334   0.884  0.00  0.00    +0.300 C 
BRANCH  18  19
ATOM     19  N   LIG    1       -1.491   3.412   0.406  0.00  0.00    -0.450 N 
ATOM     20  C   LIG    1       -2.828   3.678   0.285  0.00  0.00    +0.140 A 
ATOM     21  C   LIG    1       -3.413   2.559  -0.188  0.00  0.00    +0.150 A 
ATOM     22  N   LIG    1       -2.466   1.629  -0.361  0.00  0.00    -0.470 NA
ATOM     23  C   LIG    1       -1.302   2.124  -0.003  0.00  0.00    +0.240 A 
BRANCH  23  24
ATOM     24  C   LIG    1       -0.008   1.408  -0.042  0.00  0.00    -0.010 A 
ATOM     25  C   LIG    1        0.020   0.015  -0.105  0.00  0.00    +0.060 A 
ATOM     26  C   LIG    1        1.230  -0.647  -0.136  0.00  0.00    +0.010 A 
ATOM     27  C   LIG    1        2.414   0.068  -0.104  0.00  0.00    +0.020 A 
ATOM     28  C   LIG    1        2.393   1.450  -0.040  0.00  0.00    +0.010 A 
ATOM     29  C   LIG    1        1.189   2.124  -0.009  0.00  0.00    +0.000 A 
ENDBRANCH  23  24
ENDBRANCH  18  19
ENDBRANCH   3  18
TORSDOF 7
