REMARK  Name = ZINCpe00000MJJyT.0
REMARK                            x       y       z     vdW  Elec       q    Type
REMARK                         _______ _______ _______ _____ _____    ______ ____
ROOT
ATOM      1  N   LIG    1       -0.464   1.355   0.853  0.00  0.00    -0.970 NA
ATOM      2  C   LIG    1        0.266   0.780  -0.284  0.00  0.00    +0.240 C 
ATOM      3  C   LIG    1       -0.594   1.042  -1.535  0.00  0.00    +0.080 C 
ATOM      4  C   LIG    1       -1.374   2.328  -1.187  0.00  0.00    +0.170 C 
ATOM      5  O   LIG    1       -0.543   3.458  -1.535  0.00  0.00    -0.360 OA
ATOM      6  C   LIG    1       -0.866   4.497  -0.588  0.00  0.00    +0.210 C 
ATOM      7  C   LIG    1       -1.032   3.764   0.761  0.00  0.00    +0.020 C 
ATOM      8  C   LIG    1       -1.446   2.321   0.359  0.00  0.00    +0.240 C 
ENDROOT
BRANCH   2   9
ATOM      9  C   LIG    1        1.607   1.451  -0.429  0.00  0.00    +0.510 C 
ATOM     10  N   LIG    1        2.611   0.819  -1.070  0.00  0.00    -0.620 N 
ATOM     11  C   LIG    1        2.367  -0.470  -1.721  0.00  0.00    +0.270 C 
ATOM     12  C   LIG    1        3.945   1.422  -1.116  0.00  0.00    +0.290 C 
ATOM     13  O   LIG    1        1.784   2.559   0.030  0.00  0.00    -0.510 OA
ENDBRANCH   2   9
BRANCH   1  14
ATOM     14  S   LIG    1       -0.215   0.970   2.444  0.00  0.00    +2.710 S 
ATOM     15  O   LIG    1       -0.813   2.009   3.207  0.00  0.00    -0.930 OA
ATOM     16  O   LIG    1        1.155   0.610   2.560  0.00  0.00    -0.940 OA
BRANCH  14  23
ATOM     17  C   LIG    1       -2.529  -0.459   2.723  0.00  0.00    +0.220 A 
ATOM     18  C   LIG    1       -3.258  -1.609   2.986  0.00  0.00    -0.050 A 
ATOM     19  C   LIG    1       -2.603  -2.784   3.303  0.00  0.00    +0.090 A 
ATOM     20  C   LIG    1       -1.220  -2.813   3.357  0.00  0.00    +0.050 A 
ATOM     21  C   LIG    1       -0.491  -1.667   3.090  0.00  0.00    +0.140 A 
ATOM     22  F   LIG    1       -0.582  -3.963   3.667  0.00  0.00    -0.130 F 
ATOM     23  C   LIG    1       -1.143  -0.490   2.778  0.00  0.00    -0.690 A 
BRANCH  17  25
ATOM     24  C   LIG    1       -4.599   0.685   2.481  0.00  0.00    +0.260 C 
ATOM     25  O   LIG    1       -3.172   0.698   2.412  0.00  0.00    -0.310 OA
ENDBRANCH  17  25
ENDBRANCH  14  23
ENDBRANCH   1  14
TORSDOF 4
