REMARK  Name = ZINCvU0000000Dw1.0
REMARK                            x       y       z     vdW  Elec       q    Type
REMARK                         _______ _______ _______ _____ _____    ______ ____
ROOT
ATOM      1  C   LIG    1       -1.222   2.103   0.039  0.00  0.00    +0.300 C 
ATOM      2  C   LIG    1       -0.017   1.428   0.025  0.00  0.00    -0.130 C 
ENDROOT
BRANCH   1   9
ATOM      3  C   LIG    1       -3.639   2.575   2.039  0.00  0.00    +0.190 C 
ATOM      4  C   LIG    1       -3.568   1.551   0.936  0.00  0.00    +0.130 A 
ATOM      5  N   LIG    1       -4.498   0.691   0.629  0.00  0.00    -0.260 NA
ATOM      6  N   LIG    1       -4.064  -0.088  -0.449  0.00  0.00    -0.300 N 
ATOM      7  C   LIG    1       -2.833   0.321  -0.806  0.00  0.00    +0.160 A 
ATOM      8 CL   LIG    1       -1.866  -0.326  -2.095  0.00  0.00    +0.030 Cl
ATOM      9  C   LIG    1       -2.478   1.355   0.051  0.00  0.00    -0.230 A 
BRANCH   6  10
ATOM     10  C   LIG    1       -4.793  -1.119  -1.058  0.00  0.00    +0.130 A 
ATOM     11  C   LIG    1       -4.690  -1.328  -2.427  0.00  0.00    +0.030 A 
ATOM     12  C   LIG    1       -5.404  -2.348  -3.024  0.00  0.00    +0.060 A 
ATOM     13  C   LIG    1       -6.232  -3.154  -2.261  0.00  0.00    -0.030 A 
ATOM     14  C   LIG    1       -6.340  -2.944  -0.898  0.00  0.00    +0.060 A 
ATOM     15 CL   LIG    1       -7.134  -4.430  -3.016  0.00  0.00    -0.050 Cl
ATOM     16  C   LIG    1       -5.623  -1.929  -0.295  0.00  0.00    +0.070 A 
ENDBRANCH   6  10
ENDBRANCH   1   9
BRANCH   2  17
ATOM     17  C   LIG    1        1.245   2.180   0.006  0.00  0.00    +0.580 C 
ATOM     18  N   LIG    1        2.421   1.522  -0.013  0.00  0.00    -0.660 N 
ATOM     19  H   LIG    1        2.436   0.554   0.052  0.00  0.00    +0.410 HD
ATOM     20  O   LIG    1        1.229   3.397   0.009  0.00  0.00    -0.500 OA
BRANCH  18  21
ATOM     21  C   LIG    1        3.616   2.232  -0.126  0.00  0.00    +0.160 A 
ATOM     22  C   LIG    1        3.748   3.471   0.465  0.00  0.00    +0.030 A 
ATOM     23  C   LIG    1        4.939   4.182   0.362  0.00  0.00    +0.060 A 
ATOM     24  C   LIG    1        5.999   3.684  -0.332  0.00  0.00    +0.030 A 
ATOM     25  C   LIG    1        5.906   2.427  -0.954  0.00  0.00    +0.140 A 
ATOM     26  N   LIG    1        6.936   1.920  -1.640  0.00  0.00    -0.470 NA
ATOM     27  C   LIG    1        6.855   0.749  -2.224  0.00  0.00    +0.290 A 
ATOM     28  C   LIG    1        5.699  -0.024  -2.159  0.00  0.00    -0.030 A 
ATOM     29  C   LIG    1        4.609   0.436  -1.474  0.00  0.00    +0.070 A 
ATOM     30  C   LIG    1        4.699   1.692  -0.850  0.00  0.00    -0.110 A 
ENDBRANCH  18  21
ENDBRANCH   2  17
BRANCH   2  31
ATOM     31  C   LIG    1        0.002  -0.004   0.022  0.00  0.00    +0.230 C 
ATOM     32  N   LIG    1        0.017  -1.139   0.020  0.00  0.00    -0.390 NA
ENDBRANCH   2  31
TORSDOF 5
