REMARK  Name = ZINCvU0000000Jgs.0
REMARK                            x       y       z     vdW  Elec       q    Type
REMARK                         _______ _______ _______ _____ _____    ______ ____
ROOT
ATOM      1  C   LIG    1       -0.758   1.968  -1.230  0.00  0.00    -0.020 C 
ATOM      2  C   LIG    1       -0.040   1.477  -2.490  0.00  0.00    +0.050 C 
ATOM      3  C   LIG    1       -0.748   2.038  -3.725  0.00  0.00    +0.210 C 
ATOM      4  N   LIG    1       -0.739   3.506  -3.673  0.00  0.00    -0.440 N 
ATOM      5  C   LIG    1       -1.464   4.000  -2.496  0.00  0.00    +0.190 C 
ATOM      6  C   LIG    1       -0.776   3.499  -1.224  0.00  0.00    +0.070 C 
ENDROOT
BRANCH   4   7
ATOM      7  C   LIG    1       -1.255   4.045  -4.834  0.00  0.00    +0.310 A 
ATOM      8  N   LIG    1       -0.818   3.793  -6.020  0.00  0.00    -0.490 NA
ATOM      9  C   LIG    1       -1.428   4.398  -7.059  0.00  0.00    +0.110 A 
ATOM     10  C   LIG    1       -1.143   4.290  -8.436  0.00  0.00    +0.130 A 
ATOM     11  C   LIG    1       -1.880   4.991  -9.356  0.00  0.00    -0.160 A 
ATOM     12  C   LIG    1       -2.917   5.816  -8.949  0.00  0.00    +0.080 A 
ATOM     13  C   LIG    1       -3.214   5.938  -7.609  0.00  0.00    +0.080 A 
ATOM     14  C   LIG    1       -2.476   5.234  -6.661  0.00  0.00    -0.160 A 
ATOM     15  S   LIG    1       -2.605   5.169  -4.905  0.00  0.00    +0.050 S 
BRANCH  11  16
ATOM     16  C   LIG    1       -1.561   4.862 -10.823  0.00  0.00    +0.510 C 
ATOM     17  F   LIG    1       -0.196   4.600 -10.982  0.00  0.00    -0.170 F 
ATOM     18  F   LIG    1       -1.886   6.055 -11.478  0.00  0.00    -0.170 F 
ATOM     19  F   LIG    1       -2.305   3.812 -11.372  0.00  0.00    -0.170 F 
ENDBRANCH  11  16
ENDBRANCH   4   7
BRANCH   1  20
ATOM     20  C   LIG    1       -0.018   1.461   0.010  0.00  0.00    +0.240 C 
ATOM     21  C   LIG    1        1.418   1.990  -0.001  0.00  0.00    +0.020 C 
BRANCH  20  23
ATOM     22  C   LIG    1        0.124  -0.683   1.160  0.00  0.00    +0.520 C 
ATOM     23  N   LIG    1        0.002  -0.004   0.002  0.00  0.00    -0.730 N 
ATOM     24  H   LIG    1       -0.072  -0.485  -0.837  0.00  0.00    +0.400 HD
ATOM     25  O   LIG    1        0.217  -0.081   2.209  0.00  0.00    -0.540 OA
BRANCH  22  26
ATOM     26  C   LIG    1        0.144  -2.190   1.152  0.00  0.00    -0.010 C 
ATOM     27  C   LIG    1        1.325  -2.679   0.310  0.00  0.00    +0.040 C 
BRANCH  26  28
ATOM     28  C   LIG    1        0.291  -2.705   2.585  0.00  0.00    +0.040 C 
BRANCH  28  29
ATOM     29  C   LIG    1        0.186  -4.232   2.590  0.00  0.00    +0.020 C 
BRANCH  29  30
ATOM     30  C   LIG    1        0.333  -4.748   4.023  0.00  0.00    +0.160 C 
BRANCH  30  32
ATOM     31  C   LIG    1        0.360  -6.760   5.326  0.00  0.00    +0.200 C 
ATOM     32  O   LIG    1        0.235  -6.174   4.028  0.00  0.00    -0.390 OA
ENDBRANCH  30  32
ENDBRANCH  29  30
ENDBRANCH  28  29
ENDBRANCH  26  28
ENDBRANCH  22  26
ENDBRANCH  20  23
ENDBRANCH   1  20
TORSDOF 9
