REMARK  Name = ZINCrH00000No57B.0
REMARK                            x       y       z     vdW  Elec       q    Type
REMARK                         _______ _______ _______ _____ _____    ______ ____
ROOT
ATOM      1  N   LIG    1        0.620   8.200  -1.242  0.00  0.00    -0.580 N 
ATOM      2  H   LIG    1        1.066   7.844  -2.026  0.00  0.00    +0.380 HD
ATOM      3  C   LIG    1        0.512   9.534  -1.076  0.00  0.00    +0.580 C 
ATOM      4  O   LIG    1       -0.048   9.981  -0.093  0.00  0.00    -0.510 OA
ENDROOT
BRANCH   3   5
ATOM      5  C   LIG    1        1.073  10.450  -2.086  0.00  0.00    -0.200 A 
ATOM      6  C   LIG    1        1.722   9.938  -3.214  0.00  0.00    +0.090 A 
ATOM      7  C   LIG    1        2.240  10.795  -4.157  0.00  0.00    -0.080 A 
ATOM      8  C   LIG    1        2.128  12.172  -3.984  0.00  0.00    +0.250 A 
ATOM      9  C   LIG    1        1.487  12.686  -2.860  0.00  0.00    -0.080 A 
ATOM     10  C   LIG    1        0.962  11.833  -1.916  0.00  0.00    +0.140 A 
BRANCH   8  11
ATOM     11  N   LIG    1        2.657  13.036  -4.937  0.00  0.00    -0.620 N 
BRANCH  11  12
ATOM     12  C   LIG    1        2.540  14.486  -4.756  0.00  0.00    +0.270 C 
ATOM     13  C   LIG    1        3.755  15.003  -3.984  0.00  0.00    +0.020 C 
ENDBRANCH  11  12
BRANCH  11  14
ATOM     14  C   LIG    1        3.332  12.498  -6.120  0.00  0.00    +0.270 C 
ATOM     15  C   LIG    1        2.311  12.297  -7.242  0.00  0.00    +0.020 C 
ENDBRANCH  11  14
ENDBRANCH   8  11
ENDBRANCH   3   5
BRANCH   1  17
ATOM     16  C   LIG    1        0.191   6.046  -0.443  0.00  0.00    +0.230 C 
ATOM     17  N   LIG    1        0.087   7.330  -0.283  0.00  0.00    -0.220 NA
BRANCH  16  21
ATOM     18  C   LIG    1       -1.428   3.410   2.470  0.00  0.00    +0.120 A 
ATOM     19  C   LIG    1       -1.538   4.783   2.640  0.00  0.00    -0.040 A 
ATOM     20  C   LIG    1       -1.014   5.641   1.697  0.00  0.00    +0.070 A 
ATOM     21  C   LIG    1       -0.370   5.130   0.567  0.00  0.00    -0.060 A 
ATOM     22  C   LIG    1       -0.255   3.747   0.400  0.00  0.00    +0.000 A 
ATOM     23  C   LIG    1       -0.787   2.893   1.346  0.00  0.00    +0.090 A 
BRANCH  23  24
ATOM     24  O   LIG    1       -0.682   1.547   1.184  0.00  0.00    -0.300 OA
ATOM     25  C   LIG    1       -0.013   1.086   0.008  0.00  0.00    +0.240 C 
ENDBRANCH  23  24
BRANCH  18  26
ATOM     26  O   LIG    1       -1.946   2.568   3.404  0.00  0.00    -0.300 OA
BRANCH  26  28
ATOM     27  C   LIG    1       -3.104   2.069   5.465  0.00  0.00    +0.070 C 
ATOM     28  C   LIG    1       -2.589   3.166   4.531  0.00  0.00    +0.170 C 
ENDBRANCH  26  28
ENDBRANCH  18  26
ENDBRANCH  16  21
ENDBRANCH   1  17
TORSDOF 9
