REMARK  Name = ZINCqH0000037UOR.0
REMARK                            x       y       z     vdW  Elec       q    Type
REMARK                         _______ _______ _______ _____ _____    ______ ____
ROOT
ATOM      1  N   LIG    1       -3.631   4.768  -1.570  0.00  0.00    -0.940 N 
ATOM      2  C   LIG    1       -4.400   3.735  -2.285  0.00  0.00    +0.320 C 
ATOM      3  C   LIG    1       -3.681   3.473  -3.616  0.00  0.00    +0.210 C 
ATOM      4  N   LIG    1       -3.674   4.706  -4.408  0.00  0.00    -0.480 N 
ATOM      5  C   LIG    1       -3.152   5.800  -3.713  0.00  0.00    +0.090 A 
ATOM      6  C   LIG    1       -2.643   6.873  -4.435  0.00  0.00    +0.000 A 
ATOM      7  C   LIG    1       -2.140   7.981  -3.773  0.00  0.00    +0.020 A 
ATOM      8  C   LIG    1       -2.125   8.021  -2.391  0.00  0.00    +0.030 A 
ATOM      9  C   LIG    1       -2.621   6.954  -1.664  0.00  0.00    -0.010 A 
ATOM     10  C   LIG    1       -3.135   5.846  -2.320  0.00  0.00    +0.150 A 
ENDROOT
BRANCH   1  11
ATOM     11  S   LIG    1       -3.368   4.664   0.062  0.00  0.00    +2.690 S 
ATOM     12  O   LIG    1       -3.628   3.315   0.425  0.00  0.00    -0.940 OA
ATOM     13  O   LIG    1       -2.126   5.309   0.309  0.00  0.00    -0.940 OA
BRANCH  11  17
ATOM     14  C   LIG    1       -8.088   5.208   2.238  0.00  0.00    +0.120 C 
ATOM     15  C   LIG    1       -6.776   5.833   1.839  0.00  0.00    -0.140 A 
ATOM     16  C   LIG    1       -5.807   5.068   1.219  0.00  0.00    +0.160 A 
ATOM     17  C   LIG    1       -4.603   5.641   0.853  0.00  0.00    -0.690 A 
ATOM     18  C   LIG    1       -4.369   6.980   1.102  0.00  0.00    +0.150 A 
ATOM     19  C   LIG    1       -5.335   7.745   1.728  0.00  0.00    -0.020 A 
ATOM     20  C   LIG    1       -6.540   7.173   2.095  0.00  0.00    +0.160 A 
ATOM     21  F   LIG    1       -7.487   7.922   2.703  0.00  0.00    -0.120 F 
ENDBRANCH  11  17
ENDBRANCH   1  11
BRANCH   4  22
ATOM     22  C   LIG    1       -2.972   4.509  -5.683  0.00  0.00    +0.240 C 
BRANCH  22  23
ATOM     23  C   LIG    1       -3.863   3.713  -6.639  0.00  0.00    +0.460 C 
ATOM     24  F   LIG    1       -4.049   2.421  -6.137  0.00  0.00    -0.180 F 
ATOM     25  F   LIG    1       -3.253   3.643  -7.896  0.00  0.00    -0.180 F 
ATOM     26  F   LIG    1       -5.104   4.350  -6.758  0.00  0.00    -0.170 F 
ENDBRANCH  22  23
ENDBRANCH   4  22
TORSDOF 4
