REMARK  Name = ZINCqH0000036ojA.1
REMARK                            x       y       z     vdW  Elec       q    Type
REMARK                         _______ _______ _______ _____ _____    ______ ____
ROOT
ATOM      1  C   LIG    1       -0.005   1.096  -0.041  0.00  0.00    +0.190 C 
ENDROOT
BRANCH   1   7
ATOM      2  C   LIG    1       -0.603   0.678  -2.441  0.00  0.00    +0.130 A 
ATOM      3  C   LIG    1       -1.259   1.032  -3.610  0.00  0.00    -0.080 A 
ATOM      4  C   LIG    1       -2.011   2.191  -3.654  0.00  0.00    +0.040 A 
ATOM      5  C   LIG    1       -2.115   2.993  -2.533  0.00  0.00    -0.040 A 
ATOM      6  C   LIG    1       -1.466   2.638  -1.364  0.00  0.00    +0.080 A 
ATOM      7  C   LIG    1       -0.712   1.482  -1.315  0.00  0.00    -0.110 A 
BRANCH   2   9
ATOM      8  C   LIG    1        0.211  -1.236  -3.592  0.00  0.00    +0.250 C 
ATOM      9  O   LIG    1        0.143  -0.458  -2.396  0.00  0.00    -0.320 OA
ENDBRANCH   2   9
ENDBRANCH   1   7
BRANCH   1  10
ATOM     10  N   LIG    1       -0.699   1.699   1.105  0.00  0.00    -0.510 NA
ATOM     11  C   LIG    1       -2.089   1.188   1.215  0.00  0.00    +0.170 C 
ATOM     12  C   LIG    1       -2.460   1.486   2.690  0.00  0.00    +0.030 C 
ATOM     13  C   LIG    1       -1.139   1.207   3.442  0.00  0.00    +0.010 C 
ATOM     14  C   LIG    1       -0.035   1.336   2.376  0.00  0.00    +0.170 C 
ENDBRANCH   1  10
BRANCH   1  15
ATOM     15  C   LIG    1        1.438   1.599  -0.086  0.00  0.00    +0.300 C 
BRANCH  15  16
ATOM     16  N   LIG    1        1.445   3.064  -0.091  0.00  0.00    -0.720 N 
ATOM     17  H   LIG    1        0.613   3.553   0.008  0.00  0.00    +0.400 HD
ATOM     18  C   LIG    1        2.607   3.733  -0.232  0.00  0.00    +0.710 C 
ATOM     19  N   LIG    1        2.612   5.081  -0.236  0.00  0.00    -0.680 N 
ATOM     20  H   LIG    1        1.775   5.569  -0.207  0.00  0.00    +0.410 HD
ATOM     21  O   LIG    1        3.649   3.120  -0.356  0.00  0.00    -0.580 OA
BRANCH  19  22
ATOM     22  C   LIG    1        3.828   5.776  -0.283  0.00  0.00    +0.140 A 
ATOM     23  C   LIG    1        4.900   5.255  -0.994  0.00  0.00    +0.050 A 
ATOM     24  C   LIG    1        6.098   5.943  -1.038  0.00  0.00    +0.020 A 
ATOM     25  C   LIG    1        6.230   7.149  -0.375  0.00  0.00    +0.020 A 
ATOM     26  C   LIG    1        5.164   7.671   0.335  0.00  0.00    +0.000 A 
ATOM     27  C   LIG    1        3.961   6.992   0.379  0.00  0.00    +0.070 A 
ATOM     28  F   LIG    1        2.918   7.505   1.067  0.00  0.00    -0.140 F 
ENDBRANCH  19  22
ENDBRANCH  15  16
ENDBRANCH   1  15
TORSDOF 6
