REMARK  Name = ZINCrD000000C9Cc.0
REMARK                            x       y       z     vdW  Elec       q    Type
REMARK                         _______ _______ _______ _____ _____    ______ ____
ROOT
ATOM      1  C   LIG    1        1.353   1.739   0.010  0.00  0.00    +0.210 A 
ATOM      2  C   LIG    1        0.242   0.907  -0.007  0.00  0.00    +0.010 A 
ATOM      3  C   LIG    1       -1.028   1.449  -0.027  0.00  0.00    +0.080 A 
ATOM      4  C   LIG    1       -1.204   2.823  -0.019  0.00  0.00    -0.010 A 
ATOM      5  C   LIG    1       -0.113   3.665  -0.003  0.00  0.00    +0.070 A 
ATOM      6  C   LIG    1        1.178   3.132   0.012  0.00  0.00    -0.170 A 
ENDROOT
BRANCH   1   9
ATOM      7  O   LIG    1        1.944  -0.635  -1.029  0.00  0.00    -0.480 OA
ATOM      8  C   LIG    1        2.848  -0.038  -0.474  0.00  0.00    +0.600 C 
ATOM      9  N   LIG    1        2.634   1.195   0.025  0.00  0.00    -0.640 N 
ATOM     10  H   LIG    1        3.373   1.704   0.394  0.00  0.00    +0.430 HD
BRANCH   8  11
ATOM     11  C   LIG    1        4.169  -0.661  -0.349  0.00  0.00    -0.000 A 
ATOM     12  C   LIG    1        4.520  -1.899  -0.807  0.00  0.00    +0.070 A 
ATOM     13  C   LIG    1        5.870  -2.084  -0.474  0.00  0.00    +0.100 A 
ATOM     14  C   LIG    1        6.280  -0.967   0.166  0.00  0.00    +0.040 A 
ATOM     15  O   LIG    1        5.253  -0.109   0.234  0.00  0.00    -0.130 OA
BRANCH  14  16
ATOM     16  N   LIG    1        7.640  -0.727   0.698  0.00  0.00    +0.060 N 
ATOM     17  O   LIG    1        7.899   0.323   1.259  0.00  0.00    -0.120 OA
ATOM     18  O   LIG    1        8.501  -1.579   0.574  0.00  0.00    -0.110 OA
ENDBRANCH  14  16
ENDBRANCH   8  11
ENDBRANCH   1   9
BRANCH   6  19
ATOM     19  C   LIG    1        2.350   4.027   0.031  0.00  0.00    +0.570 C 
ATOM     20  N   LIG    1        2.179   5.359   0.140  0.00  0.00    -0.720 N 
ATOM     21  H   LIG    1        1.285   5.729   0.207  0.00  0.00    +0.400 HD
ATOM     22  O   LIG    1        3.471   3.562  -0.053  0.00  0.00    -0.540 OA
BRANCH  20  23
ATOM     23  C   LIG    1        3.344   6.248   0.159  0.00  0.00    +0.320 C 
BRANCH  23  24
ATOM     24  C   LIG    1        2.882   7.677   0.288  0.00  0.00    -0.110 A 
ATOM     25  C   LIG    1        2.625   8.426  -0.845  0.00  0.00    +0.020 A 
ATOM     26  C   LIG    1        2.198   9.735  -0.726  0.00  0.00    +0.010 A 
ATOM     27  C   LIG    1        2.038  10.299   0.525  0.00  0.00    +0.010 A 
ATOM     28  C   LIG    1        2.300   9.552   1.659  0.00  0.00    +0.010 A 
ATOM     29  C   LIG    1        2.722   8.241   1.540  0.00  0.00    +0.020 A 
ENDBRANCH  23  24
ENDBRANCH  20  23
ENDBRANCH   6  19
TORSDOF 6
