REMARK  Name = ZINCkj000005iJzz.0
REMARK                            x       y       z     vdW  Elec       q    Type
REMARK                         _______ _______ _______ _____ _____    ______ ____
ROOT
ATOM      1  C   LIG    1       -0.125   1.642   0.073  0.00  0.00    +0.230 C 
ENDROOT
BRANCH   1   5
ATOM      2  C   LIG    1       -0.446   2.323   4.280  0.00  0.00    +0.140 A 
ATOM      3  C   LIG    1        0.661   2.786   3.584  0.00  0.00    -0.010 A 
ATOM      4  C   LIG    1        0.762   2.565   2.224  0.00  0.00    +0.060 A 
ATOM      5  C   LIG    1       -0.238   1.882   1.557  0.00  0.00    -0.130 A 
ATOM      6  C   LIG    1       -1.345   1.424   2.248  0.00  0.00    +0.080 A 
ATOM      7  C   LIG    1       -1.448   1.638   3.609  0.00  0.00    -0.080 A 
BRANCH   2   9
ATOM      8  C   LIG    1       -1.714   2.033   6.270  0.00  0.00    +0.250 C 
ATOM      9  O   LIG    1       -0.547   2.539   5.618  0.00  0.00    -0.310 OA
ENDBRANCH   2   9
ENDBRANCH   1   5
BRANCH   1  10
ATOM     10  N   LIG    1       -0.788   0.377  -0.270  0.00  0.00    -0.530 NA
ATOM     11  C   LIG    1       -0.059  -0.329  -1.332  0.00  0.00    +0.190 C 
ATOM     12  C   LIG    1       -2.188   0.603  -0.653  0.00  0.00    +0.200 C 
ENDBRANCH   1  10
BRANCH   1  13
ATOM     13  C   LIG    1       -0.796   2.791  -0.682  0.00  0.00    +0.260 C 
BRANCH  13  14
ATOM     14  N   LIG    1       -0.598   2.610  -2.122  0.00  0.00    -0.700 NA
ATOM     15  H   LIG    1       -0.030   1.894  -2.447  0.00  0.00    +0.430 HD
BRANCH  14  16
ATOM     16  C   LIG    1       -1.217   3.455  -3.012  0.00  0.00    +0.740 C 
BRANCH  16  17
ATOM     17  N   LIG    1       -1.980   4.417  -2.575  0.00  0.00    -0.770 NA
ATOM     18  H   LIG    1       -2.111   4.537  -1.621  0.00  0.00    +0.440 HD
ATOM     19  H   LIG    1       -2.417   5.013  -3.203  0.00  0.00    +0.440 HD
ENDBRANCH  16  17
BRANCH  16  20
ATOM     20  N   LIG    1       -1.032   3.285  -4.364  0.00  0.00    -0.670 NA
ATOM     21  H   LIG    1       -0.464   2.569  -4.689  0.00  0.00    +0.430 HD
BRANCH  20  22
ATOM     22  C   LIG    1       -1.692   4.185  -5.313  0.00  0.00    +0.170 C 
ATOM     23  C   LIG    1       -2.344   3.557  -6.546  0.00  0.00    +0.060 C 
ATOM     24  C   LIG    1       -1.046   4.357  -6.689  0.00  0.00    +0.070 C 
ENDBRANCH  20  22
ENDBRANCH  16  20
ENDBRANCH  14  16
ENDBRANCH  13  14
ENDBRANCH   1  13
TORSDOF 9
