REMARK  Name = ZINCpk00000KfKtO.0
REMARK                            x       y       z     vdW  Elec       q    Type
REMARK                         _______ _______ _______ _____ _____    ______ ____
ROOT
ATOM      1  C   LIG    1        2.385   0.824  -4.322  0.00  0.00    +0.490 C 
ATOM      2  N   LIG    1        3.002   2.079  -3.893  0.00  0.00    -0.750 N 
ATOM      3  H   LIG    1        2.561   2.924  -4.071  0.00  0.00    +0.410 HD
ATOM      4  C   LIG    1        4.190   2.056  -3.246  0.00  0.00    +0.570 C 
ATOM      5  C   LIG    1        4.834   0.740  -3.059  0.00  0.00    -0.170 A 
ATOM      6  C   LIG    1        5.846   0.552  -2.123  0.00  0.00    +0.090 A 
ATOM      7  C   LIG    1        6.413  -0.697  -1.974  0.00  0.00    +0.000 A 
ATOM      8  C   LIG    1        5.979  -1.759  -2.752  0.00  0.00    +0.050 A 
ATOM      9  C   LIG    1        4.978  -1.584  -3.687  0.00  0.00    +0.030 A 
ATOM     10  C   LIG    1        4.396  -0.335  -3.852  0.00  0.00    +0.130 A 
ATOM     11  O   LIG    1        4.707   3.077  -2.835  0.00  0.00    -0.520 OA
ATOM     12  N   LIG    1        3.393  -0.131  -4.785  0.00  0.00    -0.470 N 
ENDROOT
BRANCH   1  16
ATOM     13  C   LIG    1        0.249  -0.887  -1.035  0.00  0.00    +0.110 A 
ATOM     14  C   LIG    1        0.791  -1.705  -2.014  0.00  0.00    -0.040 A 
ATOM     15  C   LIG    1        1.481  -1.148  -3.075  0.00  0.00    +0.070 A 
ATOM     16  C   LIG    1        1.631   0.223  -3.163  0.00  0.00    -0.110 A 
ATOM     17  C   LIG    1        1.088   1.045  -2.193  0.00  0.00    -0.020 A 
ATOM     18  C   LIG    1        0.401   0.493  -1.124  0.00  0.00    +0.100 A 
BRANCH  13  20
ATOM     19  C   LIG    1       -0.545  -2.857   0.035  0.00  0.00    +0.250 C 
ATOM     20  O   LIG    1       -0.429  -1.433   0.010  0.00  0.00    -0.310 OA
ENDBRANCH  13  20
BRANCH  18  21
ATOM     21  O   LIG    1       -0.130   1.300  -0.166  0.00  0.00    -0.310 OA
ATOM     22  C   LIG    1        0.065   2.707  -0.322  0.00  0.00    +0.230 C 
ENDBRANCH  18  21
ENDBRANCH   1  16
BRANCH  12  23
ATOM     23  C   LIG    1        3.954   0.282  -6.079  0.00  0.00    +0.230 C 
BRANCH  23  24
ATOM     24  C   LIG    1        2.962  -0.014  -7.174  0.00  0.00    +0.520 C 
ATOM     25  O   LIG    1        1.938  -0.612  -6.919  0.00  0.00    -0.520 OA
ATOM     26  N   LIG    1        3.213   0.385  -8.437  0.00  0.00    -0.860 N 
ATOM     27  H   LIG    1        2.575   0.194  -9.142  0.00  0.00    +0.410 HD
ATOM     28  H   LIG    1        4.032   0.863  -8.640  0.00  0.00    +0.400 HD
ENDBRANCH  23  24
ENDBRANCH  12  23
TORSDOF 5
