REMARK  Name = ZINCrD00000760VM.0
REMARK                            x       y       z     vdW  Elec       q    Type
REMARK                         _______ _______ _______ _____ _____    ______ ____
ROOT
ATOM      1  O   LIG    1       -0.234   5.387   0.032  0.00  0.00    -0.530 OA
ATOM      2  C   LIG    1       -0.133   4.171   0.025  0.00  0.00    +0.480 A 
ATOM      3  C   LIG    1        1.142   3.563   0.010  0.00  0.00    -0.010 A 
ATOM      4  C   LIG    1        1.199   2.200   0.002  0.00  0.00    +0.100 A 
ATOM      5  C   LIG    1       -0.018   1.479   0.010  0.00  0.00    +0.100 A 
ATOM      6  N   LIG    1       -1.165   2.117   0.019  0.00  0.00    -0.220 NA
ATOM      7  N   LIG    1       -1.236   3.399   0.031  0.00  0.00    -0.330 N 
ENDROOT
BRANCH   5   8
ATOM      8  C   LIG    1        0.002  -0.004   0.002  0.00  0.00    -0.040 A 
ATOM      9  C   LIG    1        1.217  -0.686  -0.019  0.00  0.00    +0.070 A 
ATOM     10  C   LIG    1        1.231  -2.066  -0.022  0.00  0.00    -0.010 A 
ATOM     11  C   LIG    1        0.040  -2.773  -0.015  0.00  0.00    +0.110 A 
ATOM     12  C   LIG    1       -1.171  -2.099   0.002  0.00  0.00    -0.010 A 
ATOM     13  F   LIG    1        0.058  -4.124  -0.022  0.00  0.00    -0.140 F 
ATOM     14  C   LIG    1       -1.194  -0.719   0.010  0.00  0.00    +0.080 A 
ENDBRANCH   5   8
BRANCH   7  15
ATOM     15  C   LIG    1       -2.554   4.039   0.047  0.00  0.00    +0.300 C 
BRANCH  15  16
ATOM     16  C   LIG    1       -3.026   4.269  -1.390  0.00  0.00    +0.260 C 
BRANCH  16  17
ATOM     17  C   LIG    1       -4.382   4.928  -1.374  0.00  0.00    -0.150 A 
ATOM     18  C   LIG    1       -4.480   6.302  -1.256  0.00  0.00    +0.060 A 
ATOM     19  C   LIG    1       -5.721   6.908  -1.247  0.00  0.00    -0.050 A 
ATOM     20  C   LIG    1       -6.870   6.136  -1.345  0.00  0.00    +0.110 A 
ATOM     21  C   LIG    1       -6.769   4.757  -1.457  0.00  0.00    +0.010 A 
ATOM     22  C   LIG    1       -5.525   4.156  -1.472  0.00  0.00    +0.070 A 
BRANCH  20  23
ATOM     23  O   LIG    1       -8.092   6.730  -1.331  0.00  0.00    -0.320 OA
BRANCH  23  24
ATOM     24  C   LIG    1       -8.120   8.154  -1.212  0.00  0.00    +0.590 C 
ATOM     25  F   LIG    1       -7.437   8.725  -2.291  0.00  0.00    -0.200 F 
ATOM     26  F   LIG    1       -7.504   8.535  -0.016  0.00  0.00    -0.200 F 
ENDBRANCH  23  24
ENDBRANCH  20  23
ENDBRANCH  16  17
BRANCH  16  27
ATOM     27  O   LIG    1       -2.094   5.114  -2.068  0.00  0.00    -0.550 OA
ATOM     28  H   LIG    1       -1.984   5.984  -1.661  0.00  0.00    +0.380 HD
ENDBRANCH  16  27
ENDBRANCH  15  16
ENDBRANCH   7  15
TORSDOF 7
