REMARK  Name = ZINCpk00000jN3Nb.0
REMARK                            x       y       z     vdW  Elec       q    Type
REMARK                         _______ _______ _______ _____ _____    ______ ____
ROOT
ATOM      1  C   LIG    1        1.045   0.376   4.366  0.00  0.00    +0.360 C 
ENDROOT
BRANCH   1   2
ATOM      2  N   LIG    1        2.458   0.574   4.698  0.00  0.00    -0.560 N 
ATOM      3  C   LIG    1        3.438  -0.267   4.348  0.00  0.00    +0.710 C 
ATOM      4  N   LIG    1        4.647   0.148   4.772  0.00  0.00    -0.710 N 
ATOM      5  H   LIG    1        5.497  -0.299   4.632  0.00  0.00    +0.440 HD
ATOM      6  C   LIG    1        4.424   1.407   5.494  0.00  0.00    +0.130 C 
ATOM      7  C   LIG    1        4.850   1.271   6.952  0.00  0.00    +0.050 C 
ATOM      8  C   LIG    1        6.359   1.023   7.024  0.00  0.00    +0.020 C 
ATOM      9  C   LIG    1        7.098   2.190   6.367  0.00  0.00    +0.010 C 
ATOM     10  C   LIG    1        6.679   2.299   4.899  0.00  0.00    +0.020 C 
ATOM     11  C   LIG    1        5.171   2.551   4.817  0.00  0.00    +0.060 C 
ATOM     12  O   LIG    1        3.258  -1.289   3.715  0.00  0.00    -0.540 OA
ATOM     13  C   LIG    1        2.931   1.625   5.400  0.00  0.00    +0.540 C 
ATOM     14  O   LIG    1        2.294   2.549   5.857  0.00  0.00    -0.460 OA
ENDBRANCH   1   2
BRANCH   1  17
ATOM     15  N   LIG    1       -0.504   0.978   2.534  0.00  0.00    -0.700 N 
ATOM     16  H   LIG    1       -1.207   0.516   3.018  0.00  0.00    +0.410 HD
ATOM     17  C   LIG    1        0.742   1.032   3.044  0.00  0.00    +0.510 C 
ATOM     18  O   LIG    1        1.620   1.609   2.438  0.00  0.00    -0.520 OA
BRANCH  15  22
ATOM     19  C   LIG    1       -2.014   2.388  -0.560  0.00  0.00    +0.100 C 
ATOM     20  C   LIG    1       -0.814   1.625  -1.200  0.00  0.00    +0.020 C 
ATOM     21  C   LIG    1       -0.013   1.086   0.008  0.00  0.00    +0.030 C 
ATOM     22  C   LIG    1       -0.798   1.617   1.249  0.00  0.00    +0.130 C 
ATOM     23  C   LIG    1       -0.625   3.166   1.159  0.00  0.00    +0.210 C 
ATOM     24  C   LIG    1       -2.277   1.508   0.712  0.00  0.00    +0.030 C 
ATOM     25  O   LIG    1       -1.423   3.578   0.029  0.00  0.00    -0.370 OA
BRANCH  19  27
ATOM     26  C   LIG    1       -2.768   3.349  -2.740  0.00  0.00    +0.030 C 
ATOM     27  C   LIG    1       -3.219   2.614  -1.476  0.00  0.00    +0.070 C 
ENDBRANCH  19  27
ENDBRANCH  15  22
ENDBRANCH   1  17
TORSDOF 4
