REMARK  Name = ZINCrD00000l8AuX.2
REMARK                            x       y       z     vdW  Elec       q    Type
REMARK                         _______ _______ _______ _____ _____    ______ ____
ROOT
ATOM      1  N   LIG    1       -0.707   1.550   1.216  0.00  0.00    -0.520 NA
ATOM      2  C   LIG    1       -2.074   1.019   1.284  0.00  0.00    +0.180 C 
ATOM      3  C   LIG    1       -2.877   1.520   0.082  0.00  0.00    +0.040 C 
ATOM      4  C   LIG    1       -2.195   1.061  -1.209  0.00  0.00    +0.030 C 
ATOM      5  C   LIG    1       -0.757   1.587  -1.232  0.00  0.00    +0.010 C 
ATOM      6  C   LIG    1       -0.015   1.083   0.008  0.00  0.00    +0.220 C 
ENDROOT
BRANCH   5   7
ATOM      7  C   LIG    1       -0.059   1.090  -2.472  0.00  0.00    +0.520 C 
ATOM      8  N   LIG    1       -0.539   1.411  -3.690  0.00  0.00    -0.670 N 
ATOM      9  H   LIG    1       -1.370   1.906  -3.769  0.00  0.00    +0.410 HD
ATOM     10  O   LIG    1        0.934   0.401  -2.374  0.00  0.00    -0.520 OA
BRANCH   8  11
ATOM     11  C   LIG    1        0.162   1.032  -4.840  0.00  0.00    +0.140 A 
ATOM     12  C   LIG    1        0.169   1.860  -5.955  0.00  0.00    -0.020 A 
ATOM     13  C   LIG    1        0.866   1.485  -7.087  0.00  0.00    +0.030 A 
ATOM     14  C   LIG    1        1.547   0.283  -7.115  0.00  0.00    -0.010 A 
ATOM     15  C   LIG    1        1.538  -0.547  -6.008  0.00  0.00    +0.030 A 
ATOM     16  C   LIG    1        0.847  -0.175  -4.871  0.00  0.00    +0.020 A 
ENDBRANCH   8  11
ENDBRANCH   5   7
BRANCH   1  17
ATOM     17  C   LIG    1        0.053   1.203   2.425  0.00  0.00    +0.220 C 
BRANCH  17  19
ATOM     18  O   LIG    1       -1.518   2.619   3.472  0.00  0.00    -0.520 OA
ATOM     19  C   LIG    1       -0.551   1.902   3.616  0.00  0.00    +0.520 C 
ATOM     20  N   LIG    1       -0.015   1.731   4.841  0.00  0.00    -0.730 N 
ATOM     21  H   LIG    1        0.759   1.157   4.956  0.00  0.00    +0.400 HD
BRANCH  20  22
ATOM     22  C   LIG    1       -0.602   2.410   5.998  0.00  0.00    +0.320 C 
BRANCH  22  23
ATOM     23  C   LIG    1        0.177   2.054   7.238  0.00  0.00    -0.100 A 
ATOM     24  C   LIG    1       -0.305   1.092   8.105  0.00  0.00    +0.040 A 
ATOM     25  C   LIG    1        0.413   0.762   9.240  0.00  0.00    +0.010 A 
ATOM     26  C   LIG    1        1.607   1.401   9.514  0.00  0.00    +0.030 A 
ATOM     27  C   LIG    1        2.087   2.368   8.650  0.00  0.00    +0.030 A 
ATOM     28  C   LIG    1        1.373   2.695   7.512  0.00  0.00    -0.020 A 
ATOM     29 CL   LIG    1        1.976   3.909   6.427  0.00  0.00    -0.060 Cl
ENDBRANCH  22  23
ENDBRANCH  20  22
ENDBRANCH  17  19
ENDBRANCH   1  17
TORSDOF 6
