REMARK  Name = ZINCrD000006V7Z7.0
REMARK                            x       y       z     vdW  Elec       q    Type
REMARK                         _______ _______ _______ _____ _____    ______ ____
ROOT
ATOM      1  C   LIG    1       -3.709  -1.070  -0.202  0.00  0.00    +0.250 C 
ATOM      2  C   LIG    1       -4.562  -0.810   1.042  0.00  0.00    +0.070 C 
ENDROOT
BRANCH   1   5
ATOM      3  N   LIG    1       -2.429   1.035   0.019  0.00  0.00    -0.660 N 
ATOM      4  H   LIG    1       -3.273   1.506   0.091  0.00  0.00    +0.410 HD
ATOM      5  C   LIG    1       -2.413  -0.309  -0.090  0.00  0.00    +0.510 C 
ATOM      6  O   LIG    1       -1.357  -0.904  -0.098  0.00  0.00    -0.510 OA
BRANCH   3  10
ATOM      7  C   LIG    1        1.163   3.164   0.043  0.00  0.00    +0.160 A 
ATOM      8  C   LIG    1        1.094   1.909   0.630  0.00  0.00    -0.090 A 
ATOM      9  C   LIG    1       -0.096   1.206   0.625  0.00  0.00    +0.110 A 
ATOM     10  C   LIG    1       -1.222   1.751   0.029  0.00  0.00    +0.070 A 
ATOM     11  C   LIG    1       -1.157   3.014  -0.557  0.00  0.00    +0.150 A 
ATOM     12  C   LIG    1        0.037   3.716  -0.550  0.00  0.00    -0.090 A 
BRANCH   7  14
ATOM     13  C   LIG    1        3.454   3.225   0.677  0.00  0.00    +0.250 C 
ATOM     14  O   LIG    1        2.334   3.854   0.049  0.00  0.00    -0.320 OA
ENDBRANCH   7  14
BRANCH  11  15
ATOM     15  O   LIG    1       -2.261   3.554  -1.137  0.00  0.00    -0.310 OA
ATOM     16  C   LIG    1       -2.119   4.849  -1.723  0.00  0.00    +0.250 C 
ENDBRANCH  11  15
ENDBRANCH   3  10
ENDBRANCH   1   5
BRANCH   1  17
ATOM     17  N   LIG    1       -3.425  -2.503  -0.308  0.00  0.00    -1.090 NA
ATOM     18  H   LIG    1       -2.675  -2.886   0.173  0.00  0.00    +0.430 HD
BRANCH  17  19
ATOM     19  S   LIG    1       -4.385  -3.470  -1.249  0.00  0.00    +2.690 S 
ATOM     20  O   LIG    1       -5.728  -3.168  -0.895  0.00  0.00    -0.930 OA
ATOM     21  O   LIG    1       -3.837  -4.779  -1.171  0.00  0.00    -0.930 OA
BRANCH  19  22
ATOM     22  C   LIG    1       -4.180  -2.943  -2.918  0.00  0.00    -0.680 A 
ATOM     23  C   LIG    1       -5.009  -1.968  -3.442  0.00  0.00    +0.050 A 
ATOM     24  C   LIG    1       -4.844  -1.550  -4.751  0.00  0.00    +0.020 A 
ATOM     25  C   LIG    1       -3.858  -2.115  -5.538  0.00  0.00    +0.110 A 
ATOM     26  C   LIG    1       -3.032  -3.093  -5.016  0.00  0.00    +0.020 A 
ATOM     27 CL   LIG    1       -6.253  -1.264  -2.457  0.00  0.00    -0.010 Cl
ATOM     28  C   LIG    1       -3.193  -3.507  -3.705  0.00  0.00    +0.060 A 
ATOM     29 CL   LIG    1       -2.156  -4.736  -3.050  0.00  0.00    -0.010 Cl
ENDBRANCH  19  22
ENDBRANCH  17  19
ENDBRANCH   1  17
TORSDOF 7
