REMARK  Name = ZINCrH000004osTm.0
REMARK                            x       y       z     vdW  Elec       q    Type
REMARK                         _______ _______ _______ _____ _____    ______ ____
ROOT
ATOM      1  N   LIG    1        4.858   0.027  -0.149  0.00  0.00    -0.600 N 
ATOM      2  C   LIG    1        3.705  -0.665  -0.247  0.00  0.00    +0.570 C 
ATOM      3  O   LIG    1        3.711  -1.875  -0.132  0.00  0.00    -0.520 OA
ATOM      4  C   LIG    1        4.837   1.492  -0.160  0.00  0.00    +0.290 C 
ENDROOT
BRANCH   2   5
ATOM      5  C   LIG    1        2.437   0.047  -0.496  0.00  0.00    -0.150 A 
ATOM      6  C   LIG    1        2.241   1.332   0.016  0.00  0.00    +0.080 A 
ATOM      7  C   LIG    1        1.054   1.992  -0.220  0.00  0.00    -0.010 A 
ATOM      8  C   LIG    1        0.054   1.386  -0.963  0.00  0.00    +0.090 A 
ATOM      9  C   LIG    1        0.234   0.116  -1.474  0.00  0.00    -0.060 A 
ATOM     10  C   LIG    1        1.422  -0.562  -1.247  0.00  0.00    +0.160 A 
BRANCH  10  11
ATOM     11  O   LIG    1        1.602  -1.809  -1.749  0.00  0.00    -0.300 OA
BRANCH  11  12
ATOM     12  C   LIG    1        0.524  -2.365  -2.505  0.00  0.00    +0.600 C 
ATOM     13  F   LIG    1        0.260  -1.549  -3.610  0.00  0.00    -0.200 F 
ATOM     14  F   LIG    1       -0.618  -2.445  -1.701  0.00  0.00    -0.200 F 
ENDBRANCH  11  12
ENDBRANCH  10  11
ENDBRANCH   2   5
BRANCH   1  16
ATOM     15  C   LIG    1        7.090  -0.204  -1.123  0.00  0.00    +0.040 C 
ATOM     16  C   LIG    1        6.132  -0.686  -0.031  0.00  0.00    +0.290 C 
BRANCH  16  17
ATOM     17  C   LIG    1        6.736  -0.415   1.323  0.00  0.00    -0.100 A 
ATOM     18  C   LIG    1        7.078  -1.469   2.150  0.00  0.00    +0.060 A 
ATOM     19  C   LIG    1        7.636  -1.224   3.389  0.00  0.00    +0.000 A 
ATOM     20  C   LIG    1        7.845   0.084   3.808  0.00  0.00    +0.150 A 
ATOM     21  C   LIG    1        7.496   1.140   2.978  0.00  0.00    +0.030 A 
ATOM     22  C   LIG    1        6.942   0.888   1.738  0.00  0.00    +0.050 A 
BRANCH  20  23
ATOM     23  N   LIG    1        8.407   0.336   5.067  0.00  0.00    -0.330 N 
ATOM     24  C   LIG    1        8.789  -0.579   5.980  0.00  0.00    +0.480 A 
ATOM     25  N   LIG    1        9.265   0.059   7.018  0.00  0.00    -0.540 NA
ATOM     26  C   LIG    1        9.197   1.374   6.812  0.00  0.00    +0.430 A 
ATOM     27  N   LIG    1        8.679   1.593   5.631  0.00  0.00    -0.310 NA
ENDBRANCH  20  23
ENDBRANCH  16  17
ENDBRANCH   1  16
TORSDOF 6
