REMARK  Name = ZINCpk00000y6ylv.0
REMARK                            x       y       z     vdW  Elec       q    Type
REMARK                         _______ _______ _______ _____ _____    ______ ____
ROOT
ATOM      1  C   LIG    1        4.070  -0.889  -0.228  0.00  0.00    +0.290 C 
ATOM      2  N   LIG    1        3.117  -2.002  -0.230  0.00  0.00    -0.590 N 
ATOM      3  C   LIG    1        1.881  -1.832   0.280  0.00  0.00    +0.590 C 
ATOM      4  O   LIG    1        1.125  -2.781   0.372  0.00  0.00    -0.520 OA
ENDROOT
BRANCH   3   5
ATOM      5  C   LIG    1        1.448  -0.503   0.725  0.00  0.00    +0.030 A 
ATOM      6  C   LIG    1        2.204   0.650   0.705  0.00  0.00    +0.020 A 
ATOM      7  C   LIG    1        1.403   1.676   1.216  0.00  0.00    +0.080 A 
ATOM      8  C   LIG    1        0.198   1.143   1.532  0.00  0.00    +0.060 A 
ATOM      9  N   LIG    1        0.212  -0.180   1.238  0.00  0.00    -0.380 N 
ATOM     10  C   LIG    1       -0.901  -1.111   1.436  0.00  0.00    +0.360 C 
BRANCH   8  11
ATOM     11  N   LIG    1       -0.948   1.886   2.105  0.00  0.00    +0.060 N 
ATOM     12  O   LIG    1       -1.989   1.303   2.351  0.00  0.00    -0.170 OA
ATOM     13  O   LIG    1       -0.849   3.079   2.329  0.00  0.00    -0.130 OA
ENDBRANCH   8  11
ENDBRANCH   3   5
BRANCH   2  14
ATOM     14  C   LIG    1        3.507  -3.299  -0.788  0.00  0.00    +0.310 C 
BRANCH  14  15
ATOM     15  C   LIG    1        3.164  -3.337  -2.279  0.00  0.00    +0.150 C 
ATOM     16  C   LIG    1        3.382  -4.763  -2.845  0.00  0.00    +0.050 C 
ATOM     17  C   LIG    1        2.432  -4.758  -4.073  0.00  0.00    +0.020 C 
ATOM     18  C   LIG    1        1.240  -3.906  -3.590  0.00  0.00    +0.200 C 
ATOM     19  N   LIG    1        1.726  -3.063  -2.483  0.00  0.00    -0.450 N 
BRANCH  19  20
ATOM     20  C   LIG    1        1.509  -1.715  -2.751  0.00  0.00    +0.260 A 
ATOM     21  C   LIG    1        0.217  -1.246  -2.981  0.00  0.00    +0.020 A 
ATOM     22  C   LIG    1        0.054   0.106  -3.237  0.00  0.00    +0.050 A 
ATOM     23  C   LIG    1        1.187   0.907  -3.261  0.00  0.00    +0.180 A 
ATOM     24  N   LIG    1        2.373   0.378  -3.037  0.00  0.00    -0.220 NA
ATOM     25  N   LIG    1        2.531  -0.872  -2.794  0.00  0.00    -0.280 NA
ENDBRANCH  19  20
ENDBRANCH  14  15
ENDBRANCH   2  14
TORSDOF 5
