REMARK  Name = ZINCqH0000007iya.0
REMARK                            x       y       z     vdW  Elec       q    Type
REMARK                         _______ _______ _______ _____ _____    ______ ____
ROOT
ATOM      1  N   LIG    1       -0.579  -5.387  -0.020  0.00  0.00    -0.660 N 
ATOM      2  H   LIG    1       -1.489  -5.064   0.065  0.00  0.00    +0.420 HD
ATOM      3  C   LIG    1        0.448  -4.514  -0.028  0.00  0.00    +0.540 C 
ATOM      4  O   LIG    1        1.590  -4.921  -0.050  0.00  0.00    -0.500 OA
ENDROOT
BRANCH   1   8
ATOM      5  C   LIG    1        0.165  -9.479  -0.360  0.00  0.00    +0.090 A 
ATOM      6  C   LIG    1        1.051  -8.668   0.329  0.00  0.00    -0.010 A 
ATOM      7  C   LIG    1        0.805  -7.312   0.442  0.00  0.00    +0.040 A 
ATOM      8  C   LIG    1       -0.331  -6.761  -0.135  0.00  0.00    +0.140 A 
ATOM      9  C   LIG    1       -1.224  -7.572  -0.823  0.00  0.00    -0.050 A 
ATOM     10  C   LIG    1       -0.975  -8.929  -0.941  0.00  0.00    +0.120 A 
BRANCH   5  12
ATOM     11  C   LIG    1        1.596 -11.309   0.150  0.00  0.00    +0.240 C 
ATOM     12  O   LIG    1        0.408 -10.813  -0.470  0.00  0.00    -0.310 OA
ENDBRANCH   5  12
BRANCH  10  13
ATOM     13  O   LIG    1       -1.845  -9.725  -1.618  0.00  0.00    -0.300 OA
ATOM     14  C   LIG    1       -2.993  -9.093  -2.188  0.00  0.00    +0.240 C 
ENDBRANCH  10  13
ENDBRANCH   1   8
BRANCH   3  15
ATOM     15  C   LIG    1        0.177  -3.032  -0.008  0.00  0.00    +0.110 C 
BRANCH  15  16
ATOM     16  S   LIG    1        1.751  -2.129  -0.024  0.00  0.00    +0.100 S 
BRANCH  16  17
ATOM     17  C   LIG    1        1.240  -0.443   0.001  0.00  0.00    +0.120 A 
ATOM     18  N   LIG    1        0.002  -0.004   0.024  0.00  0.00    -0.250 NA
ATOM     19  N   LIG    1       -0.016   1.282   0.038  0.00  0.00    -0.240 NA
ATOM     20  C   LIG    1        1.221   1.744   0.023  0.00  0.00    +0.200 A 
ATOM     21  C   LIG    1        1.773   3.042   0.028  0.00  0.00    +0.010 A 
ATOM     22  C   LIG    1        3.125   3.189   0.008  0.00  0.00    +0.100 A 
ATOM     23  C   LIG    1        3.954   2.051  -0.017  0.00  0.00    -0.050 A 
ATOM     24  C   LIG    1        3.416   0.814  -0.021  0.00  0.00    +0.280 A 
ATOM     25 CL   LIG    1        5.679   2.241  -0.042  0.00  0.00    -0.010 Cl
ATOM     26 CL   LIG    1        0.738   4.436   0.059  0.00  0.00    +0.000 Cl
ATOM     27  N   LIG    1        2.058   0.648  -0.001  0.00  0.00    -0.370 N 
ENDBRANCH  16  17
ENDBRANCH  15  16
ENDBRANCH   3  15
TORSDOF 6
