REMARK  Name = ZINCvU0000000GgQ.0
REMARK                            x       y       z     vdW  Elec       q    Type
REMARK                         _______ _______ _______ _____ _____    ______ ____
ROOT
ATOM      1  C   LIG    1        0.371  -4.440  -0.025  0.00  0.00    +0.450 C 
ATOM      2  O   LIG    1        1.495  -4.896  -0.037  0.00  0.00    -0.460 OA
ENDROOT
BRANCH   1   6
ATOM      3  C   LIG    1       -4.405  -6.214   0.009  0.00  0.00    +0.120 C 
ATOM      4  C   LIG    1       -2.902  -6.107  -0.003  0.00  0.00    +0.010 A 
ATOM      5  C   LIG    1       -2.203  -4.960  -0.004  0.00  0.00    +0.000 A 
ATOM      6  C   LIG    1       -0.784  -5.340  -0.019  0.00  0.00    -0.260 A 
ATOM      7  C   LIG    1       -0.763  -6.723  -0.032  0.00  0.00    +0.120 A 
ATOM      8  C   LIG    1        0.470  -7.588  -0.056  0.00  0.00    +0.150 C 
ATOM      9  N   LIG    1       -2.034  -7.161  -0.016  0.00  0.00    -0.430 N 
BRANCH   9  10
ATOM     10  C   LIG    1       -2.432  -8.571  -0.019  0.00  0.00    +0.340 C 
BRANCH  10  11
ATOM     11  C   LIG    1       -2.582  -9.048  -1.441  0.00  0.00    -0.120 A 
ATOM     12  C   LIG    1       -3.804  -8.947  -2.079  0.00  0.00    +0.020 A 
ATOM     13  C   LIG    1       -3.940  -9.379  -3.385  0.00  0.00    +0.010 A 
ATOM     14  C   LIG    1       -2.857  -9.922  -4.049  0.00  0.00    +0.020 A 
ATOM     15  C   LIG    1       -1.636 -10.028  -3.410  0.00  0.00    +0.010 A 
ATOM     16  C   LIG    1       -1.498  -9.591  -2.106  0.00  0.00    +0.020 A 
ENDBRANCH  10  11
ENDBRANCH   9  10
ENDBRANCH   1   6
BRANCH   1  17
ATOM     17  C   LIG    1        0.163  -2.948  -0.015  0.00  0.00    +0.100 C 
BRANCH  17  18
ATOM     18  S   LIG    1        1.770  -2.114  -0.026  0.00  0.00    +0.050 S 
BRANCH  18  19
ATOM     19  C   LIG    1        1.243  -0.433  -0.012  0.00  0.00    +0.150 A 
ATOM     20  N   LIG    1        0.002  -0.004   0.002  0.00  0.00    -0.290 NA
ATOM     21  N   LIG    1       -0.015   1.281   0.009  0.00  0.00    -0.280 NA
ATOM     22  C   LIG    1        1.202   1.745   0.000  0.00  0.00    +0.190 A 
ATOM     23  C   LIG    1        1.605   3.197   0.004  0.00  0.00    +0.200 C 
ATOM     24  N   LIG    1        2.047   0.670  -0.014  0.00  0.00    -0.460 N 
BRANCH  24  25
ATOM     25  C   LIG    1        3.512   0.696  -0.028  0.00  0.00    +0.370 C 
BRANCH  25  26
ATOM     26  C   LIG    1        4.001   0.714  -1.453  0.00  0.00    -0.120 A 
ATOM     27  C   LIG    1        4.252  -0.475  -2.112  0.00  0.00    +0.040 A 
ATOM     28  C   LIG    1        4.695  -0.459  -3.421  0.00  0.00    +0.010 A 
ATOM     29  C   LIG    1        4.898   0.746  -4.068  0.00  0.00    +0.020 A 
ATOM     30  C   LIG    1        4.652   1.934  -3.407  0.00  0.00    +0.010 A 
ATOM     31  C   LIG    1        4.203   1.919  -2.100  0.00  0.00    +0.020 A 
ENDBRANCH  25  26
ENDBRANCH  24  25
ENDBRANCH  18  19
ENDBRANCH  17  18
ENDBRANCH   1  17
TORSDOF 8
