REMARK  Name = ZINCnE000001Qefn.0
REMARK                            x       y       z     vdW  Elec       q    Type
REMARK                         _______ _______ _______ _____ _____    ______ ____
ROOT
ATOM      1  N   LIG    1        2.961  -0.781  -1.933  0.00  0.00    -0.730 N 
ATOM      2  H   LIG    1        2.780  -0.458  -2.830  0.00  0.00    +0.400 HD
ATOM      3  C   LIG    1        3.719  -1.881  -1.753  0.00  0.00    +0.590 C 
ATOM      4  O   LIG    1        3.945  -2.286  -0.628  0.00  0.00    -0.520 OA
ENDROOT
BRANCH   1  11
ATOM      5  C   LIG    1       -2.373   0.123   0.790  0.00  0.00    +0.080 C 
ATOM      6  C   LIG    1       -1.157  -0.669   0.383  0.00  0.00    -0.100 A 
ATOM      7  C   LIG    1       -1.204  -2.047   0.391  0.00  0.00    +0.000 A 
ATOM      8  C   LIG    1       -0.089  -2.774   0.017  0.00  0.00    +0.000 A 
ATOM      9  C   LIG    1        1.064  -2.116  -0.360  0.00  0.00    +0.040 A 
ATOM     10  C   LIG    1        1.114  -0.728  -0.366  0.00  0.00    -0.090 A 
ATOM     11  C   LIG    1        2.408  -0.075  -0.775  0.00  0.00    +0.290 C 
ATOM     12  C   LIG    1        2.177   1.390  -1.143  0.00  0.00    +0.020 C 
ATOM     13  C   LIG    1        1.404   2.059  -0.000  0.00  0.00    +0.020 C 
ATOM     14  C   LIG    1       -0.018   1.502   0.010  0.00  0.00    +0.070 C 
ATOM     15  C   LIG    1        0.002  -0.004   0.002  0.00  0.00    -0.080 A 
ENDBRANCH   1  11
BRANCH   3  16
ATOM     16  C   LIG    1        4.275  -2.591  -2.916  0.00  0.00    -0.210 A 
ATOM     17  C   LIG    1        5.048  -3.705  -2.816  0.00  0.00    -0.050 A 
ATOM     18  S   LIG    1        5.514  -4.260  -4.358  0.00  0.00    +0.170 S 
ATOM     19  C   LIG    1        4.650  -2.965  -5.168  0.00  0.00    -0.100 A 
ATOM     20  C   LIG    1        4.049  -2.179  -4.282  0.00  0.00    +0.040 A 
BRANCH  17  21
ATOM     21  C   LIG    1        5.441  -4.359  -1.516  0.00  0.00    +0.040 C 
BRANCH  21  22
ATOM     22  C   LIG    1        4.408  -5.391  -1.141  0.00  0.00    +0.510 C 
ATOM     23  O   LIG    1        4.538  -6.039  -0.117  0.00  0.00    -0.700 OA
ATOM     24  O   LIG    1        3.443  -5.577  -1.862  0.00  0.00    -0.690 OA
ENDBRANCH  21  22
ENDBRANCH  17  21
ENDBRANCH   3  16
TORSDOF 4
