REMARK  Name = ZINCpk00000l78O1.0
REMARK                            x       y       z     vdW  Elec       q    Type
REMARK                         _______ _______ _______ _____ _____    ______ ____
ROOT
ATOM      1  O   LIG    1       -3.306  -5.011  -0.959  0.00  0.00    -0.530 OA
ATOM      2  C   LIG    1       -3.155  -4.421   0.090  0.00  0.00    +0.550 C 
ATOM      3  N   LIG    1       -2.882  -3.102   0.089  0.00  0.00    -0.600 N 
ATOM      4  C   LIG    1       -2.766  -2.363  -1.176  0.00  0.00    +0.290 C 
ATOM      5  C   LIG    1       -1.422  -1.628  -1.195  0.00  0.00    +0.040 C 
ATOM      6  C   LIG    1       -1.304  -0.755   0.056  0.00  0.00    +0.080 C 
ATOM      7  C   LIG    1       -1.353  -1.639   1.304  0.00  0.00    +0.040 C 
ATOM      8  C   LIG    1       -2.696  -2.374   1.351  0.00  0.00    +0.270 C 
ENDROOT
BRANCH   6   9
ATOM      9  C   LIG    1        0.003  -0.004   0.023  0.00  0.00    +0.350 A 
ATOM     10  N   LIG    1        1.131  -0.684  -0.012  0.00  0.00    -0.530 NA
ATOM     11  C   LIG    1        2.302  -0.063  -0.042  0.00  0.00    +0.330 A 
ATOM     12  C   LIG    1        2.332   1.318  -0.035  0.00  0.00    -0.090 A 
ATOM     13  C   LIG    1        1.118   2.008   0.002  0.00  0.00    +0.350 A 
ATOM     14  N   LIG    1       -0.015   1.313   0.031  0.00  0.00    -0.550 NA
BRANCH  13  15
ATOM     15  N   LIG    1        1.096   3.393   0.009  0.00  0.00    -0.460 N 
ATOM     16  C   LIG    1       -0.298   3.903  -0.033  0.00  0.00    +0.200 C 
ATOM     17  C   LIG    1       -0.163   5.350   0.503  0.00  0.00    +0.030 C 
ATOM     18  C   LIG    1        0.909   5.211   1.608  0.00  0.00    +0.020 C 
ATOM     19  C   LIG    1        1.682   3.926   1.258  0.00  0.00    +0.190 C 
ENDBRANCH  13  15
ENDBRANCH   6   9
BRANCH   2  20
ATOM     20  C   LIG    1       -3.272  -5.165   1.395  0.00  0.00    +0.000 C 
ATOM     21  C   LIG    1       -2.183  -6.188   1.726  0.00  0.00    +0.180 C 
ATOM     22  C   LIG    1       -3.583  -6.662   1.330  0.00  0.00    +0.130 C 
BRANCH  22  23
ATOM     23  N   LIG    1       -4.430  -7.223   2.386  0.00  0.00    +0.010 N 
ATOM     24  O   LIG    1       -4.077  -7.156   3.550  0.00  0.00    -0.160 OA
ATOM     25  O   LIG    1       -5.487  -7.757   2.099  0.00  0.00    -0.150 OA
ENDBRANCH  22  23
ENDBRANCH   2  20
TORSDOF 4
