REMARK  Name = ZINCrD0000074oc4.0
REMARK                            x       y       z     vdW  Elec       q    Type
REMARK                         _______ _______ _______ _____ _____    ______ ____
ROOT
ATOM      1  C   LIG    1       -0.615   0.764   2.292  0.00  0.00    +0.520 C 
ATOM      2  O   LIG    1       -0.026  -0.297   2.243  0.00  0.00    -0.480 OA
ENDROOT
BRANCH   1   3
ATOM      3  C   LIG    1       -1.244   1.200   3.552  0.00  0.00    -0.200 A 
ATOM      4  C   LIG    1       -1.922   2.424   3.624  0.00  0.00    +0.180 A 
ATOM      5  C   LIG    1       -2.499   2.784   4.829  0.00  0.00    -0.070 A 
ATOM      6  C   LIG    1       -2.383   1.940   5.919  0.00  0.00    +0.350 A 
ATOM      7  N   LIG    1       -1.736   0.794   5.830  0.00  0.00    -0.530 NA
ATOM      8  C   LIG    1       -1.170   0.399   4.702  0.00  0.00    +0.380 A 
BRANCH   8   9
ATOM      9  O   LIG    1       -0.516  -0.785   4.657  0.00  0.00    -0.220 OA
BRANCH   9  10
ATOM     10  C   LIG    1       -0.380  -1.484   5.814  0.00  0.00    +0.080 A 
ATOM     11  C   LIG    1        0.836  -1.492   6.483  0.00  0.00    +0.020 A 
ATOM     12  C   LIG    1        0.970  -2.198   7.662  0.00  0.00    +0.020 A 
ATOM     13  C   LIG    1       -0.103  -2.907   8.171  0.00  0.00    +0.020 A 
ATOM     14  C   LIG    1       -1.314  -2.906   7.503  0.00  0.00    +0.020 A 
ATOM     15  C   LIG    1       -1.455  -2.196   6.327  0.00  0.00    +0.020 A 
ENDBRANCH   9  10
ENDBRANCH   8   9
ENDBRANCH   1   3
BRANCH   1  16
ATOM     16  O   LIG    1       -0.694   1.543   1.195  0.00  0.00    -0.330 OA
BRANCH  16  17
ATOM     17  C   LIG    1       -0.051   1.050  -0.010  0.00  0.00    +0.200 C 
ATOM     18  C   LIG    1        1.398   1.539  -0.051  0.00  0.00    +0.070 C 
BRANCH  17  21
ATOM     19  N   LIG    1       -0.432   1.154  -2.452  0.00  0.00    -0.630 N 
ATOM     20  H   LIG    1        0.300   0.527  -2.561  0.00  0.00    +0.420 HD
ATOM     21  C   LIG    1       -0.789   1.565  -1.219  0.00  0.00    +0.530 C 
ATOM     22  O   LIG    1       -1.705   2.348  -1.083  0.00  0.00    -0.490 OA
BRANCH  19  26
ATOM     23  C   LIG    1       -3.587   3.543  -5.485  0.00  0.00    +0.190 C 
ATOM     24  C   LIG    1       -2.502   2.680  -4.893  0.00  0.00    -0.020 A 
ATOM     25  C   LIG    1       -2.202   2.544  -3.582  0.00  0.00    -0.040 A 
ATOM     26  C   LIG    1       -1.116   1.630  -3.571  0.00  0.00    +0.250 A 
ATOM     27  N   LIG    1       -0.881   1.328  -4.821  0.00  0.00    -0.390 NA
ATOM     28  O   LIG    1       -1.644   1.898  -5.565  0.00  0.00    +0.100 OA
ENDBRANCH  19  26
ENDBRANCH  17  21
ENDBRANCH  16  17
ENDBRANCH   1  16
TORSDOF 7
