REMARK  Name = ZINCqH0000050St0.0
REMARK                            x       y       z     vdW  Elec       q    Type
REMARK                         _______ _______ _______ _____ _____    ______ ____
ROOT
ATOM      1  C   LIG    1        1.787   3.279   0.022  0.00  0.00    +0.540 C 
ATOM      2  N   LIG    1        1.379   1.995  -0.000  0.00  0.00    -0.600 N 
ATOM      3  C   LIG    1        2.261   0.814  -0.041  0.00  0.00    +0.250 C 
ATOM      4  C   LIG    1        1.412  -0.336   0.558  0.00  0.00    +0.040 C 
ATOM      5  C   LIG    1        0.002  -0.004   0.002  0.00  0.00    +0.040 C 
ATOM      6  C   LIG    1       -0.019   1.539   0.011  0.00  0.00    +0.290 C 
ATOM      7  O   LIG    1        0.969   4.174   0.055  0.00  0.00    -0.530 OA
ENDROOT
BRANCH   6   8
ATOM      8  C   LIG    1       -0.734   2.049  -1.214  0.00  0.00    -0.220 A 
ATOM      9  C   LIG    1       -1.894   2.755  -1.091  0.00  0.00    +0.130 A 
ATOM     10  C   LIG    1       -2.537   3.223  -2.246  0.00  0.00    -0.080 A 
ATOM     11  C   LIG    1       -2.011   2.962  -3.465  0.00  0.00    +0.290 A 
ATOM     12  N   LIG    1       -0.859   2.254  -3.586  0.00  0.00    -0.610 N 
ATOM     13  H   LIG    1       -0.495   2.076  -4.468  0.00  0.00    +0.410 HD
ATOM     14  C   LIG    1       -0.215   1.796  -2.496  0.00  0.00    +0.530 A 
ATOM     15  O   LIG    1        0.821   1.162  -2.621  0.00  0.00    -0.540 OA
ENDBRANCH   6   8
BRANCH   1  16
ATOM     16  C   LIG    1        3.259   3.603   0.007  0.00  0.00    +0.170 C 
BRANCH  16  19
ATOM     17  C   LIG    1        3.461   5.486  -2.478  0.00  0.00    +0.180 C 
ATOM     18  C   LIG    1        3.531   5.907  -1.032  0.00  0.00    -0.020 A 
ATOM     19  C   LIG    1        3.444   5.098   0.038  0.00  0.00    +0.010 A 
ATOM     20  N   LIG    1        3.559   5.857   1.139  0.00  0.00    -0.450 NA
ATOM     21  C   LIG    1        3.707   7.111   0.771  0.00  0.00    +0.260 A 
ATOM     22  O   LIG    1        3.689   7.165  -0.573  0.00  0.00    -0.190 OA
BRANCH  21  23
ATOM     23  C   LIG    1        3.866   8.259   1.676  0.00  0.00    -0.140 A 
ATOM     24  C   LIG    1        4.024   9.554   1.285  0.00  0.00    +0.050 A 
ATOM     25  C   LIG    1        4.150  10.451   2.322  0.00  0.00    +0.010 A 
ATOM     26  C   LIG    1        4.106   9.915   3.546  0.00  0.00    -0.040 A 
ATOM     27  S   LIG    1        3.888   8.174   3.433  0.00  0.00    +0.210 S 
ENDBRANCH  21  23
ENDBRANCH  16  19
ENDBRANCH   1  16
TORSDOF 4
