REMARK  Name = ZINCpe00000bFckJ.0
REMARK                            x       y       z     vdW  Elec       q    Type
REMARK                         _______ _______ _______ _____ _____    ______ ____
ROOT
ATOM      1  C   LIG    1       -1.273   1.794   1.134  0.00  0.00    +0.220 C 
ATOM      2  C   LIG    1       -0.530   1.341  -0.124  0.00  0.00    +0.040 C 
ENDROOT
BRANCH   1   3
ATOM      3  N   LIG    1       -0.370   1.726   2.286  0.00  0.00    -0.700 N 
ATOM      4  H   LIG    1       -0.365   0.939   2.852  0.00  0.00    +0.410 HD
ATOM      5  C   LIG    1        0.455   2.757   2.558  0.00  0.00    +0.590 C 
ATOM      6  O   LIG    1        0.449   3.744   1.847  0.00  0.00    -0.540 OA
BRANCH   5   7
ATOM      7  C   LIG    1        1.365   2.689   3.719  0.00  0.00    -0.060 A 
ATOM      8  N   LIG    1        1.302   1.659   4.557  0.00  0.00    -0.370 NA
ATOM      9  C   LIG    1        2.116   1.600   5.592  0.00  0.00    +0.150 A 
ATOM     10  C   LIG    1        3.042   2.610   5.813  0.00  0.00    +0.320 A 
ATOM     11  N   LIG    1        3.116   3.639   4.989  0.00  0.00    -0.510 NA
ATOM     12  C   LIG    1        2.306   3.708   3.939  0.00  0.00    +0.410 A 
BRANCH  12  13
ATOM     13  N   LIG    1        2.384   4.781   3.071  0.00  0.00    -0.810 N 
ATOM     14  H   LIG    1        3.085   5.443   3.179  0.00  0.00    +0.400 HD
ATOM     15  H   LIG    1        1.738   4.872   2.353  0.00  0.00    +0.430 HD
ENDBRANCH  12  13
ENDBRANCH   5   7
ENDBRANCH   1   3
BRANCH   1  16
ATOM     16  C   LIG    1       -2.475   0.879   1.374  0.00  0.00    +0.290 C 
BRANCH  16  18
ATOM     17  C   LIG    1       -4.100   2.159   2.662  0.00  0.00    +0.520 C 
ATOM     18  N   LIG    1       -3.116   1.237   2.642  0.00  0.00    -0.620 N 
ATOM     19  C   LIG    1       -2.689   0.594   3.886  0.00  0.00    +0.280 C 
ATOM     20  O   LIG    1       -4.504   2.638   1.624  0.00  0.00    -0.520 OA
BRANCH  17  24
ATOM     21  C   LIG    1       -7.548   2.427   3.320  0.00  0.00    +0.150 C 
ATOM     22  C   LIG    1       -6.665   3.546   2.766  0.00  0.00    +0.030 C 
ATOM     23  C   LIG    1       -5.542   3.851   3.760  0.00  0.00    +0.050 C 
ATOM     24  C   LIG    1       -4.697   2.594   3.976  0.00  0.00    -0.010 C 
ATOM     25  C   LIG    1       -5.580   1.474   4.530  0.00  0.00    +0.050 C 
ATOM     26  C   LIG    1       -6.702   1.170   3.536  0.00  0.00    +0.000 C 
BRANCH  21  28
ATOM     27  C   LIG    1       -9.800   1.673   3.000  0.00  0.00    +0.200 C 
ATOM     28  O   LIG    1       -8.596   2.143   2.391  0.00  0.00    -0.380 OA
ENDBRANCH  21  28
ENDBRANCH  17  24
ENDBRANCH  16  18
ENDBRANCH   1  16
TORSDOF 7
