REMARK  Name = ZINCpk000000oNQ4.0
REMARK                            x       y       z     vdW  Elec       q    Type
REMARK                         _______ _______ _______ _____ _____    ______ ____
ROOT
ATOM      1  N   LIG    1        4.164  11.245   4.227  0.00  0.00    -0.750 N 
ATOM      2  H   LIG    1        4.556  10.575   4.808  0.00  0.00    +0.400 HD
ATOM      3  C   LIG    1        3.526  10.871   3.101  0.00  0.00    +0.710 C 
ATOM      4  N   LIG    1        3.344   9.563   2.832  0.00  0.00    -0.630 N 
ATOM      5  C   LIG    1        2.555   9.142   1.666  0.00  0.00    +0.290 C 
ATOM      6  C   LIG    1        1.437   8.207   2.143  0.00  0.00    +0.270 C 
ATOM      7  N   LIG    1        2.024   7.176   3.011  0.00  0.00    -0.610 N 
ATOM      8  C   LIG    1        2.808   7.598   4.180  0.00  0.00    +0.290 C 
ATOM      9  C   LIG    1        1.842   5.868   2.742  0.00  0.00    +0.520 C 
ATOM     10  O   LIG    1        2.254   5.028   3.513  0.00  0.00    -0.510 OA
ATOM     11  C   LIG    1        3.931   8.533   3.700  0.00  0.00    +0.270 C 
ATOM     12  O   LIG    1        3.115  11.714   2.326  0.00  0.00    -0.590 OA
ENDROOT
BRANCH   1  14
ATOM     13  C   LIG    1        5.031  12.815   5.891  0.00  0.00    +0.030 C 
ATOM     14  C   LIG    1        4.265  12.665   4.575  0.00  0.00    +0.270 C 
ENDBRANCH   1  14
BRANCH   9  15
ATOM     15  C   LIG    1        1.126   5.450   1.484  0.00  0.00    +0.160 C 
ATOM     16  C   LIG    1       -0.364   5.775   1.613  0.00  0.00    +0.050 C 
BRANCH  15  17
ATOM     17  O   LIG    1        1.291   4.044   1.287  0.00  0.00    -0.350 OA
BRANCH  17  18
ATOM     18  C   LIG    1        1.285   3.645  -0.085  0.00  0.00    +0.220 C 
BRANCH  18  19
ATOM     19  C   LIG    1        1.465   2.151  -0.175  0.00  0.00    -0.050 A 
ATOM     20  C   LIG    1        2.736   1.613  -0.264  0.00  0.00    +0.000 A 
ATOM     21  C   LIG    1        2.905   0.243  -0.346  0.00  0.00    +0.050 A 
ATOM     22  C   LIG    1        1.804  -0.591  -0.339  0.00  0.00    -0.070 A 
ATOM     23  C   LIG    1        0.528  -0.054  -0.250  0.00  0.00    +0.120 A 
ATOM     24  C   LIG    1        0.361   1.321  -0.167  0.00  0.00    +0.000 A 
BRANCH  23  25
ATOM     25  O   LIG    1       -0.556  -0.873  -0.243  0.00  0.00    -0.320 OA
ATOM     26  C   LIG    1       -0.309  -2.277  -0.331  0.00  0.00    +0.250 C 
ENDBRANCH  23  25
ENDBRANCH  18  19
ENDBRANCH  17  18
ENDBRANCH  15  17
ENDBRANCH   9  15
TORSDOF 6
