REMARK  Name = ZINCpk000005Z75L.0
REMARK                            x       y       z     vdW  Elec       q    Type
REMARK                         _______ _______ _______ _____ _____    ______ ____
ROOT
ATOM      1  O   LIG    1       -2.780   0.241  -0.109  0.00  0.00    -0.520 OA
ATOM      2  C   LIG    1       -2.527   1.425   0.021  0.00  0.00    +0.590 C 
ATOM      3  N   LIG    1       -3.528   2.320   0.131  0.00  0.00    -0.610 N 
ATOM      4  C   LIG    1       -3.245   3.762   0.145  0.00  0.00    +0.250 C 
ATOM      5  C   LIG    1       -4.096   4.437  -0.941  0.00  0.00    +0.020 C 
ATOM      6  C   LIG    1       -5.568   4.084  -0.719  0.00  0.00    +0.010 C 
ATOM      7  C   LIG    1       -5.755   2.570  -0.835  0.00  0.00    +0.020 C 
ATOM      8  C   LIG    1       -4.923   1.873   0.246  0.00  0.00    +0.280 C 
ENDROOT
BRANCH   6   9
ATOM      9  C   LIG    1       -6.425   4.785  -1.776  0.00  0.00    -0.010 C 
ATOM     10  C   LIG    1       -6.417   6.323  -1.568  0.00  0.00    +0.030 C 
ATOM     11  C   LIG    1       -7.760   6.763  -2.188  0.00  0.00    +0.240 C 
ATOM     12  N   LIG    1       -8.644   5.588  -2.192  0.00  0.00    -0.620 N 
ATOM     13  C   LIG    1       -9.903   5.554  -2.671  0.00  0.00    +0.540 C 
ATOM     14  O   LIG    1      -10.543   4.525  -2.622  0.00  0.00    -0.530 OA
ATOM     15  C   LIG    1       -7.926   4.453  -1.584  0.00  0.00    +0.260 C 
BRANCH  13  16
ATOM     16  C   LIG    1      -10.515   6.795  -3.269  0.00  0.00    -0.010 C 
ATOM     17  C   LIG    1      -11.955   6.592  -3.770  0.00  0.00    +0.080 C 
ATOM     18  C   LIG    1      -12.267   7.984  -3.197  0.00  0.00    +0.170 C 
ATOM     19  C   LIG    1      -11.099   7.759  -2.223  0.00  0.00    +0.020 C 
BRANCH  18  20
ATOM     20  O   LIG    1      -13.542   8.067  -2.556  0.00  0.00    -0.560 OA
ATOM     21  H   LIG    1      -13.744   8.941  -2.194  0.00  0.00    +0.380 HD
ENDBRANCH  18  20
ENDBRANCH  13  16
ENDBRANCH   6   9
BRANCH   2  22
ATOM     22  C   LIG    1       -1.132   1.876   0.056  0.00  0.00    -0.060 A 
ATOM     23  C   LIG    1       -0.047   1.215  -0.480  0.00  0.00    +0.040 A 
ATOM     24  C   LIG    1        1.081   2.000  -0.224  0.00  0.00    -0.060 A 
ATOM     25  C   LIG    1        0.676   3.100   0.455  0.00  0.00    +0.190 A 
ATOM     26  N   LIG    1       -0.666   3.035   0.635  0.00  0.00    -0.540 N 
ATOM     27  H   LIG    1       -1.209   3.697   1.091  0.00  0.00    +0.420 HD
ENDBRANCH   2  22
TORSDOF 4
