REMARK  Name = ZINCkj000005iYSN.1
REMARK                            x       y       z     vdW  Elec       q    Type
REMARK                         _______ _______ _______ _____ _____    ______ ____
ROOT
ATOM      1  N   LIG    1        1.228   3.461   0.009  0.00  0.00    -0.660 N 
ATOM      2  H   LIG    1        0.401   3.963  -0.050  0.00  0.00    +0.420 HD
ATOM      3  C   LIG    1        2.405   4.110   0.102  0.00  0.00    +0.520 C 
ATOM      4  O   LIG    1        3.445   3.486   0.090  0.00  0.00    -0.510 OA
ENDROOT
BRANCH   1   8
ATOM      5  C   LIG    1        1.076  -0.663   0.011  0.00  0.00    +0.110 A 
ATOM      6  C   LIG    1        2.152  -0.042  -0.614  0.00  0.00    +0.020 A 
ATOM      7  C   LIG    1        2.220   1.339  -0.625  0.00  0.00    +0.090 A 
ATOM      8  C   LIG    1        1.200   2.059  -0.005  0.00  0.00    +0.070 A 
ATOM      9  C   LIG    1        0.158   1.373   0.599  0.00  0.00    +0.260 A 
ATOM     10  N   LIG    1        0.124   0.054   0.591  0.00  0.00    -0.470 NA
BRANCH   5  12
ATOM     11  C   LIG    1       -0.563  -2.733   0.939  0.00  0.00    +0.160 C 
ATOM     12  S   LIG    1        0.977  -2.422   0.032  0.00  0.00    -0.070 S 
ENDBRANCH   5  12
ENDBRANCH   1   8
BRANCH   3  13
ATOM     13  C   LIG    1        2.430   5.612   0.223  0.00  0.00    +0.200 C 
ATOM     14  C   LIG    1        1.673   6.035   1.484  0.00  0.00    +0.040 C 
BRANCH  13  15
ATOM     15  N   LIG    1        3.821   6.074   0.310  0.00  0.00    -0.520 NA
ATOM     16  C   LIG    1        4.487   5.521   1.498  0.00  0.00    +0.220 C 
ATOM     17  C   LIG    1        5.948   5.976   1.519  0.00  0.00    +0.280 C 
ATOM     18  N   LIG    1        6.003   7.444   1.545  0.00  0.00    -0.390 N 
ATOM     19  C   LIG    1        5.356   7.981   0.341  0.00  0.00    +0.280 C 
ATOM     20  C   LIG    1        7.405   7.881   1.584  0.00  0.00    +0.310 C 
ATOM     21  H   LIG    1        5.522   7.784   2.365  0.00  0.00    +0.420 HD
ATOM     22  C   LIG    1        3.890   7.542   0.310  0.00  0.00    +0.220 C 
ENDBRANCH  13  15
ENDBRANCH   3  13
TORSDOF 4
