REMARK  Name = ZINCrD000000B1S8.0
REMARK                            x       y       z     vdW  Elec       q    Type
REMARK                         _______ _______ _______ _____ _____    ______ ____
ROOT
ATOM      1  C   LIG    1       -3.537   1.664  -0.062  0.00  0.00    +0.220 A 
ATOM      2  C   LIG    1       -3.500   3.049  -0.145  0.00  0.00    -0.030 A 
ATOM      3  C   LIG    1       -4.677   3.766  -0.229  0.00  0.00    +0.150 A 
ATOM      4  C   LIG    1       -5.893   3.106  -0.221  0.00  0.00    -0.680 A 
ATOM      5  C   LIG    1       -5.933   1.727  -0.134  0.00  0.00    +0.150 A 
ATOM      6  C   LIG    1       -4.759   1.004  -0.054  0.00  0.00    +0.010 A 
ENDROOT
BRANCH   1   9
ATOM      7  O   LIG    1       -3.229  -0.766  -1.106  0.00  0.00    -0.560 OA
ATOM      8  C   LIG    1       -2.253  -0.273  -0.574  0.00  0.00    +0.700 C 
ATOM      9  N   LIG    1       -2.345   0.934   0.018  0.00  0.00    -0.690 N 
ATOM     10  H   LIG    1       -1.586   1.297   0.500  0.00  0.00    +0.410 HD
ATOM     11  N   LIG    1       -1.078  -0.934  -0.576  0.00  0.00    -0.740 N 
ATOM     12  H   LIG    1       -0.300  -0.541  -0.152  0.00  0.00    +0.400 HD
BRANCH  11  13
ATOM     13  C   LIG    1       -0.979  -2.249  -1.215  0.00  0.00    +0.290 C 
BRANCH  13  14
ATOM     14  C   LIG    1        0.449  -2.780  -1.071  0.00  0.00    +0.020 C 
BRANCH  14  15
ATOM     15  C   LIG    1        0.552  -4.153  -1.738  0.00  0.00    +0.170 C 
ATOM     16  C   LIG    1        1.957  -4.747  -1.498  0.00  0.00    +0.010 C 
ATOM     17  C   LIG    1        2.267  -5.419  -2.864  0.00  0.00    +0.000 C 
ATOM     18  C   LIG    1        1.562  -4.443  -3.839  0.00  0.00    +0.200 C 
ATOM     19  O   LIG    1        0.373  -4.021  -3.153  0.00  0.00    -0.380 OA
ENDBRANCH  14  15
ENDBRANCH  13  14
ENDBRANCH  11  13
ENDBRANCH   1   9
BRANCH   4  20
ATOM     20  S   LIG    1       -7.393   4.025  -0.323  0.00  0.00    +2.590 S 
ATOM     21  O   LIG    1       -8.373   3.135  -0.839  0.00  0.00    -0.930 OA
ATOM     22  O   LIG    1       -7.064   5.263  -0.939  0.00  0.00    -0.930 OA
BRANCH  20  23
ATOM     23  C   LIG    1       -7.885   4.404   1.326  0.00  0.00    -0.670 A 
ATOM     24  C   LIG    1       -8.709   3.537   2.018  0.00  0.00    +0.160 A 
ATOM     25  C   LIG    1       -9.091   3.831   3.313  0.00  0.00    -0.020 A 
ATOM     26  C   LIG    1       -8.657   5.000   3.914  0.00  0.00    +0.160 A 
ATOM     27  C   LIG    1       -7.836   5.871   3.218  0.00  0.00    -0.020 A 
ATOM     28  F   LIG    1       -9.035   5.292   5.178  0.00  0.00    -0.130 F 
ATOM     29  C   LIG    1       -7.450   5.572   1.925  0.00  0.00    +0.160 A 
ENDBRANCH  20  23
ENDBRANCH   4  20
TORSDOF 6
