REMARK  Name = ZINCqH0000005rgx.0
REMARK                            x       y       z     vdW  Elec       q    Type
REMARK                         _______ _______ _______ _____ _____    ______ ____
ROOT
ATOM      1  C   LIG    1       -2.517   1.011   0.053  0.00  0.00    +0.560 C 
ATOM      2  N   LIG    1       -2.506  -0.336   0.052  0.00  0.00    -0.720 N 
ATOM      3  H   LIG    1       -1.662  -0.814   0.044  0.00  0.00    +0.400 HD
ATOM      4  O   LIG    1       -3.574   1.610   0.064  0.00  0.00    -0.530 OA
ENDROOT
BRANCH   1   9
ATOM      5  C   LIG    1       -0.052   3.852   0.029  0.00  0.00    +0.160 A 
ATOM      6  C   LIG    1        1.152   3.160   0.011  0.00  0.00    +0.010 A 
ATOM      7  C   LIG    1        1.161   1.778   0.011  0.00  0.00    +0.020 A 
ATOM      8  C   LIG    1       -0.026   1.076   0.028  0.00  0.00    +0.020 A 
ATOM      9  C   LIG    1       -1.242   1.761   0.040  0.00  0.00    -0.120 A 
ATOM     10  C   LIG    1       -1.251   3.156   0.046  0.00  0.00    +0.100 A 
BRANCH   5  15
ATOM     11  C   LIG    1       -2.025   7.998  -1.421  0.00  0.00    +0.300 C 
ATOM     12  N   LIG    1       -0.974   7.268  -0.707  0.00  0.00    -0.740 N 
ATOM     13  H   LIG    1       -0.244   7.752  -0.290  0.00  0.00    +0.400 HD
ATOM     14  C   LIG    1       -1.022   5.923  -0.628  0.00  0.00    +0.700 C 
ATOM     15  N   LIG    1       -0.056   5.252   0.029  0.00  0.00    -0.690 N 
ATOM     16  H   LIG    1        0.637   5.738   0.502  0.00  0.00    +0.410 HD
ATOM     17  O   LIG    1       -1.937   5.316  -1.150  0.00  0.00    -0.560 OA
ENDBRANCH   5  15
ENDBRANCH   1   9
BRANCH   2  18
ATOM     18  C   LIG    1       -3.768  -1.079   0.065  0.00  0.00    +0.240 C 
ATOM     19  C   LIG    1       -4.286  -1.229  -1.367  0.00  0.00    +0.020 C 
BRANCH  18  20
ATOM     20  C   LIG    1       -3.538  -2.465   0.672  0.00  0.00    -0.060 C 
ATOM     21  C   LIG    1       -2.508  -3.224  -0.166  0.00  0.00    +0.030 C 
ATOM     22  C   LIG    1       -2.279  -4.610   0.441  0.00  0.00    -0.020 C 
ATOM     23  C   LIG    1       -1.761  -4.460   1.873  0.00  0.00    +0.010 C 
ATOM     24  C   LIG    1       -2.791  -3.700   2.711  0.00  0.00    -0.020 C 
ATOM     25  C   LIG    1       -4.110  -4.476   2.724  0.00  0.00    +0.010 C 
ATOM     26  C   LIG    1       -4.628  -4.626   1.292  0.00  0.00    -0.020 C 
ATOM     27  C   LIG    1       -3.597  -5.386   0.454  0.00  0.00    +0.010 C 
ATOM     28  C   LIG    1       -3.021  -2.315   2.104  0.00  0.00    +0.020 C 
ATOM     29  C   LIG    1       -4.857  -3.241   0.685  0.00  0.00    +0.040 C 
ENDBRANCH  18  20
ENDBRANCH   2  18
TORSDOF 4
