REMARK  Name = ZINCrH000004mKFM.0
REMARK                            x       y       z     vdW  Elec       q    Type
REMARK                         _______ _______ _______ _____ _____    ______ ____
ROOT
ATOM      1  C   LIG    1        1.186   1.792   0.016  0.00  0.00    -0.080 A 
ATOM      2  C   LIG    1       -0.013   1.077   0.027  0.00  0.00    +0.070 A 
ATOM      3  C   LIG    1       -1.215   1.752   0.048  0.00  0.00    +0.130 A 
ATOM      4  C   LIG    1       -1.235   3.135   0.069  0.00  0.00    -0.650 A 
ATOM      5  C   LIG    1       -0.051   3.850   0.058  0.00  0.00    +0.120 A 
ATOM      6  C   LIG    1        1.159   3.188   0.031  0.00  0.00    +0.030 A 
ENDROOT
BRANCH   1   9
ATOM      7  N   LIG    1        3.634   1.769  -0.023  0.00  0.00    -0.650 N 
ATOM      8  H   LIG    1        3.618   2.736  -0.093  0.00  0.00    +0.420 HD
ATOM      9  C   LIG    1        2.478   1.075  -0.012  0.00  0.00    +0.560 C 
ATOM     10  O   LIG    1        2.499  -0.140  -0.025  0.00  0.00    -0.500 OA
BRANCH   7  17
ATOM     11  C   LIG    1        6.017   1.678  -0.437  0.00  0.00    +0.110 A 
ATOM     12  C   LIG    1        7.224   1.006  -0.344  0.00  0.00    -0.040 A 
ATOM     13  C   LIG    1        7.278  -0.242   0.248  0.00  0.00    +0.060 A 
ATOM     14  C   LIG    1        6.127  -0.823   0.750  0.00  0.00    -0.050 A 
ATOM     15  C   LIG    1        4.918  -0.156   0.666  0.00  0.00    +0.070 A 
ATOM     16 CL   LIG    1        6.202  -2.390   1.494  0.00  0.00    -0.060 Cl
ATOM     17  C   LIG    1        4.857   1.094   0.068  0.00  0.00    +0.130 A 
BRANCH  11  19
ATOM     18  C   LIG    1        7.191   3.443  -1.515  0.00  0.00    +0.250 C 
ATOM     19  O   LIG    1        5.963   2.906  -1.020  0.00  0.00    -0.320 OA
ENDBRANCH  11  19
ENDBRANCH   7  17
ENDBRANCH   1   9
BRANCH   4  20
ATOM     20  S   LIG    1       -2.776   3.990   0.103  0.00  0.00    +2.690 S 
ATOM     21  O   LIG    1       -2.512   5.271   0.657  0.00  0.00    -0.950 OA
ATOM     22  O   LIG    1       -3.724   3.086   0.652  0.00  0.00    -0.950 OA
BRANCH  20  23
ATOM     23  N   LIG    1       -3.230   4.244  -1.470  0.00  0.00    -0.990 NA
ATOM     24  C   LIG    1       -2.827   5.468  -2.176  0.00  0.00    +0.290 C 
ATOM     25  C   LIG    1       -2.131   5.069  -3.487  0.00  0.00    +0.010 C 
ATOM     26  C   LIG    1       -3.058   4.155  -4.291  0.00  0.00    +0.020 C 
ATOM     27  C   LIG    1       -3.344   2.882  -3.491  0.00  0.00    +0.010 C 
ATOM     28  C   LIG    1       -4.048   3.254  -2.182  0.00  0.00    +0.290 C 
ENDBRANCH  20  23
ENDBRANCH   4  20
TORSDOF 5
