REMARK  Name = ZINCvU0000000IH9.0
REMARK                            x       y       z     vdW  Elec       q    Type
REMARK                         _______ _______ _______ _____ _____    ______ ____
ROOT
ATOM      1  C   LIG    1        3.513  -0.915  -0.036  0.00  0.00    +0.010 A 
ATOM      2  C   LIG    1        3.194  -2.209  -0.040  0.00  0.00    -0.040 A 
ATOM      3  S   LIG    1        1.456  -2.432  -0.025  0.00  0.00    +0.220 S 
ATOM      4  C   LIG    1        1.161  -0.699  -0.013  0.00  0.00    +0.070 A 
ATOM      5  N   LIG    1        0.002  -0.004   0.002  0.00  0.00    -0.490 NA
ATOM      6  C   LIG    1       -0.015   1.296   0.009  0.00  0.00    +0.590 A 
ATOM      7  N   LIG    1        1.128   2.027   0.002  0.00  0.00    -0.530 N 
ATOM      8  C   LIG    1        2.328   1.414  -0.012  0.00  0.00    +0.560 A 
ATOM      9  O   LIG    1        3.358   2.066  -0.019  0.00  0.00    -0.500 OA
ATOM     10  C   LIG    1        2.370  -0.013  -0.021  0.00  0.00    -0.220 A 
ENDROOT
BRANCH   1  15
ATOM     11  C   LIG    1        8.959   0.956  -0.079  0.00  0.00    +0.090 C 
ATOM     12  C   LIG    1        7.534   0.467  -0.068  0.00  0.00    -0.080 A 
ATOM     13  C   LIG    1        7.141  -0.491   0.850  0.00  0.00    -0.010 A 
ATOM     14  C   LIG    1        5.838  -0.944   0.865  0.00  0.00    +0.020 A 
ATOM     15  C   LIG    1        4.915  -0.433  -0.047  0.00  0.00    -0.050 A 
ATOM     16  C   LIG    1        5.318   0.528  -0.974  0.00  0.00    +0.060 A 
ATOM     17  C   LIG    1        6.623   0.977  -0.975  0.00  0.00    +0.000 A 
ENDBRANCH   1  15
BRANCH   7  18
ATOM     18  C   LIG    1        1.057   3.490   0.010  0.00  0.00    +0.380 C 
BRANCH  18  19
ATOM     19  C   LIG    1        1.046   3.985   1.434  0.00  0.00    -0.010 A 
ATOM     20  C   LIG    1        2.195   4.366   2.048  0.00  0.00    -0.030 A 
ATOM     21  C   LIG    1        2.157   4.826   3.383  0.00  0.00    +0.510 A 
ATOM     22  O   LIG    1        1.008   4.899   4.071  0.00  0.00    -0.270 OA
ATOM     23  C   LIG    1       -0.170   4.536   3.518  0.00  0.00    +0.150 A 
ATOM     24  C   LIG    1       -1.350   4.619   4.245  0.00  0.00    +0.020 A 
ATOM     25  C   LIG    1       -2.546   4.260   3.659  0.00  0.00    -0.030 A 
ATOM     26  C   LIG    1       -2.583   3.799   2.351  0.00  0.00    -0.100 A 
ATOM     27  C   LIG    1       -1.424   3.703   1.614  0.00  0.00    +0.060 A 
ATOM     28  C   LIG    1       -3.899   3.400   1.734  0.00  0.00    +0.110 C 
ATOM     29  C   LIG    1       -3.824   4.357   4.452  0.00  0.00    +0.100 C 
ATOM     30  O   LIG    1        3.195   5.165   3.923  0.00  0.00    -0.450 OA
ATOM     31  C   LIG    1       -0.206   4.074   2.191  0.00  0.00    -0.140 A 
ENDBRANCH  18  19
ENDBRANCH   7  18
TORSDOF 3
