REMARK  Name = ZINCtV000002GZWr.0
REMARK                            x       y       z     vdW  Elec       q    Type
REMARK                         _______ _______ _______ _____ _____    ______ ____
ROOT
ATOM      1  C   LIG    1        0.541   3.933  -1.909  0.00  0.00    -0.010 A 
ATOM      2  C   LIG    1        0.562   4.937  -2.784  0.00  0.00    -0.020 A 
ATOM      3  S   LIG    1        0.423   6.488  -1.979  0.00  0.00    +0.180 S 
ATOM      4  C   LIG    1        0.333   5.737  -0.392  0.00  0.00    +0.090 A 
ATOM      5  N   LIG    1        0.209   6.274   0.829  0.00  0.00    -0.490 NA
ATOM      6  C   LIG    1        0.160   5.516   1.900  0.00  0.00    +0.520 A 
ATOM      7  N   LIG    1        0.229   4.199   1.833  0.00  0.00    -0.550 NA
ATOM      8  C   LIG    1        0.352   3.578   0.668  0.00  0.00    +0.410 A 
ATOM      9  C   LIG    1        0.416   4.350  -0.518  0.00  0.00    -0.150 A 
ENDROOT
BRANCH   1  14
ATOM     10  C   LIG    1        0.933  -1.590  -3.487  0.00  0.00    +0.080 C 
ATOM     11  C   LIG    1        0.831  -0.145  -3.074  0.00  0.00    -0.080 A 
ATOM     12  C   LIG    1       -0.142   0.664  -3.633  0.00  0.00    -0.010 A 
ATOM     13  C   LIG    1       -0.241   1.989  -3.259  0.00  0.00    +0.020 A 
ATOM     14  C   LIG    1        0.642   2.511  -2.315  0.00  0.00    -0.040 A 
ATOM     15  C   LIG    1        1.624   1.693  -1.759  0.00  0.00    +0.080 A 
ATOM     16  C   LIG    1        1.709   0.368  -2.136  0.00  0.00    +0.000 A 
ENDBRANCH   1  14
BRANCH   8  17
ATOM     17  N   LIG    1        0.423   2.197   0.613  0.00  0.00    -0.480 N 
ATOM     18  C   LIG    1       -0.895   1.593   0.844  0.00  0.00    +0.190 C 
ATOM     19  C   LIG    1       -0.808   0.080   0.632  0.00  0.00    +0.040 C 
ATOM     20  C   LIG    1        0.221  -0.508   1.601  0.00  0.00    -0.010 C 
ATOM     21  C   LIG    1        1.573   0.173   1.372  0.00  0.00    +0.040 C 
ATOM     22  C   LIG    1        1.417   1.683   1.563  0.00  0.00    +0.190 C 
BRANCH  20  23
ATOM     23  C   LIG    1        0.357  -2.012   1.353  0.00  0.00    +0.070 C 
BRANCH  23  24
ATOM     24  C   LIG    1        1.277  -2.611   2.385  0.00  0.00    -0.080 A 
ATOM     25  C   LIG    1        2.615  -2.797   2.093  0.00  0.00    +0.000 A 
ATOM     26  C   LIG    1        3.460  -3.342   3.041  0.00  0.00    +0.000 A 
ATOM     27  C   LIG    1        2.965  -3.710   4.278  0.00  0.00    -0.010 A 
ATOM     28  C   LIG    1        1.626  -3.528   4.569  0.00  0.00    +0.000 A 
ATOM     29  C   LIG    1        0.782  -2.978   3.622  0.00  0.00    +0.000 A 
ENDBRANCH  23  24
ENDBRANCH  20  23
ENDBRANCH   8  17
TORSDOF 4
