REMARK  Name = ZINCvU00000007Pl.0
REMARK                            x       y       z     vdW  Elec       q    Type
REMARK                         _______ _______ _______ _____ _____    ______ ____
ROOT
ATOM      1  C   LIG    1       -0.834   0.615  -2.323  0.00  0.00    +0.290 A 
ATOM      2  N   LIG    1       -1.303  -0.594  -2.228  0.00  0.00    -0.480 NA
ATOM      3  C   LIG    1       -1.170  -1.231  -3.420  0.00  0.00    +0.050 A 
ATOM      4  C   LIG    1       -1.499  -2.512  -3.870  0.00  0.00    +0.070 A 
ATOM      5  C   LIG    1       -1.233  -2.868  -5.162  0.00  0.00    +0.000 A 
ATOM      6  C   LIG    1       -0.639  -1.969  -6.037  0.00  0.00    +0.030 A 
ATOM      7  C   LIG    1       -0.306  -0.700  -5.614  0.00  0.00    +0.010 A 
ATOM      8  C   LIG    1       -0.568  -0.320  -4.305  0.00  0.00    +0.050 A 
ATOM      9  N   LIG    1       -0.373   0.840  -3.583  0.00  0.00    -0.480 N 
ENDROOT
BRANCH   1  13
ATOM     10  O   LIG    1       -0.333   1.640   2.343  0.00  0.00    -0.520 OA
ATOM     11  C   LIG    1       -0.771   1.598   1.213  0.00  0.00    +0.530 C 
ATOM     12  C   LIG    1       -0.013   1.086   0.008  0.00  0.00    +0.090 C 
ATOM     13  C   LIG    1       -0.811   1.623  -1.203  0.00  0.00    +0.090 C 
ATOM     14  C   LIG    1       -2.219   1.807  -0.595  0.00  0.00    +0.290 C 
ATOM     15  N   LIG    1       -2.003   2.000   0.844  0.00  0.00    -0.610 N 
BRANCH  15  16
ATOM     16  C   LIG    1       -2.998   2.559   1.761  0.00  0.00    +0.350 C 
BRANCH  16  17
ATOM     17  C   LIG    1       -3.841   1.445   2.327  0.00  0.00    -0.110 A 
ATOM     18  C   LIG    1       -5.001   1.059   1.681  0.00  0.00    +0.020 A 
ATOM     19  C   LIG    1       -5.772   0.035   2.197  0.00  0.00    +0.000 A 
ATOM     20  C   LIG    1       -5.388  -0.598   3.365  0.00  0.00    +0.010 A 
ATOM     21  C   LIG    1       -4.231  -0.208   4.014  0.00  0.00    +0.000 A 
ATOM     22  C   LIG    1       -3.458   0.813   3.495  0.00  0.00    +0.030 A 
ENDBRANCH  16  17
ENDBRANCH  15  16
ENDBRANCH   1  13
BRANCH   9  23
ATOM     23  C   LIG    1        0.224   2.083  -4.080  0.00  0.00    +0.300 C 
BRANCH  23  24
ATOM     24  C   LIG    1        1.737   2.046  -3.859  0.00  0.00    +0.010 C 
BRANCH  24  25
ATOM     25  C   LIG    1        2.360   3.343  -4.379  0.00  0.00    +0.080 C 
BRANCH  25  26
ATOM     26  C   LIG    1        3.851   3.307  -4.161  0.00  0.00    -0.090 A 
ATOM     27  C   LIG    1        4.390   3.797  -2.986  0.00  0.00    +0.000 A 
ATOM     28  C   LIG    1        5.757   3.760  -2.785  0.00  0.00    +0.000 A 
ATOM     29  C   LIG    1        6.586   3.241  -3.762  0.00  0.00    +0.000 A 
ATOM     30  C   LIG    1        6.047   2.756  -4.939  0.00  0.00    +0.000 A 
ATOM     31  C   LIG    1        4.680   2.789  -5.138  0.00  0.00    +0.000 A 
ENDBRANCH  25  26
ENDBRANCH  24  25
ENDBRANCH  23  24
ENDBRANCH   9  23
TORSDOF 7
