REMARK  Name = ZINCrg000000s15e.0
REMARK                            x       y       z     vdW  Elec       q    Type
REMARK                         _______ _______ _______ _____ _____    ______ ____
ROOT
ATOM      1  S   LIG    1       -4.286  -1.869   4.628  0.00  0.00    +2.700 S 
ATOM      2  O   LIG    1       -5.646  -1.627   4.959  0.00  0.00    -0.950 OA
ATOM      3  O   LIG    1       -3.268  -2.046   5.604  0.00  0.00    -0.950 OA
ENDROOT
BRANCH   1   4
ATOM      4  C   LIG    1       -4.268  -3.315   3.622  0.00  0.00    -0.670 A 
ATOM      5  C   LIG    1       -3.119  -4.082   3.538  0.00  0.00    +0.140 A 
ATOM      6  C   LIG    1       -3.095  -5.218   2.752  0.00  0.00    +0.020 A 
ATOM      7  C   LIG    1       -4.227  -5.591   2.044  0.00  0.00    +0.150 A 
ATOM      8  N   LIG    1       -4.513  -6.652   1.188  0.00  0.00    -0.640 N 
ATOM      9  H   LIG    1       -3.898  -7.359   0.936  0.00  0.00    +0.440 HD
ATOM     10  C   LIG    1       -5.787  -6.530   0.772  0.00  0.00    +0.690 A 
ATOM     11  N   LIG    1       -6.341  -5.433   1.322  0.00  0.00    -0.640 N 
ATOM     12  H   LIG    1       -7.249  -5.123   1.180  0.00  0.00    +0.440 HD
ATOM     13  O   LIG    1       -6.353  -7.295   0.013  0.00  0.00    -0.540 OA
ATOM     14  C   LIG    1       -5.387  -4.817   2.129  0.00  0.00    +0.070 A 
ATOM     15  C   LIG    1       -5.403  -3.682   2.925  0.00  0.00    +0.150 A 
ENDBRANCH   1   4
BRANCH   1  19
ATOM     16  N   LIG    1       -2.948   0.768   1.405  0.00  0.00    -0.530 NA
ATOM     17  C   LIG    1       -2.017  -0.146   2.080  0.00  0.00    +0.160 C 
ATOM     18  C   LIG    1       -2.384  -0.238   3.565  0.00  0.00    +0.320 C 
ATOM     19  N   LIG    1       -3.804  -0.603   3.675  0.00  0.00    -1.000 NA
ATOM     20  C   LIG    1       -4.786   0.186   2.914  0.00  0.00    +0.320 C 
ATOM     21  C   LIG    1       -4.325   0.261   1.455  0.00  0.00    +0.170 C 
BRANCH  16  22
ATOM     22  C   LIG    1       -2.528   1.018   0.019  0.00  0.00    +0.230 C 
BRANCH  22  26
ATOM     23  C   LIG    1        0.077   5.302   0.031  0.00  0.00    +0.130 C 
ATOM     24  C   LIG    1        0.033   3.795   0.023  0.00  0.00    +0.130 A 
ATOM     25  C   LIG    1       -1.188   3.148   0.030  0.00  0.00    -0.010 A 
ATOM     26  C   LIG    1       -1.217   1.761   0.017  0.00  0.00    -0.030 A 
ATOM     27  C   LIG    1       -0.013   1.076   0.008  0.00  0.00    -0.050 A 
ATOM     28  C   LIG    1        1.170   1.792   0.001  0.00  0.00    +0.270 A 
ATOM     29  N   LIG    1        1.160   3.110   0.008  0.00  0.00    -0.490 NA
ENDBRANCH  22  26
ENDBRANCH  16  22
ENDBRANCH   1  19
TORSDOF 4
