REMARK  Name = ZINCtV00000L6jMp.0
REMARK                            x       y       z     vdW  Elec       q    Type
REMARK                         _______ _______ _______ _____ _____    ______ ____
ROOT
ATOM      1  C   LIG    1       -5.503   3.468  -0.226  0.00  0.00    +0.230 C 
ATOM      2  N   LIG    1       -4.799   2.404   0.050  0.00  0.00    -0.420 NA
ATOM      3  C   LIG    1       -3.441   2.493   0.030  0.00  0.00    +0.360 A 
ATOM      4  N   LIG    1       -2.535   1.552   0.023  0.00  0.00    -0.430 NA
ATOM      5  C   LIG    1       -1.310   2.116   0.020  0.00  0.00    +0.040 A 
ATOM      6  C   LIG    1       -1.466   3.472   0.033  0.00  0.00    +0.190 A 
ATOM      7  N   LIG    1       -2.800   3.712   0.039  0.00  0.00    -0.480 N 
ATOM      8  C   LIG    1       -3.530   4.981   0.064  0.00  0.00    +0.290 C 
ATOM      9  C   LIG    1       -4.875   4.769  -0.640  0.00  0.00    +0.090 C 
ENDROOT
BRANCH   1  14
ATOM     10  C   LIG    1      -11.230   3.167   0.165  0.00  0.00    +0.100 C 
ATOM     11  C   LIG    1       -9.728   3.246   0.063  0.00  0.00    -0.060 A 
ATOM     12  C   LIG    1       -8.959   2.132   0.350  0.00  0.00    +0.000 A 
ATOM     13  C   LIG    1       -7.585   2.196   0.258  0.00  0.00    +0.080 A 
ATOM     14  C   LIG    1       -6.968   3.391  -0.125  0.00  0.00    -0.080 A 
ATOM     15  C   LIG    1       -7.752   4.515  -0.407  0.00  0.00    +0.050 A 
ATOM     16  C   LIG    1       -9.126   4.433  -0.317  0.00  0.00    +0.000 A 
ENDBRANCH   1  14
BRANCH   8  17
ATOM     17  C   LIG    1       -2.737   6.039  -0.661  0.00  0.00    -0.120 A 
ATOM     18  C   LIG    1       -2.411   5.866  -1.993  0.00  0.00    +0.070 A 
ATOM     19  C   LIG    1       -1.689   6.837  -2.660  0.00  0.00    -0.010 A 
ATOM     20  C   LIG    1       -1.282   7.979  -1.990  0.00  0.00    +0.120 A 
ATOM     21  C   LIG    1       -1.605   8.148  -0.655  0.00  0.00    -0.010 A 
ATOM     22  F   LIG    1       -0.572   8.926  -2.640  0.00  0.00    -0.130 F 
ATOM     23  C   LIG    1       -2.332   7.178   0.009  0.00  0.00    +0.080 A 
ENDBRANCH   8  17
BRANCH   5  24
ATOM     24  C   LIG    1       -0.017   1.389   0.010  0.00  0.00    -0.000 A 
ATOM     25  C   LIG    1        1.183   2.097   0.002  0.00  0.00    +0.010 A 
ATOM     26  C   LIG    1        2.384   1.416  -0.013  0.00  0.00    +0.000 A 
ATOM     27  C   LIG    1        2.396   0.033  -0.021  0.00  0.00    +0.000 A 
ATOM     28  C   LIG    1        1.208  -0.675  -0.013  0.00  0.00    +0.000 A 
ATOM     29  C   LIG    1        0.002  -0.004   0.002  0.00  0.00    +0.040 A 
ENDBRANCH   5  24
TORSDOF 3
