REMARK  Name = ZINCbw0000000HoF.0
REMARK                            x       y       z     vdW  Elec       q    Type
REMARK                         _______ _______ _______ _____ _____    ______ ____
ROOT
ATOM      1  C   LIG    1        4.473   1.281  -0.035  0.00  0.00    +0.260 A 
ATOM      2  C   LIG    1        3.990   2.587  -0.023  0.00  0.00    -0.020 A 
ATOM      3  C   LIG    1        2.634   2.820  -0.008  0.00  0.00    +0.130 A 
ATOM      4  C   LIG    1        1.739   1.752  -0.005  0.00  0.00    -0.230 A 
ATOM      5  S   LIG    1       -0.021   1.702   0.011  0.00  0.00    +0.110 S 
ATOM      6  C   LIG    1        0.002  -0.004   0.002  0.00  0.00    +0.290 A 
ATOM      7  N   LIG    1        1.198  -0.457  -0.012  0.00  0.00    -0.470 NA
ATOM      8  C   LIG    1        2.208   0.434  -0.017  0.00  0.00    +0.150 A 
ATOM      9  C   LIG    1        3.601   0.213  -0.032  0.00  0.00    -0.140 A 
ATOM     10 BR   LIG    1        4.274  -1.554  -0.048  0.00  0.00    -0.030 Br
ENDROOT
BRANCH   1  11
ATOM     11  N   LIG    1        5.854   1.050  -0.049  0.00  0.00    -0.860 N 
ATOM     12  H   LIG    1        6.471   1.799  -0.051  0.00  0.00    +0.410 HD
ATOM     13  H   LIG    1        6.194   0.142  -0.057  0.00  0.00    +0.410 HD
ENDBRANCH   1  11
TORSDOF 1
