REMARK  Name = ZINCpe00000MJJpl.0
REMARK                            x       y       z     vdW  Elec       q    Type
REMARK                         _______ _______ _______ _____ _____    ______ ____
ROOT
ATOM      1  C   LIG    1       -5.845   6.502  -0.609  0.00  0.00    +0.250 C 
ATOM      2  C   LIG    1       -6.058   5.150   0.086  0.00  0.00    +0.270 C 
ATOM      3  N   LIG    1       -4.598   4.972   0.071  0.00  0.00    -0.630 N 
ATOM      4  C   LIG    1       -3.748   3.926   0.058  0.00  0.00    +0.640 C 
ATOM      5  O   LIG    1       -4.182   2.790   0.057  0.00  0.00    -0.540 OA
ATOM      6  C   LIG    1       -4.474   6.437   0.083  0.00  0.00    +0.260 C 
ENDROOT
BRANCH   4   7
ATOM      7  C   LIG    1       -2.296   4.159   0.045  0.00  0.00    -0.200 A 
ATOM      8  C   LIG    1       -1.656   5.359   0.044  0.00  0.00    +0.270 A 
ATOM      9  O   LIG    1       -0.332   5.169   0.031  0.00  0.00    -0.190 OA
ATOM     10  C   LIG    1       -0.024   3.856   0.022  0.00  0.00    +0.050 A 
ATOM     11  C   LIG    1        1.179   3.162   0.007  0.00  0.00    +0.020 A 
ATOM     12  C   LIG    1        1.180   1.783   0.000  0.00  0.00    +0.050 A 
ATOM     13  C   LIG    1       -0.013   1.076   0.008  0.00  0.00    +0.000 A 
ATOM     14  C   LIG    1       -1.217   1.747   0.017  0.00  0.00    +0.080 A 
ATOM     15  C   LIG    1       -1.229   3.137   0.030  0.00  0.00    -0.090 A 
ENDBRANCH   4   7
BRANCH   1  19
ATOM     16  C   LIG    1       -6.031   7.107  -4.356  0.00  0.00    +0.000 C 
ATOM     17  C   LIG    1       -5.118   5.865  -4.245  0.00  0.00    +0.070 C 
ATOM     18  C   LIG    1       -4.886   5.707  -2.759  0.00  0.00    +0.520 C 
ATOM     19  N   LIG    1       -5.790   6.425  -2.071  0.00  0.00    -0.610 N 
ATOM     20  O   LIG    1       -4.010   5.033  -2.260  0.00  0.00    -0.500 OA
ATOM     21  C   LIG    1       -6.720   7.115  -2.972  0.00  0.00    +0.300 C 
BRANCH  16  25
ATOM     22  C   LIG    1       -7.620   6.606  -7.803  0.00  0.00    +0.280 C 
ATOM     23  N   LIG    1       -6.635   6.774  -6.732  0.00  0.00    -0.730 N 
ATOM     24  H   LIG    1       -5.687   6.769  -6.940  0.00  0.00    +0.400 HD
ATOM     25  C   LIG    1       -7.045   6.935  -5.458  0.00  0.00    +0.520 C 
ATOM     26  O   LIG    1       -8.230   6.941  -5.199  0.00  0.00    -0.530 OA
ENDBRANCH  16  25
ENDBRANCH   1  19
TORSDOF 3
