REMARK  Name = ZINCqH0000005HSH.0
REMARK                            x       y       z     vdW  Elec       q    Type
REMARK                         _______ _______ _______ _____ _____    ______ ____
ROOT
ATOM      1  N   LIG    1       -5.246   9.383   0.420  0.00  0.00    -0.710 N 
ATOM      2  H   LIG    1       -4.950   8.838  -0.326  0.00  0.00    +0.410 HD
ATOM      3  C   LIG    1       -4.406   9.641   1.442  0.00  0.00    +0.520 C 
ATOM      4  O   LIG    1       -4.776  10.323   2.374  0.00  0.00    -0.530 OA
ENDROOT
BRANCH   1   5
ATOM      5  C   LIG    1       -6.606   9.927   0.435  0.00  0.00    +0.200 C 
ATOM      6  C   LIG    1       -7.386   9.385  -0.765  0.00  0.00    +0.050 C 
ATOM      7  C   LIG    1       -6.684   9.802  -2.059  0.00  0.00    +0.030 C 
ATOM      8  C   LIG    1       -6.624  11.329  -2.137  0.00  0.00    +0.030 C 
ATOM      9  C   LIG    1       -5.845  11.871  -0.937  0.00  0.00    -0.060 C 
ATOM     10  C   LIG    1       -4.424  11.303  -0.953  0.00  0.00    +0.020 C 
ATOM     11  C   LIG    1       -5.785  13.398  -1.015  0.00  0.00    +0.040 C 
ATOM     12  C   LIG    1       -6.546  11.454   0.357  0.00  0.00    +0.060 C 
BRANCH   5  13
ATOM     13  C   LIG    1       -7.297   9.516   1.710  0.00  0.00    +0.470 C 
ATOM     14  O   LIG    1       -8.078  10.268   2.244  0.00  0.00    -0.500 OA
BRANCH  13  16
ATOM     15  C   LIG    1       -7.747   7.985   3.481  0.00  0.00    +0.260 C 
ATOM     16  O   LIG    1       -7.045   8.314   2.252  0.00  0.00    -0.350 OA
ENDBRANCH  13  16
ENDBRANCH   5  13
ENDBRANCH   1   5
BRANCH   3  17
ATOM     17  C   LIG    1       -3.006   9.082   1.426  0.00  0.00    +0.060 C 
BRANCH  17  18
ATOM     18  C   LIG    1       -2.268   9.521   2.692  0.00  0.00    +0.060 C 
BRANCH  18  19
ATOM     19  C   LIG    1       -0.847   8.953   2.676  0.00  0.00    +0.180 C 
BRANCH  19  20
ATOM     20  O   LIG    1       -0.157   9.363   3.858  0.00  0.00    -0.310 OA
BRANCH  20  21
ATOM     21  C   LIG    1        1.127   8.941   4.001  0.00  0.00    +0.130 A 
ATOM     22  C   LIG    1        1.710   8.148   3.023  0.00  0.00    -0.080 A 
ATOM     23  C   LIG    1        3.016   7.720   3.171  0.00  0.00    +0.030 A 
ATOM     24  C   LIG    1        3.740   8.081   4.292  0.00  0.00    -0.030 A 
ATOM     25  C   LIG    1        3.161   8.871   5.268  0.00  0.00    +0.050 A 
ATOM     26  C   LIG    1        1.854   9.297   5.128  0.00  0.00    -0.120 A 
ATOM     27  C   LIG    1        1.222  10.153   6.195  0.00  0.00    +0.100 C 
ENDBRANCH  20  21
ENDBRANCH  19  20
ENDBRANCH  18  19
ENDBRANCH  17  18
ENDBRANCH   3  17
TORSDOF 8
