REMARK  Name = ZINCpe00000MCgMa.0
REMARK                            x       y       z     vdW  Elec       q    Type
REMARK                         _______ _______ _______ _____ _____    ______ ____
ROOT
ATOM      1  C   LIG    1       -0.732  -0.703  -0.886  0.00  0.00    +0.520 C 
ATOM      2  N   LIG    1        0.002  -0.004   0.002  0.00  0.00    -0.610 N 
ATOM      3  C   LIG    1        0.847  -0.690   0.993  0.00  0.00    +0.240 C 
ATOM      4  C   LIG    1        2.252  -0.082   0.934  0.00  0.00    +0.220 C 
ATOM      5  O   LIG    1        2.156   1.340   1.057  0.00  0.00    -0.370 OA
ATOM      6  C   LIG    1        1.430   1.970  -0.001  0.00  0.00    +0.150 C 
ATOM      7  C   LIG    1       -0.018   1.467   0.010  0.00  0.00    +0.260 C 
ATOM      8  O   LIG    1       -1.422  -0.119  -1.695  0.00  0.00    -0.520 OA
ENDROOT
BRANCH   1  15
ATOM      9  C   LIG    1       -1.285  -3.078  -4.603  0.00  0.00    +0.110 C 
ATOM     10  C   LIG    1       -0.668  -2.472  -3.369  0.00  0.00    +0.540 C 
ATOM     11  N   LIG    1       -1.194  -2.732  -2.155  0.00  0.00    -0.600 N 
ATOM     12  C   LIG    1       -2.367  -3.586  -1.892  0.00  0.00    +0.250 C 
ATOM     13  C   LIG    1       -2.927  -3.084  -0.538  0.00  0.00    +0.170 C 
ATOM     14  C   LIG    1       -1.620  -2.749   0.236  0.00  0.00    +0.080 C 
ATOM     15  C   LIG    1       -0.695  -2.209  -0.875  0.00  0.00    +0.220 C 
ATOM     16  O   LIG    1        0.302  -1.751  -3.467  0.00  0.00    -0.530 OA
BRANCH  13  17
ATOM     17  O   LIG    1       -3.664  -4.114   0.124  0.00  0.00    -0.550 OA
ATOM     18  H   LIG    1       -4.435  -4.425  -0.369  0.00  0.00    +0.390 HD
ENDBRANCH  13  17
ENDBRANCH   1  15
BRANCH   6  19
ATOM     19  C   LIG    1        1.446   3.487   0.202  0.00  0.00    +0.060 C 
BRANCH  19  20
ATOM     20  C   LIG    1        2.879   4.005   0.067  0.00  0.00    +0.070 C 
BRANCH  20  21
ATOM     21  C   LIG    1        2.894   5.498   0.267  0.00  0.00    -0.080 A 
ATOM     22  C   LIG    1        2.739   6.343  -0.817  0.00  0.00    +0.000 A 
ATOM     23  C   LIG    1        2.747   7.713  -0.633  0.00  0.00    +0.000 A 
ATOM     24  C   LIG    1        2.923   8.239   0.634  0.00  0.00    -0.010 A 
ATOM     25  C   LIG    1        3.084   7.394   1.716  0.00  0.00    +0.000 A 
ATOM     26  C   LIG    1        3.070   6.024   1.533  0.00  0.00    +0.000 A 
ENDBRANCH  20  21
ENDBRANCH  19  20
ENDBRANCH   6  19
TORSDOF 5
