REMARK  Name = ZINCvU00000003Kk.0
REMARK                            x       y       z     vdW  Elec       q    Type
REMARK                         _______ _______ _______ _____ _____    ______ ____
ROOT
ATOM      1  C   LIG    1        3.628   5.998  -0.216  0.00  0.00    +0.070 C 
ENDROOT
BRANCH   1   2
ATOM      2  C   LIG    1        4.050   6.047  -1.662  0.00  0.00    -0.090 A 
ATOM      3  C   LIG    1        3.222   6.629  -2.604  0.00  0.00    +0.040 A 
ATOM      4  C   LIG    1        3.611   6.677  -3.929  0.00  0.00    +0.000 A 
ATOM      5  C   LIG    1        4.823   6.136  -4.315  0.00  0.00    +0.010 A 
ATOM      6  C   LIG    1        5.648   5.549  -3.373  0.00  0.00    +0.000 A 
ATOM      7  C   LIG    1        5.262   5.505  -2.047  0.00  0.00    +0.060 A 
ENDBRANCH   1   2
BRANCH   1  10
ATOM      8  N   LIG    1        2.356   3.889   0.001  0.00  0.00    -0.660 N 
ATOM      9  H   LIG    1        3.202   3.419   0.058  0.00  0.00    +0.410 HD
ATOM     10  C   LIG    1        2.336   5.233  -0.094  0.00  0.00    +0.540 C 
ATOM     11  O   LIG    1        1.278   5.827  -0.082  0.00  0.00    -0.500 OA
BRANCH   8  16
ATOM     12  C   LIG    1       -2.517   0.983   0.053  0.00  0.00    +0.090 C 
ATOM     13  C   LIG    1       -1.222   1.754   0.041  0.00  0.00    -0.100 A 
ATOM     14  C   LIG    1       -0.106   1.218  -0.575  0.00  0.00    +0.030 A 
ATOM     15  C   LIG    1        1.081   1.924  -0.592  0.00  0.00    -0.010 A 
ATOM     16  C   LIG    1        1.155   3.171   0.015  0.00  0.00    +0.130 A 
ATOM     17  C   LIG    1        0.033   3.704   0.638  0.00  0.00    +0.030 A 
ATOM     18  C   LIG    1       -1.151   2.992   0.652  0.00  0.00    +0.030 A 
ENDBRANCH   8  16
ENDBRANCH   1  10
BRANCH   1  19
ATOM     19  S   LIG    1        3.392   7.684   0.401  0.00  0.00    +0.080 S 
BRANCH  19  20
ATOM     20  C   LIG    1        5.044   8.286   0.288  0.00  0.00    +0.140 A 
ATOM     21  N   LIG    1        6.091   7.617  -0.133  0.00  0.00    -0.280 NA
ATOM     22  N   LIG    1        7.136   8.364  -0.085  0.00  0.00    -0.280 NA
ATOM     23  C   LIG    1        6.821   9.543   0.374  0.00  0.00    +0.190 A 
ATOM     24  C   LIG    1        7.764  10.699   0.585  0.00  0.00    +0.200 C 
ATOM     25  N   LIG    1        5.477   9.535   0.628  0.00  0.00    -0.450 N 
BRANCH  25  26
ATOM     26  C   LIG    1        4.671  10.639   1.155  0.00  0.00    +0.370 C 
BRANCH  26  27
ATOM     27  C   LIG    1        4.647  10.568   2.660  0.00  0.00    -0.120 A 
ATOM     28  C   LIG    1        3.656   9.850   3.303  0.00  0.00    +0.040 A 
ATOM     29  C   LIG    1        3.636   9.782   4.684  0.00  0.00    +0.010 A 
ATOM     30  C   LIG    1        4.602  10.440   5.422  0.00  0.00    +0.020 A 
ATOM     31  C   LIG    1        5.590  11.163   4.779  0.00  0.00    +0.010 A 
ATOM     32  C   LIG    1        5.612  11.227   3.399  0.00  0.00    +0.020 A 
ENDBRANCH  26  27
ENDBRANCH  25  26
ENDBRANCH  19  20
ENDBRANCH   1  19
TORSDOF 7
