REMARK  Name = ZINCrg000000rubN.0
REMARK                            x       y       z     vdW  Elec       q    Type
REMARK                         _______ _______ _______ _____ _____    ______ ____
ROOT
ATOM      1  N   LIG    1       -6.159   1.570  -5.568  0.00  0.00    -0.670 N 
ATOM      2  H   LIG    1       -6.006   2.349  -6.125  0.00  0.00    +0.420 HD
ATOM      3  C   LIG    1       -5.320   1.294  -4.550  0.00  0.00    +0.500 C 
ATOM      4  O   LIG    1       -5.564   0.377  -3.794  0.00  0.00    -0.500 OA
ENDROOT
BRANCH   1  11
ATOM      5  C   LIG    1       -9.695  -3.031  -8.452  0.00  0.00    +0.060 C 
ATOM      6  C   LIG    1      -10.177  -3.065  -7.000  0.00  0.00    +0.230 C 
ATOM      7  O   LIG    1      -10.482  -1.737  -6.568  0.00  0.00    -0.300 OA
ATOM      8  C   LIG    1       -9.425  -0.915  -6.324  0.00  0.00    +0.070 A 
ATOM      9  C   LIG    1       -9.519   0.444  -6.565  0.00  0.00    +0.060 A 
ATOM     10  C   LIG    1       -8.437   1.267  -6.313  0.00  0.00    +0.010 A 
ATOM     11  C   LIG    1       -7.254   0.733  -5.820  0.00  0.00    +0.160 A 
ATOM     12  C   LIG    1       -7.153  -0.632  -5.582  0.00  0.00    +0.020 A 
ATOM     13  C   LIG    1       -8.239  -1.455  -5.828  0.00  0.00    +0.110 A 
ATOM     14  N   LIG    1       -8.160  -2.834  -5.588  0.00  0.00    -0.660 N 
ATOM     15  H   LIG    1       -7.445  -3.199  -5.044  0.00  0.00    +0.420 HD
ATOM     16  C   LIG    1       -9.095  -3.647  -6.126  0.00  0.00    +0.500 C 
ATOM     17  O   LIG    1       -9.064  -4.839  -5.907  0.00  0.00    -0.510 OA
ENDBRANCH   1  11
BRANCH   3  18
ATOM     18  C   LIG    1       -4.078   2.124  -4.351  0.00  0.00    +0.370 C 
BRANCH  18  19
ATOM     19  N   LIG    1       -3.340   1.627  -3.187  0.00  0.00    -0.560 N 
ATOM     20  C   LIG    1       -2.394   0.682  -3.244  0.00  0.00    +0.710 C 
ATOM     21  N   LIG    1       -1.870   0.406  -2.037  0.00  0.00    -0.710 N 
ATOM     22  H   LIG    1       -1.175  -0.242  -1.841  0.00  0.00    +0.440 HD
ATOM     23  C   LIG    1       -2.558   1.278  -1.069  0.00  0.00    +0.160 C 
ATOM     24  C   LIG    1       -3.307   0.443  -0.029  0.00  0.00    +0.090 C 
ATOM     25  O   LIG    1       -2.048   0.134  -4.273  0.00  0.00    -0.540 OA
ATOM     26  C   LIG    1       -3.529   2.065  -1.927  0.00  0.00    +0.540 C 
ATOM     27  O   LIG    1       -4.313   2.912  -1.556  0.00  0.00    -0.450 OA
BRANCH  23  28
ATOM     28  C   LIG    1       -1.560   2.216  -0.387  0.00  0.00    -0.050 C 
ATOM     29  C   LIG    1       -0.512   1.585   0.533  0.00  0.00    +0.040 C 
ATOM     30  C   LIG    1       -1.672   2.384   1.131  0.00  0.00    +0.050 C 
ENDBRANCH  23  28
ENDBRANCH  18  19
ENDBRANCH   3  18
TORSDOF 4
