REMARK  Name = ZINCrD000000AohG.0
REMARK                            x       y       z     vdW  Elec       q    Type
REMARK                         _______ _______ _______ _____ _____    ______ ____
ROOT
ATOM      1  O   LIG    1        7.274   5.259   0.666  0.00  0.00    -0.540 OA
ATOM      2  C   LIG    1        6.586   4.886   1.593  0.00  0.00    +0.510 C 
ATOM      3  N   LIG    1        5.411   4.270   1.355  0.00  0.00    -0.720 N 
ATOM      4  H   LIG    1        4.861   3.972   2.095  0.00  0.00    +0.410 HD
ENDROOT
BRANCH   3   5
ATOM      5  C   LIG    1        4.966   4.050  -0.024  0.00  0.00    +0.330 C 
BRANCH   5   6
ATOM      6  C   LIG    1        3.633   3.348  -0.015  0.00  0.00    -0.150 A 
ATOM      7  C   LIG    1        2.464   4.086   0.000  0.00  0.00    +0.080 A 
ATOM      8  C   LIG    1        1.240   3.444   0.009  0.00  0.00    +0.000 A 
ATOM      9  C   LIG    1        1.185   2.058   0.002  0.00  0.00    +0.140 A 
ATOM     10  C   LIG    1        2.359   1.320  -0.008  0.00  0.00    -0.080 A 
ATOM     11  C   LIG    1        3.580   1.966  -0.021  0.00  0.00    +0.070 A 
BRANCH   9  12
ATOM     12  O   LIG    1       -0.017   1.425   0.010  0.00  0.00    -0.300 OA
BRANCH  12  13
ATOM     13  C   LIG    1        0.002  -0.004   0.002  0.00  0.00    +0.230 C 
BRANCH  13  14
ATOM     14  C   LIG    1       -1.433  -0.534   0.013  0.00  0.00    +0.470 C 
ATOM     15  F   LIG    1       -2.088  -0.083   1.164  0.00  0.00    -0.170 F 
ATOM     16  F   LIG    1       -1.414  -1.933   0.005  0.00  0.00    -0.170 F 
ATOM     17  F   LIG    1       -2.110  -0.070  -1.121  0.00  0.00    -0.170 F 
ENDBRANCH  13  14
ENDBRANCH  12  13
ENDBRANCH   9  12
ENDBRANCH   5   6
ENDBRANCH   3   5
BRANCH   2  18
ATOM     18  C   LIG    1        7.044   5.113   3.010  0.00  0.00    +0.300 C 
BRANCH  18  19
ATOM     19  N   LIG    1        8.340   5.796   3.002  0.00  0.00    -0.710 N 
ATOM     20  H   LIG    1        8.761   6.026   2.159  0.00  0.00    +0.410 HD
ATOM     21  C   LIG    1        8.947   6.103   4.165  0.00  0.00    +0.570 C 
ATOM     22  O   LIG    1        8.420   5.814   5.221  0.00  0.00    -0.530 OA
BRANCH  21  23
ATOM     23  C   LIG    1       10.255   6.793   4.156  0.00  0.00    -0.120 A 
ATOM     24  C   LIG    1       10.867   7.120   2.945  0.00  0.00    +0.060 A 
ATOM     25  C   LIG    1       12.084   7.769   2.943  0.00  0.00    +0.030 A 
ATOM     26  C   LIG    1       12.706   8.084   4.138  0.00  0.00    +0.060 A 
ATOM     27  C   LIG    1       12.108   7.756   5.343  0.00  0.00    -0.040 A 
ATOM     28 CL   LIG    1       12.896   8.156   6.838  0.00  0.00    -0.060 Cl
ATOM     29  C   LIG    1       10.887   7.113   5.359  0.00  0.00    +0.100 A 
ENDBRANCH  21  23
ENDBRANCH  18  19
ENDBRANCH   2  18
TORSDOF 8
