REMARK  Name = ZINCpk00000y6wno.0
REMARK                            x       y       z     vdW  Elec       q    Type
REMARK                         _______ _______ _______ _____ _____    ______ ____
ROOT
ATOM      1  C   LIG    1       -2.093   4.617   1.392  0.00  0.00    +0.170 C 
ATOM      2  C   LIG    1       -1.496   6.039   1.440  0.00  0.00    +0.250 C 
ATOM      3  N   LIG    1       -1.504   6.497   0.031  0.00  0.00    -0.620 N 
ATOM      4  C   LIG    1       -1.113   5.296  -0.748  0.00  0.00    +0.300 C 
ATOM      5  C   LIG    1       -1.801   7.725  -0.438  0.00  0.00    +0.600 C 
ATOM      6  O   LIG    1       -1.684   7.967  -1.624  0.00  0.00    -0.510 OA
ATOM      7  C   LIG    1       -1.840   4.127  -0.050  0.00  0.00    +0.110 C 
ENDROOT
BRANCH   5   8
ATOM      8  C   LIG    1       -2.268   8.775   0.487  0.00  0.00    -0.200 A 
ATOM      9  C   LIG    1       -1.706   8.901   1.763  0.00  0.00    +0.140 A 
ATOM     10  C   LIG    1       -2.176   9.905   2.591  0.00  0.00    -0.070 A 
ATOM     11  C   LIG    1       -3.184  10.740   2.144  0.00  0.00    +0.340 A 
ATOM     12  N   LIG    1       -3.703  10.600   0.939  0.00  0.00    -0.540 NA
ATOM     13  C   LIG    1       -3.287   9.661   0.106  0.00  0.00    +0.380 A 
BRANCH  13  14
ATOM     14  O   LIG    1       -3.849   9.553  -1.121  0.00  0.00    -0.280 OA
BRANCH  14  15
ATOM     15  C   LIG    1       -4.881  10.486  -1.447  0.00  0.00    +0.210 C 
BRANCH  15  16
ATOM     16  C   LIG    1       -5.390  10.210  -2.863  0.00  0.00    -0.020 C 
ATOM     17  C   LIG    1       -6.405  11.284  -3.258  0.00  0.00    +0.050 C 
ATOM     18  C   LIG    1       -6.059   8.835  -2.906  0.00  0.00    +0.020 C 
ENDBRANCH  15  16
ENDBRANCH  14  15
ENDBRANCH  13  14
ENDBRANCH   5   8
BRANCH   7  19
ATOM     19  C   LIG    1       -0.968   2.899  -0.040  0.00  0.00    +0.010 A 
ATOM     20  N   LIG    1       -1.362   1.647  -0.104  0.00  0.00    -0.270 NA
ATOM     21  N   LIG    1       -0.326   0.886  -0.068  0.00  0.00    -0.250 N 
ATOM     22  H   LIG    1       -0.353  -0.083  -0.098  0.00  0.00    +0.470 HD
ATOM     23  N   LIG    1        0.751   1.584   0.010  0.00  0.00    -0.280 NA
ATOM     24  C   LIG    1        0.427   2.857   0.031  0.00  0.00    +0.180 A 
ENDBRANCH   7  19
BRANCH   1  26
ATOM     25  C   LIG    1       -3.828   4.427   3.035  0.00  0.00    +0.200 C 
ATOM     26  O   LIG    1       -3.495   4.657   1.664  0.00  0.00    -0.370 OA
ENDBRANCH   1  26
TORSDOF 6
