REMARK  Name = ZINCpk00000y6wno.1
REMARK                            x       y       z     vdW  Elec       q    Type
REMARK                         _______ _______ _______ _____ _____    ______ ____
ROOT
ATOM      1  C   LIG    1       -2.521   3.726   6.876  0.00  0.00    +0.170 C 
ATOM      2  C   LIG    1       -2.179   2.450   6.069  0.00  0.00    +0.250 C 
ATOM      3  N   LIG    1       -2.599   2.766   4.684  0.00  0.00    -0.620 N 
ATOM      4  C   LIG    1       -3.873   3.504   4.847  0.00  0.00    +0.300 C 
ATOM      5  C   LIG    1       -1.969   2.448   3.535  0.00  0.00    +0.600 C 
ATOM      6  O   LIG    1       -2.396   2.859   2.474  0.00  0.00    -0.510 OA
ATOM      7  C   LIG    1       -3.641   4.417   6.070  0.00  0.00    +0.100 C 
ENDROOT
BRANCH   5   8
ATOM      8  C   LIG    1       -0.761   1.602   3.567  0.00  0.00    -0.210 A 
ATOM      9  C   LIG    1       -0.635   0.575   4.509  0.00  0.00    +0.140 A 
ATOM     10  C   LIG    1        0.521  -0.186   4.500  0.00  0.00    -0.070 A 
ATOM     11  C   LIG    1        1.505   0.082   3.567  0.00  0.00    +0.340 A 
ATOM     12  N   LIG    1        1.363   1.052   2.684  0.00  0.00    -0.540 NA
ATOM     13  C   LIG    1        0.280   1.809   2.649  0.00  0.00    +0.380 A 
BRANCH  13  14
ATOM     14  O   LIG    1        0.176   2.794   1.725  0.00  0.00    -0.280 OA
BRANCH  14  15
ATOM     15  C   LIG    1        1.274   2.955   0.824  0.00  0.00    +0.210 C 
BRANCH  15  16
ATOM     16  C   LIG    1        0.977   4.107  -0.139  0.00  0.00    -0.020 C 
ATOM     17  C   LIG    1        2.093   4.200  -1.182  0.00  0.00    +0.050 C 
ATOM     18  C   LIG    1        0.900   5.419   0.644  0.00  0.00    +0.020 C 
ENDBRANCH  15  16
ENDBRANCH  14  15
ENDBRANCH  13  14
ENDBRANCH   5   8
BRANCH   7  19
ATOM     19  C   LIG    1       -4.897   4.516   6.897  0.00  0.00    -0.010 A 
ATOM     20  C   LIG    1       -5.825   3.547   7.078  0.00  0.00    +0.160 A 
ATOM     21  N   LIG    1       -6.768   4.077   7.891  0.00  0.00    -0.390 N 
ATOM     22  H   LIG    1       -7.566   3.624   8.207  0.00  0.00    +0.450 HD
ATOM     23  N   LIG    1       -6.428   5.287   8.169  0.00  0.00    -0.070 NA
ATOM     24  N   LIG    1       -5.317   5.579   7.591  0.00  0.00    -0.250 NA
ENDBRANCH   7  19
BRANCH   1  26
ATOM     25  C   LIG    1       -0.613   4.392   8.164  0.00  0.00    +0.210 C 
ATOM     26  O   LIG    1       -1.379   4.579   6.972  0.00  0.00    -0.370 OA
ENDBRANCH   1  26
TORSDOF 6
