REMARK  Name = ZINCrH000004mnA1.0
REMARK                            x       y       z     vdW  Elec       q    Type
REMARK                         _______ _______ _______ _____ _____    ______ ____
ROOT
ATOM      1  C   LIG    1        3.217   1.911  -0.181  0.00  0.00    -0.020 A 
ATOM      2  C   LIG    1        4.164   0.981  -0.286  0.00  0.00    -0.020 A 
ATOM      3  S   LIG    1        3.471  -0.629  -0.340  0.00  0.00    +0.180 S 
ATOM      4  C   LIG    1        1.832  -0.007  -0.215  0.00  0.00    +0.120 A 
ATOM      5  N   LIG    1        0.651  -0.638  -0.187  0.00  0.00    -0.530 NA
ATOM      6  C   LIG    1       -0.473   0.033  -0.088  0.00  0.00    +0.560 A 
ATOM      7  N   LIG    1       -0.500   1.351  -0.011  0.00  0.00    -0.580 NA
ATOM      8  C   LIG    1        0.618   2.062  -0.031  0.00  0.00    +0.490 A 
ATOM      9  C   LIG    1        1.859   1.387  -0.137  0.00  0.00    -0.230 A 
ENDROOT
BRANCH   1  13
ATOM     10  C   LIG    1        4.088   6.070   0.008  0.00  0.00    +0.140 A 
ATOM     11  C   LIG    1        4.623   5.207   0.954  0.00  0.00    -0.010 A 
ATOM     12  C   LIG    1        4.343   3.857   0.895  0.00  0.00    +0.080 A 
ATOM     13  C   LIG    1        3.521   3.361  -0.115  0.00  0.00    -0.080 A 
ATOM     14  C   LIG    1        2.989   4.230  -1.067  0.00  0.00    +0.060 A 
ATOM     15  C   LIG    1        3.268   5.579  -0.999  0.00  0.00    -0.080 A 
BRANCH  10  17
ATOM     16  C   LIG    1        3.782   8.231  -0.936  0.00  0.00    +0.240 C 
ATOM     17  O   LIG    1        4.366   7.399   0.069  0.00  0.00    -0.310 OA
ENDBRANCH  10  17
ENDBRANCH   1  13
BRANCH   8  18
ATOM     18  N   LIG    1        0.574   3.442   0.049  0.00  0.00    -0.700 N 
ATOM     19  H   LIG    1        1.397   3.950   0.120  0.00  0.00    +0.410 HD
BRANCH  18  20
ATOM     20  C   LIG    1       -0.716   4.137   0.028  0.00  0.00    +0.250 C 
ATOM     21  C   LIG    1       -1.156   4.352  -1.422  0.00  0.00    +0.010 C 
ATOM     22  C   LIG    1       -2.521   5.047  -1.439  0.00  0.00    +0.280 C 
ATOM     23  N   LIG    1       -2.433   6.281  -0.645  0.00  0.00    -0.620 N 
ATOM     24  C   LIG    1       -1.936   6.199   0.735  0.00  0.00    +0.290 C 
ATOM     25  C   LIG    1       -2.803   7.465  -1.173  0.00  0.00    +0.510 C 
ATOM     26  O   LIG    1       -3.305   7.506  -2.276  0.00  0.00    -0.540 OA
ATOM     27  C   LIG    1       -2.591   8.736  -0.393  0.00  0.00    +0.100 C 
ATOM     28  C   LIG    1       -0.578   5.491   0.728  0.00  0.00    +0.000 C 
ENDBRANCH  18  20
ENDBRANCH   8  18
TORSDOF 4
