REMARK  Name = ZINCpk000000nFd6.0
REMARK                            x       y       z     vdW  Elec       q    Type
REMARK                         _______ _______ _______ _____ _____    ______ ____
ROOT
ATOM      1  N   LIG    1       -2.542   7.754  -1.249  0.00  0.00    -0.530 NA
ATOM      2  C   LIG    1       -3.771   6.954  -1.339  0.00  0.00    +0.160 C 
ATOM      3  C   LIG    1       -3.824   5.970  -0.165  0.00  0.00    +0.300 C 
ATOM      4  N   LIG    1       -2.575   5.193  -0.151  0.00  0.00    -0.590 N 
ATOM      5  C   LIG    1       -1.300   5.924  -0.192  0.00  0.00    +0.300 C 
ATOM      6  C   LIG    1       -2.599   3.846  -0.096  0.00  0.00    +0.570 C 
ATOM      7  O   LIG    1       -1.558   3.221  -0.067  0.00  0.00    -0.530 OA
ATOM      8  C   LIG    1       -1.346   6.909  -1.371  0.00  0.00    +0.170 C 
ENDROOT
BRANCH   6   9
ATOM      9  C   LIG    1       -3.895   3.129  -0.069  0.00  0.00    +0.110 A 
ATOM     10  C   LIG    1       -3.944   1.781  -0.413  0.00  0.00    +0.040 A 
ATOM     11  C   LIG    1       -5.164   1.121  -0.390  0.00  0.00    +0.110 A 
ATOM     12  C   LIG    1       -6.292   1.828  -0.014  0.00  0.00    +0.020 A 
ATOM     13  C   LIG    1       -6.172   3.175   0.323  0.00  0.00    +0.370 A 
ATOM     14  N   LIG    1       -4.998   3.777   0.287  0.00  0.00    -0.480 NA
BRANCH  13  15
ATOM     15  N   LIG    1       -7.307   3.896   0.704  0.00  0.00    -0.330 N 
ATOM     16  C   LIG    1       -7.341   5.207   1.058  0.00  0.00    +0.250 A 
ATOM     17  C   LIG    1       -8.624   5.518   1.353  0.00  0.00    -0.100 A 
ATOM     18  C   LIG    1       -9.399   4.367   1.176  0.00  0.00    +0.270 A 
ATOM     19  N   LIG    1       -8.614   3.397   0.783  0.00  0.00    -0.280 NA
ENDBRANCH  13  15
ENDBRANCH   6   9
BRANCH   1  20
ATOM     20  C   LIG    1       -2.536   8.824  -2.256  0.00  0.00    +0.190 C 
BRANCH  20  21
ATOM     21  C   LIG    1       -3.481   9.943  -1.816  0.00  0.00    +0.170 C 
BRANCH  21  22
ATOM     22  O   LIG    1       -3.011  10.510  -0.591  0.00  0.00    -0.360 OA
BRANCH  22  24
ATOM     23  C   LIG    1       -3.744  11.601   1.437  0.00  0.00    +0.040 C 
ATOM     24  C   LIG    1       -3.827  11.571  -0.090  0.00  0.00    +0.140 C 
ATOM     25  C   LIG    1       -3.333  12.904  -0.654  0.00  0.00    -0.010 C 
ENDBRANCH  22  24
ENDBRANCH  21  22
ENDBRANCH  20  21
ENDBRANCH   1  20
TORSDOF 6
