REMARK  Name = ZINCqH0000034Ip1.0
REMARK                            x       y       z     vdW  Elec       q    Type
REMARK                         _______ _______ _______ _____ _____    ______ ____
ROOT
ATOM      1  C   LIG    1       -1.199   3.458   2.426  0.00  0.00    +0.200 C 
ATOM      2  N   LIG    1       -0.801   2.944   1.108  0.00  0.00    -0.540 NA
ATOM      3  C   LIG    1       -0.541   1.499   1.164  0.00  0.00    +0.170 C 
ATOM      4  C   LIG    1        0.038   1.037  -0.177  0.00  0.00    +0.280 C 
ATOM      5  N   LIG    1       -0.865   1.469  -1.255  0.00  0.00    -0.630 N 
ATOM      6  C   LIG    1       -1.277   2.880  -1.293  0.00  0.00    +0.310 C 
ATOM      7  C   LIG    1       -1.303   0.595  -2.182  0.00  0.00    +0.710 C 
ATOM      8  N   LIG    1       -0.840  -0.671  -2.188  0.00  0.00    -0.750 N 
ATOM      9  H   LIG    1       -0.247  -0.973  -1.482  0.00  0.00    +0.390 HD
ATOM     10  O   LIG    1       -2.117   0.948  -3.014  0.00  0.00    -0.590 OA
ATOM     11  C   LIG    1       -1.809   3.269   0.090  0.00  0.00    +0.130 C 
ENDROOT
BRANCH   8  12
ATOM     12  C   LIG    1       -1.231  -1.590  -3.260  0.00  0.00    +0.280 C 
BRANCH  12  13
ATOM     13  C   LIG    1       -0.572  -2.951  -3.030  0.00  0.00    -0.020 C 
ATOM     14  C   LIG    1       -1.120  -3.573  -1.744  0.00  0.00    +0.010 C 
ATOM     15  C   LIG    1       -0.461  -4.934  -1.515  0.00  0.00    +0.010 C 
ATOM     16  C   LIG    1       -0.768  -5.855  -2.698  0.00  0.00    +0.010 C 
ATOM     17  C   LIG    1       -0.220  -5.234  -3.984  0.00  0.00    -0.060 C 
ATOM     18  C   LIG    1        1.294  -5.053  -3.858  0.00  0.00    +0.010 C 
ATOM     19  C   LIG    1       -0.527  -6.155  -5.166  0.00  0.00    +0.030 C 
ATOM     20  C   LIG    1       -0.879  -3.872  -4.213  0.00  0.00    +0.040 C 
ENDBRANCH  12  13
ENDBRANCH   8  12
BRANCH  11  21
ATOM     21  C   LIG    1       -2.100   4.771   0.121  0.00  0.00    +0.080 C 
BRANCH  21  22
ATOM     22  C   LIG    1       -3.221   5.086  -0.836  0.00  0.00    -0.090 A 
ATOM     23  C   LIG    1       -2.944   5.332  -2.167  0.00  0.00    +0.010 A 
ATOM     24  C   LIG    1       -3.973   5.616  -3.046  0.00  0.00    +0.010 A 
ATOM     25  C   LIG    1       -5.277   5.664  -2.591  0.00  0.00    +0.000 A 
ATOM     26  C   LIG    1       -5.553   5.422  -1.258  0.00  0.00    +0.000 A 
ATOM     27  C   LIG    1       -4.525   5.133  -0.381  0.00  0.00    +0.000 A 
ENDBRANCH  21  22
ENDBRANCH  11  21
TORSDOF 4
