REMARK  Name = ZINCrD00000F5LyT.0
REMARK                            x       y       z     vdW  Elec       q    Type
REMARK                         _______ _______ _______ _____ _____    ______ ____
ROOT
ATOM      1  C   LIG    1        2.063   0.726  -0.014  0.00  0.00    +0.300 A 
ATOM      2  N   LIG    1        1.354  -0.384  -0.013  0.00  0.00    -0.280 NA
ATOM      3  N   LIG    1        0.002  -0.004   0.002  0.00  0.00    -0.340 N 
ATOM      4  C   LIG    1       -0.016   1.349   0.009  0.00  0.00    +0.360 A 
ATOM      5  N   LIG    1        1.229   1.774  -0.000  0.00  0.00    -0.510 NA
ENDROOT
BRANCH   3   6
ATOM      6  C   LIG    1       -1.159  -0.897   0.008  0.00  0.00    +0.280 C 
ATOM      7  C   LIG    1       -1.113  -1.786   1.252  0.00  0.00    +0.030 C 
ATOM      8  C   LIG    1       -2.486  -2.423   1.475  0.00  0.00    +0.020 C 
ATOM      9  C   LIG    1       -3.576  -1.368   1.277  0.00  0.00    -0.000 C 
ATOM     10  C   LIG    1       -4.399  -1.713   0.034  0.00  0.00    +0.000 C 
ATOM     11  C   LIG    1       -3.599  -1.355  -1.221  0.00  0.00    -0.000 C 
ATOM     12  C   LIG    1       -2.513  -2.407  -1.451  0.00  0.00    +0.020 C 
ATOM     13  C   LIG    1       -1.136  -1.773  -1.246  0.00  0.00    +0.030 C 
ENDBRANCH   3   6
BRANCH   1  18
ATOM     14  C   LIG    1        6.888  -0.661  -0.063  0.00  0.00    +0.180 C 
ATOM     15  C   LIG    1        5.651   0.201  -0.049  0.00  0.00    +0.010 A 
ATOM     16  C   LIG    1        5.633   1.548  -0.042  0.00  0.00    -0.060 A 
ATOM     17  C   LIG    1        4.280   1.942  -0.028  0.00  0.00    +0.020 A 
ATOM     18  C   LIG    1        3.540   0.802  -0.027  0.00  0.00    +0.050 A 
ATOM     19  O   LIG    1        4.385  -0.247  -0.034  0.00  0.00    -0.160 OA
ENDBRANCH   1  18
BRANCH   4  20
ATOM     20  C   LIG    1       -1.225   2.202   0.020  0.00  0.00    +0.030 A 
ATOM     21  C   LIG    1       -1.267   3.569   0.028  0.00  0.00    +0.240 A 
ATOM     22  N   LIG    1       -2.576   3.902   0.036  0.00  0.00    -0.280 N 
ATOM     23  N   LIG    1       -3.274   2.822   0.034  0.00  0.00    -0.060 NA
ATOM     24  N   LIG    1       -2.507   1.789   0.018  0.00  0.00    -0.250 NA
BRANCH  22  25
ATOM     25  C   LIG    1       -3.111   5.266   0.046  0.00  0.00    +0.350 C 
BRANCH  25  26
ATOM     26  C   LIG    1       -4.073   5.445  -1.129  0.00  0.00    +0.200 C 
BRANCH  26  27
ATOM     27  O   LIG    1       -4.595   6.776  -1.119  0.00  0.00    -0.570 OA
ATOM     28  H   LIG    1       -5.214   6.961  -1.839  0.00  0.00    +0.400 HD
ENDBRANCH  26  27
ENDBRANCH  25  26
ENDBRANCH  22  25
ENDBRANCH   4  20
TORSDOF 6
