REMARK  Name = ZINCrD000006VqRg.0
REMARK                            x       y       z     vdW  Elec       q    Type
REMARK                         _______ _______ _______ _____ _____    ______ ____
ROOT
ATOM      1  O   LIG    1        0.703   3.434  -1.104  0.00  0.00    -0.490 OA
ATOM      2  C   LIG    1       -0.241   2.937  -1.679  0.00  0.00    +0.520 C 
ATOM      3  N   LIG    1       -0.793   3.564  -2.736  0.00  0.00    -0.620 N 
ATOM      4  H   LIG    1       -1.549   3.167  -3.196  0.00  0.00    +0.430 HD
ENDROOT
BRANCH   2   5
ATOM      5  C   LIG    1       -0.798   1.617  -1.212  0.00  0.00    +0.030 C 
ATOM      6  C   LIG    1       -2.216   1.792  -0.622  0.00  0.00    +0.100 C 
ATOM      7  C   LIG    1       -1.981   1.975   0.862  0.00  0.00    +0.520 C 
ATOM      8  N   LIG    1       -0.737   1.577   1.186  0.00  0.00    -0.550 N 
ATOM      9  O   LIG    1       -2.795   2.417   1.645  0.00  0.00    -0.500 OA
ATOM     10  C   LIG    1       -0.013   1.086   0.008  0.00  0.00    +0.320 C 
BRANCH   8  11
ATOM     11  C   LIG    1       -0.201   1.626   2.478  0.00  0.00    +0.180 A 
ATOM     12  C   LIG    1       -0.967   2.109   3.531  0.00  0.00    +0.010 A 
ATOM     13  C   LIG    1       -0.437   2.156   4.805  0.00  0.00    +0.060 A 
ATOM     14  C   LIG    1        0.855   1.722   5.034  0.00  0.00    +0.010 A 
ATOM     15  C   LIG    1        1.622   1.240   3.988  0.00  0.00    -0.010 A 
ATOM     16 CL   LIG    1        3.245   0.696   4.280  0.00  0.00    -0.060 Cl
ATOM     17  C   LIG    1        1.095   1.186   2.711  0.00  0.00    -0.010 A 
ENDBRANCH   8  11
ENDBRANCH   2   5
BRANCH   3  18
ATOM     18  C   LIG    1       -0.280   4.782  -3.167  0.00  0.00    +0.230 A 
ATOM     19  N   LIG    1       -0.731   5.464  -4.173  0.00  0.00    -0.500 NA
ATOM     20  C   LIG    1       -0.125   6.606  -4.441  0.00  0.00    +0.090 A 
ATOM     21  C   LIG    1        0.894   6.897  -3.629  0.00  0.00    -0.110 A 
ATOM     22  S   LIG    1        1.044   5.595  -2.453  0.00  0.00    +0.250 S 
BRANCH  20  23
ATOM     23  C   LIG    1       -0.544   7.504  -5.576  0.00  0.00    +0.260 C 
BRANCH  23  24
ATOM     24  N   LIG    1        0.096   7.054  -6.819  0.00  0.00    -0.510 NA
ATOM     25  C   LIG    1       -0.153   5.608  -7.053  0.00  0.00    +0.160 C 
ATOM     26  C   LIG    1        0.104   5.445  -8.572  0.00  0.00    +0.010 C 
ATOM     27  C   LIG    1       -0.468   6.755  -9.162  0.00  0.00    +0.010 C 
ATOM     28  C   LIG    1       -0.472   7.755  -7.991  0.00  0.00    +0.160 C 
ENDBRANCH  23  24
ENDBRANCH  20  23
ENDBRANCH   3  18
TORSDOF 5
