REMARK  Name = ZINCrD000000AkZc.0
REMARK                            x       y       z     vdW  Elec       q    Type
REMARK                         _______ _______ _______ _____ _____    ______ ____
ROOT
ATOM      1  O   LIG    1       -3.022   4.155  -0.033  0.00  0.00    -0.490 OA
ATOM      2  C   LIG    1       -2.240   5.070  -0.181  0.00  0.00    +0.500 C 
ATOM      3  N   LIG    1       -0.916   4.825  -0.227  0.00  0.00    -0.620 N 
ATOM      4  H   LIG    1       -0.290   5.557  -0.345  0.00  0.00    +0.430 HD
ENDROOT
BRANCH   3   5
ATOM      5  C   LIG    1       -0.445   3.523  -0.103  0.00  0.00    +0.270 A 
ATOM      6  N   LIG    1        0.802   3.171  -0.132  0.00  0.00    -0.480 NA
ATOM      7  C   LIG    1        1.066   1.879   0.002  0.00  0.00    +0.120 A 
ATOM      8  C   LIG    1       -0.008   1.084   0.153  0.00  0.00    -0.100 A 
ATOM      9  S   LIG    1       -1.451   2.094   0.110  0.00  0.00    +0.210 S 
BRANCH   7  10
ATOM     10  C   LIG    1        2.451   1.347  -0.013  0.00  0.00    -0.010 A 
ATOM     11  C   LIG    1        2.765   0.238  -0.796  0.00  0.00    +0.040 A 
ATOM     12  C   LIG    1        4.056  -0.253  -0.806  0.00  0.00    +0.010 A 
ATOM     13  C   LIG    1        5.035   0.353  -0.041  0.00  0.00    +0.030 A 
ATOM     14  C   LIG    1        4.730   1.454   0.739  0.00  0.00    +0.030 A 
ATOM     15  C   LIG    1        3.444   1.959   0.752  0.00  0.00    -0.010 A 
ATOM     16 CL   LIG    1        3.063   3.345   1.725  0.00  0.00    -0.050 Cl
ENDBRANCH   7  10
ENDBRANCH   3   5
BRANCH   2  17
ATOM     17  C   LIG    1       -2.750   6.482  -0.316  0.00  0.00    +0.360 C 
BRANCH  17  18
ATOM     18  N   LIG    1       -4.213   6.483  -0.234  0.00  0.00    -0.580 N 
ATOM     19  C   LIG    1       -5.019   6.359  -1.321  0.00  0.00    +0.550 C 
ATOM     20  C   LIG    1       -6.397   6.094  -0.790  0.00  0.00    +0.000 C 
ATOM     21  C   LIG    1       -7.575   6.676  -1.542  0.00  0.00    +0.110 C 
ATOM     22  C   LIG    1       -8.777   6.571  -0.626  0.00  0.00    -0.030 C 
ATOM     23  C   LIG    1       -8.705   6.393   0.658  0.00  0.00    -0.030 C 
ATOM     24  C   LIG    1       -7.410   6.290   1.437  0.00  0.00    +0.110 C 
ATOM     25  C   LIG    1       -6.322   6.872   0.559  0.00  0.00    +0.000 C 
ATOM     26  O   LIG    1       -4.690   6.444  -2.485  0.00  0.00    -0.460 OA
ATOM     27  C   LIG    1       -4.894   6.612   0.934  0.00  0.00    +0.550 C 
ATOM     28  O   LIG    1       -4.438   6.534   2.054  0.00  0.00    -0.460 OA
ENDBRANCH  17  18
ENDBRANCH   2  17
TORSDOF 4
