REMARK  Name = ZINCvU00000004iL.0
REMARK                            x       y       z     vdW  Elec       q    Type
REMARK                         _______ _______ _______ _____ _____    ______ ____
ROOT
ATOM      1  C   LIG    1        1.278  -0.374   0.005  0.00  0.00    +0.220 A 
ATOM      2  C   LIG    1        0.135   0.404   0.109  0.00  0.00    +0.010 A 
ATOM      3  C   LIG    1        0.241   1.780   0.193  0.00  0.00    +0.070 A 
ATOM      4  C   LIG    1        1.485   2.385   0.175  0.00  0.00    -0.020 A 
ATOM      5  C   LIG    1        2.630   1.617   0.072  0.00  0.00    +0.090 A 
ATOM      6  C   LIG    1        2.533   0.236  -0.013  0.00  0.00    -0.180 A 
ENDROOT
BRANCH   1   8
ATOM      7  C   LIG    1        0.044  -2.330  -0.555  0.00  0.00    +0.570 C 
ATOM      8  N   LIG    1        1.173  -1.768  -0.081  0.00  0.00    -0.670 N 
ATOM      9  H   LIG    1        1.913  -2.328   0.201  0.00  0.00    +0.410 HD
ATOM     10  O   LIG    1       -0.841  -1.629  -1.007  0.00  0.00    -0.510 OA
BRANCH   7  14
ATOM     11  C   LIG    1       -0.421  -6.550  -0.474  0.00  0.00    +0.160 A 
ATOM     12  C   LIG    1       -1.435  -5.751  -0.990  0.00  0.00    -0.020 A 
ATOM     13  C   LIG    1       -1.288  -4.382  -1.018  0.00  0.00    +0.140 A 
ATOM     14  C   LIG    1       -0.118  -3.797  -0.527  0.00  0.00    -0.180 A 
ATOM     15  C   LIG    1        0.901  -4.604  -0.013  0.00  0.00    +0.090 A 
ATOM     16  C   LIG    1        0.744  -5.972   0.016  0.00  0.00    -0.080 A 
BRANCH  11  18
ATOM     17  C   LIG    1        0.510  -8.660   0.097  0.00  0.00    +0.250 C 
ATOM     18  O   LIG    1       -0.570  -7.899  -0.448  0.00  0.00    -0.310 OA
ENDBRANCH  11  18
ENDBRANCH   7  14
ENDBRANCH   1   8
BRANCH   6  19
ATOM     19  S   LIG    1        3.991  -0.745  -0.144  0.00  0.00    +0.080 S 
BRANCH  19  20
ATOM     20  C   LIG    1        3.982  -1.078  -1.874  0.00  0.00    +0.190 A 
ATOM     21  C   LIG    1        5.059  -1.775  -2.482  0.00  0.00    -0.160 A 
ATOM     22  C   LIG    1        4.988  -2.006  -3.854  0.00  0.00    +0.100 A 
ATOM     23  S   LIG    1        6.419  -2.877  -4.379  0.00  0.00    +0.170 S 
ATOM     24  C   LIG    1        7.085  -2.915  -2.755  0.00  0.00    -0.160 A 
ATOM     25  C   LIG    1        8.412  -3.555  -2.389  0.00  0.00    +0.120 C 
ATOM     26  C   LIG    1        8.848  -3.039  -1.016  0.00  0.00    +0.030 C 
ATOM     27  C   LIG    1        7.681  -3.189  -0.035  0.00  0.00    +0.030 C 
ATOM     28  C   LIG    1        6.590  -2.181  -0.398  0.00  0.00    +0.110 C 
ATOM     29  N   LIG    1        3.921  -1.567  -4.536  0.00  0.00    -0.490 NA
ATOM     30  C   LIG    1        2.948  -0.927  -3.929  0.00  0.00    +0.520 A 
ATOM     31  C   LIG    1        6.276  -2.309  -1.883  0.00  0.00    -0.070 A 
ATOM     32  N   LIG    1        2.965  -0.687  -2.631  0.00  0.00    -0.510 NA
ENDBRANCH  19  20
ENDBRANCH   6  19
TORSDOF 5
