REMARK  Name = ZINCrD000000fIpE.0
REMARK                            x       y       z     vdW  Elec       q    Type
REMARK                         _______ _______ _______ _____ _____    ______ ____
ROOT
ATOM      1  C   LIG    1        1.488   4.570  -0.036  0.00  0.00    +0.160 A 
ATOM      2  C   LIG    1        2.814   4.349  -0.386  0.00  0.00    +0.020 A 
ATOM      3  C   LIG    1        3.270   3.058  -0.610  0.00  0.00    +0.160 A 
ATOM      4  C   LIG    1        2.403   1.983  -0.486  0.00  0.00    +0.070 A 
ATOM      5  C   LIG    1        1.071   2.201  -0.134  0.00  0.00    -0.090 A 
ATOM      6  C   LIG    1        0.614   3.500   0.086  0.00  0.00    +0.010 A 
ENDROOT
BRANCH   1   9
ATOM      7  C   LIG    1        1.313   8.146   1.126  0.00  0.00    +0.110 C 
ATOM      8  C   LIG    1        1.840   6.778   0.777  0.00  0.00    +0.510 C 
ATOM      9  N   LIG    1        1.032   5.874   0.189  0.00  0.00    -0.670 N 
ATOM     10  H   LIG    1        0.135   6.127  -0.078  0.00  0.00    +0.410 HD
ATOM     11  O   LIG    1        2.992   6.491   1.026  0.00  0.00    -0.520 OA
ENDBRANCH   1   9
BRANCH   3  12
ATOM     12  N   LIG    1        4.607   2.840  -0.963  0.00  0.00    -0.670 N 
ATOM     13  H   LIG    1        5.080   3.497  -1.497  0.00  0.00    +0.410 HD
ATOM     14  C   LIG    1        5.236   1.718  -0.560  0.00  0.00    +0.510 C 
ATOM     15  O   LIG    1        4.671   0.937   0.177  0.00  0.00    -0.520 OA
ATOM     16  C   LIG    1        6.640   1.433  -1.026  0.00  0.00    +0.110 C 
ENDBRANCH   3  12
BRANCH   5  17
ATOM     17  C   LIG    1        0.143   1.057  -0.001  0.00  0.00    +0.570 C 
ATOM     18  N   LIG    1       -0.746   1.025   1.012  0.00  0.00    -0.600 N 
ATOM     19  C   LIG    1       -0.863   2.168   1.921  0.00  0.00    +0.290 C 
ATOM     20  O   LIG    1        0.178   0.148  -0.807  0.00  0.00    -0.530 OA
BRANCH  18  21
ATOM     21  C   LIG    1       -1.596  -0.153   1.204  0.00  0.00    +0.300 C 
ATOM     22  C   LIG    1       -3.086   0.243   1.134  0.00  0.00    +0.030 C 
ATOM     23  C   LIG    1       -3.731  -0.712   2.160  0.00  0.00    +0.090 C 
ATOM     24  C   LIG    1       -2.629  -1.041   3.143  0.00  0.00    -0.090 A 
ATOM     25  C   LIG    1       -2.694  -1.579   4.418  0.00  0.00    +0.010 A 
ATOM     26  C   LIG    1       -1.532  -1.800   5.139  0.00  0.00    +0.020 A 
ATOM     27  C   LIG    1       -0.306  -1.478   4.588  0.00  0.00    +0.000 A 
ATOM     28  C   LIG    1       -0.240  -0.940   3.318  0.00  0.00    +0.030 A 
ATOM     29  C   LIG    1       -1.400  -0.722   2.593  0.00  0.00    -0.110 A 
ENDBRANCH  18  21
ENDBRANCH   5  17
TORSDOF 4
