REMARK  Name = ZINCpe00000zrh47.0
REMARK                            x       y       z     vdW  Elec       q    Type
REMARK                         _______ _______ _______ _____ _____    ______ ____
ROOT
ATOM      1  C   LIG    1        4.822  -4.402   0.502  0.00  0.00    +0.220 C 
ATOM      2  C   LIG    1        4.940  -4.180  -1.008  0.00  0.00    +0.030 C 
ATOM      3  C   LIG    1        4.865  -2.980  -0.062  0.00  0.00    +0.220 C 
ENDROOT
BRANCH   1   6
ATOM      4  O   LIG    1        4.805  -6.338   2.379  0.00  0.00    -0.530 OA
ATOM      5  C   LIG    1        5.896  -5.860   2.132  0.00  0.00    +0.610 C 
ATOM      6  N   LIG    1        6.011  -4.885   1.209  0.00  0.00    -0.680 N 
ATOM      7  H   LIG    1        6.881  -4.503   1.012  0.00  0.00    +0.410 HD
BRANCH   5   8
ATOM      8  C   LIG    1        7.091  -6.346   2.843  0.00  0.00    +0.000 A 
ATOM      9  C   LIG    1        7.048  -7.320   3.780  0.00  0.00    -0.030 A 
ATOM     10  S   LIG    1        8.632  -7.594   4.362  0.00  0.00    +0.260 S 
ATOM     11  C   LIG    1        9.259  -6.394   3.322  0.00  0.00    +0.020 A 
ATOM     12  N   LIG    1        8.318  -5.870   2.618  0.00  0.00    -0.430 NA
BRANCH  11  13
ATOM     13  C   LIG    1       10.713  -6.007   3.235  0.00  0.00    +0.300 C 
BRANCH  13  14
ATOM     14  O   LIG    1       10.982  -4.956   4.165  0.00  0.00    -0.560 OA
ATOM     15  H   LIG    1       11.901  -4.656   4.164  0.00  0.00    +0.390 HD
ENDBRANCH  13  14
ENDBRANCH  11  13
ENDBRANCH   5   8
ENDBRANCH   1   6
BRANCH   3  16
ATOM     16  N   LIG    1        3.620  -2.208  -0.045  0.00  0.00    -0.690 N 
ATOM     17  H   LIG    1        2.765  -2.666  -0.040  0.00  0.00    +0.400 HD
ATOM     18  C   LIG    1        3.663  -0.861  -0.038  0.00  0.00    +0.560 C 
ATOM     19  O   LIG    1        4.734  -0.287  -0.045  0.00  0.00    -0.510 OA
BRANCH  18  20
ATOM     20  C   LIG    1        2.402  -0.079  -0.021  0.00  0.00    +0.000 A 
ATOM     21  C   LIG    1        2.425   1.322  -0.014  0.00  0.00    -0.100 A 
ATOM     22  C   LIG    1        3.420   2.316  -0.018  0.00  0.00    -0.080 A 
ATOM     23  C   LIG    1        2.771   3.514  -0.006  0.00  0.00    +0.250 A 
ATOM     24  N   LIG    1        1.450   3.338   0.006  0.00  0.00    -0.530 NA
ATOM     25  C   LIG    1        1.147   2.051   0.002  0.00  0.00    +0.250 A 
ATOM     26  N   LIG    1       -0.016   1.336   0.009  0.00  0.00    -0.480 N 
ATOM     27  H   LIG    1       -0.866   1.804   0.016  0.00  0.00    +0.430 HD
ATOM     28  C   LIG    1        0.002  -0.004   0.002  0.00  0.00    +0.310 A 
ATOM     29  C   LIG    1        1.159  -0.722  -0.013  0.00  0.00    -0.050 A 
ENDBRANCH  18  20
ENDBRANCH   3  16
TORSDOF 6
