REMARK  Name = ZINCpe00000zrh47.1
REMARK                            x       y       z     vdW  Elec       q    Type
REMARK                         _______ _______ _______ _____ _____    ______ ____
ROOT
ATOM      1  C   LIG    1       -3.683   1.813   0.601  0.00  0.00    +0.210 C 
ATOM      2  C   LIG    1       -3.562   1.606  -0.911  0.00  0.00    +0.030 C 
ATOM      3  C   LIG    1       -2.449   1.120   0.020  0.00  0.00    +0.220 C 
ENDROOT
BRANCH   1   6
ATOM      4  O   LIG    1       -5.368   2.721   2.502  0.00  0.00    -0.530 OA
ATOM      5  C   LIG    1       -5.449   1.532   2.257  0.00  0.00    +0.600 C 
ATOM      6  N   LIG    1       -4.649   0.980   1.323  0.00  0.00    -0.680 N 
ATOM      7  H   LIG    1       -4.714   0.032   1.127  0.00  0.00    +0.410 HD
BRANCH   5   8
ATOM      8  C   LIG    1       -6.420   0.696   2.982  0.00  0.00    +0.000 A 
ATOM      9  C   LIG    1       -7.251   1.182   3.931  0.00  0.00    -0.030 A 
ATOM     10  S   LIG    1       -8.216  -0.097   4.528  0.00  0.00    +0.260 S 
ATOM     11  C   LIG    1       -7.454  -1.207   3.477  0.00  0.00    +0.010 A 
ATOM     12  N   LIG    1       -6.565  -0.614   2.760  0.00  0.00    -0.430 NA
BRANCH  11  13
ATOM     13  C   LIG    1       -7.781  -2.676   3.396  0.00  0.00    +0.310 C 
BRANCH  13  14
ATOM     14  O   LIG    1       -6.958  -3.398   4.315  0.00  0.00    -0.560 OA
ATOM     15  H   LIG    1       -7.115  -4.352   4.317  0.00  0.00    +0.390 HD
ENDBRANCH  13  14
ENDBRANCH  11  13
ENDBRANCH   5   8
ENDBRANCH   1   6
BRANCH   3  16
ATOM     16  N   LIG    1       -1.191   1.869   0.018  0.00  0.00    -0.700 N 
ATOM     17  H   LIG    1       -1.204   2.839   0.023  0.00  0.00    +0.400 HD
ATOM     18  C   LIG    1       -0.014   1.211   0.009  0.00  0.00    +0.570 C 
ATOM     19  O   LIG    1        0.002  -0.004   0.002  0.00  0.00    -0.520 OA
BRANCH  18  20
ATOM     20  C   LIG    1        1.255   1.968   0.001  0.00  0.00    -0.050 A 
ATOM     21  C   LIG    1        2.497   1.305  -0.015  0.00  0.00    -0.100 A 
ATOM     22  C   LIG    1        2.907  -0.096  -0.027  0.00  0.00    -0.020 A 
ATOM     23  C   LIG    1        4.252  -0.109  -0.040  0.00  0.00    +0.250 A 
ATOM     24  N   LIG    1        4.731   1.171  -0.038  0.00  0.00    -0.580 N 
ATOM     25  H   LIG    1        5.670   1.414  -0.045  0.00  0.00    +0.420 HD
ATOM     26  C   LIG    1        3.685   2.064  -0.022  0.00  0.00    +0.280 A 
ATOM     27  N   LIG    1        3.623   3.387  -0.015  0.00  0.00    -0.480 NA
ATOM     28  C   LIG    1        2.476   4.032  -0.000  0.00  0.00    +0.300 A 
ATOM     29  C   LIG    1        1.264   3.364   0.002  0.00  0.00    -0.030 A 
ENDBRANCH  18  20
ENDBRANCH   3  16
TORSDOF 6
