REMARK  Name = ZINCtV00000L6kBs.0
REMARK                            x       y       z     vdW  Elec       q    Type
REMARK                         _______ _______ _______ _____ _____    ______ ____
ROOT
ATOM      1  C   LIG    1        1.956   8.452  -1.138  0.00  0.00    +0.000 C 
ATOM      2  C   LIG    1        0.870   9.436  -0.697  0.00  0.00    +0.030 C 
ATOM      3  C   LIG    1       -0.373   9.257  -1.576  0.00  0.00    +0.140 C 
ATOM      4  C   LIG    1       -0.728   7.788  -1.612  0.00  0.00    +0.040 A 
ATOM      5  C   LIG    1        0.120   6.810  -1.251  0.00  0.00    -0.170 A 
ATOM      6  C   LIG    1       -0.594   5.547  -1.426  0.00  0.00    -0.090 A 
ATOM      7  C   LIG    1       -0.276   4.205  -1.225  0.00  0.00    +0.050 A 
ATOM      8  C   LIG    1       -1.215   3.229  -1.506  0.00  0.00    +0.140 A 
ATOM      9  C   LIG    1       -2.476   3.588  -1.977  0.00  0.00    -0.080 A 
ATOM     10  C   LIG    1       -2.801   4.913  -2.173  0.00  0.00    +0.060 A 
ATOM     11  C   LIG    1       -3.495   2.518  -2.275  0.00  0.00    +0.110 C 
ATOM     12  C   LIG    1       -1.869   5.906  -1.901  0.00  0.00    +0.050 A 
ATOM     13  O   LIG    1       -1.899   7.253  -1.994  0.00  0.00    -0.190 OA
ATOM     14  C   LIG    1        1.529   7.026  -0.767  0.00  0.00    +0.110 C 
ENDROOT
BRANCH   1  15
ATOM     15  C   LIG    1        3.271   8.791  -0.433  0.00  0.00    -0.060 C 
ATOM     16  C   LIG    1        4.355   7.804  -0.872  0.00  0.00    +0.020 C 
ATOM     17  C   LIG    1        3.077   8.695   1.081  0.00  0.00    +0.030 C 
BRANCH  15  19
ATOM     18  C   LIG    1        5.012  10.552  -0.100  0.00  0.00    +0.010 C 
ATOM     19  C   LIG    1        3.697  10.213  -0.804  0.00  0.00    +0.000 C 
ENDBRANCH  15  19
ENDBRANCH   1  15
BRANCH   8  20
ATOM     20  N   LIG    1       -0.900   1.880  -1.312  0.00  0.00    -1.050 N 
ATOM     21  H   LIG    1       -1.249   1.208  -1.919  0.00  0.00    +0.430 HD
BRANCH  20  22
ATOM     22  S   LIG    1        0.069   1.429  -0.047  0.00  0.00    +2.690 S 
ATOM     23  O   LIG    1        1.248   2.216  -0.144  0.00  0.00    -0.950 OA
ATOM     24  O   LIG    1        0.082   0.008  -0.038  0.00  0.00    -0.950 OA
BRANCH  22  25
ATOM     25  C   LIG    1       -0.743   1.929   1.435  0.00  0.00    -0.680 A 
ATOM     26  C   LIG    1       -0.498   3.181   1.968  0.00  0.00    +0.130 A 
ATOM     27  C   LIG    1       -1.138   3.574   3.129  0.00  0.00    -0.010 A 
ATOM     28  C   LIG    1       -2.016   2.713   3.760  0.00  0.00    +0.070 A 
ATOM     29  C   LIG    1       -2.256   1.460   3.230  0.00  0.00    -0.010 A 
ATOM     30  C   LIG    1       -1.619   1.067   2.067  0.00  0.00    +0.120 A 
ENDBRANCH  22  25
ENDBRANCH  20  22
ENDBRANCH   8  20
TORSDOF 5
