REMARK  Name = ZINCpe00000VVH2f.0
REMARK                            x       y       z     vdW  Elec       q    Type
REMARK                         _______ _______ _______ _____ _____    ______ ____
ROOT
ATOM      1  C   LIG    1       -2.516  -2.544  -3.091  0.00  0.00    +0.140 C 
ATOM      2  C   LIG    1       -1.968  -2.307  -1.707  0.00  0.00    +0.250 C 
ATOM      3  C   LIG    1       -1.631  -1.036  -1.337  0.00  0.00    -0.370 C 
ATOM      4  C   LIG    1       -1.084  -0.846   0.067  0.00  0.00    +0.380 C 
ATOM      5  N   LIG    1       -0.974  -2.058   0.886  0.00  0.00    -0.440 N 
ATOM      6  N   LIG    1       -0.536  -2.319   2.187  0.00  0.00    -0.470 N 
ATOM      7  H   LIG    1       -0.199  -1.673   2.826  0.00  0.00    +0.450 HD
ATOM      8  C   LIG    1       -0.676  -3.651   2.378  0.00  0.00    +0.400 A 
ATOM      9  N   LIG    1       -1.162  -4.198   1.294  0.00  0.00    -0.510 NA
ATOM     10  C   LIG    1       -1.363  -3.261   0.348  0.00  0.00    +0.590 A 
ATOM     11  N   LIG    1       -1.829  -3.338  -0.886  0.00  0.00    -0.580 NA
ENDROOT
BRANCH   4  12
ATOM     12  C   LIG    1        0.286  -0.227  -0.042  0.00  0.00    -0.090 A 
ATOM     13  C   LIG    1        0.449   1.129   0.181  0.00  0.00    +0.040 A 
ATOM     14  C   LIG    1        1.700   1.702   0.082  0.00  0.00    +0.070 A 
ATOM     15  C   LIG    1        2.803   0.910  -0.243  0.00  0.00    -0.020 A 
ATOM     16  C   LIG    1        2.631  -0.458  -0.467  0.00  0.00    +0.070 A 
ATOM     17  C   LIG    1        1.374  -1.017  -0.365  0.00  0.00    +0.030 A 
BRANCH  15  18
ATOM     18  C   LIG    1        4.104   1.498  -0.347  0.00  0.00    +0.250 C 
ATOM     19  N   LIG    1        5.137   1.964  -0.429  0.00  0.00    -0.400 NA
ENDBRANCH  15  18
ENDBRANCH   4  12
BRANCH   3  20
ATOM     20  C   LIG    1       -1.784   0.050  -2.219  0.00  0.00    +0.610 C 
ATOM     21  O   LIG    1       -2.739   0.798  -2.104  0.00  0.00    -0.540 OA
ATOM     22  N   LIG    1       -0.874   0.262  -3.190  0.00  0.00    -0.850 N 
ATOM     23  H   LIG    1       -0.938   1.051  -3.751  0.00  0.00    +0.400 HD
ATOM     24  H   LIG    1       -0.154  -0.373  -3.328  0.00  0.00    +0.400 HD
ENDBRANCH   3  20
BRANCH   8  25
ATOM     25  C   LIG    1       -0.326  -4.390   3.644  0.00  0.00    +0.170 C 
BRANCH  25  26
ATOM     26  C   LIG    1       -0.627  -5.880   3.465  0.00  0.00    +0.070 C 
BRANCH  26  27
ATOM     27  C   LIG    1       -0.272  -6.630   4.750  0.00  0.00    +0.180 C 
BRANCH  27  28
ATOM     28  O   LIG    1       -0.552  -8.021   4.583  0.00  0.00    -0.570 OA
ATOM     29  H   LIG    1       -0.351  -8.559   5.361  0.00  0.00    +0.380 HD
ENDBRANCH  27  28
ENDBRANCH  26  27
ENDBRANCH  25  26
ENDBRANCH   8  25
TORSDOF 7
