REMARK  Name = ZINCrD00000l5HoY.0
REMARK                            x       y       z     vdW  Elec       q    Type
REMARK                         _______ _______ _______ _____ _____    ______ ____
ROOT
ATOM      1  C   LIG    1       -5.162   3.443  -1.795  0.00  0.00    +0.310 A 
ATOM      2  C   LIG    1       -6.402   3.149  -2.355  0.00  0.00    -0.040 A 
ATOM      3  C   LIG    1       -7.426   4.075  -2.258  0.00  0.00    +0.090 A 
ATOM      4  C   LIG    1       -7.179   5.271  -1.603  0.00  0.00    -0.040 A 
ATOM      5  C   LIG    1       -5.917   5.503  -1.064  0.00  0.00    +0.190 A 
ATOM      6  N   LIG    1       -4.958   4.591  -1.170  0.00  0.00    -0.490 NA
ENDROOT
BRANCH   1  16
ATOM      7  O   LIG    1       -2.803   2.414   1.642  0.00  0.00    -0.520 OA
ATOM      8  C   LIG    1       -1.983   1.980   0.861  0.00  0.00    +0.530 C 
ATOM      9  N   LIG    1       -0.737   1.578   1.188  0.00  0.00    -0.730 N 
ATOM     10  H   LIG    1       -0.367   1.608   2.084  0.00  0.00    +0.410 HD
ATOM     11  C   LIG    1       -0.013   1.086   0.008  0.00  0.00    +0.250 C 
ATOM     12  C   LIG    1       -0.799   1.617  -1.214  0.00  0.00    +0.070 C 
ATOM     13  C   LIG    1       -2.200   1.811  -0.616  0.00  0.00    -0.110 C 
ATOM     14  C   LIG    1       -3.096   0.601  -0.918  0.00  0.00    +0.070 C 
ATOM     15  C   LIG    1       -4.477   1.257  -1.182  0.00  0.00    +0.200 C 
ATOM     16  N   LIG    1       -4.129   2.518  -1.889  0.00  0.00    -0.460 N 
ATOM     17  C   LIG    1       -2.901   3.024  -1.231  0.00  0.00    +0.250 C 
ENDBRANCH   1  16
BRANCH   5  18
ATOM     18  C   LIG    1       -5.642   6.779  -0.360  0.00  0.00    -0.060 A 
ATOM     19  C   LIG    1       -6.641   7.743  -0.243  0.00  0.00    +0.080 A 
ATOM     20  C   LIG    1       -6.381   8.926   0.418  0.00  0.00    +0.000 A 
ATOM     21  C   LIG    1       -5.128   9.165   0.955  0.00  0.00    +0.070 A 
ATOM     22  C   LIG    1       -4.128   8.218   0.840  0.00  0.00    -0.060 A 
ATOM     23  C   LIG    1       -4.376   7.022   0.184  0.00  0.00    +0.140 A 
BRANCH  23  24
ATOM     24  O   LIG    1       -3.395   6.091   0.071  0.00  0.00    -0.270 OA
BRANCH  24  25
ATOM     25  C   LIG    1       -2.128   6.409   0.651  0.00  0.00    +0.590 C 
ATOM     26  F   LIG    1       -1.619   7.566   0.053  0.00  0.00    -0.170 F 
ATOM     27  F   LIG    1       -1.241   5.348   0.444  0.00  0.00    -0.130 F 
ATOM     28  F   LIG    1       -2.286   6.624   2.025  0.00  0.00    -0.170 F 
ENDBRANCH  24  25
ENDBRANCH  23  24
ENDBRANCH   5  18
TORSDOF 4
