REMARK  Name = ZINCpk000000mQu5.0
REMARK                            x       y       z     vdW  Elec       q    Type
REMARK                         _______ _______ _______ _____ _____    ______ ____
ROOT
ATOM      1  C   LIG    1        1.125  -1.775  -0.807  0.00  0.00    +0.310 C 
ENDROOT
BRANCH   1   4
ATOM      2  C   LIG    1        0.633  -2.717  -3.436  0.00  0.00    +0.090 C 
ATOM      3  C   LIG    1        1.963  -2.952  -2.768  0.00  0.00    +0.520 C 
ATOM      4  N   LIG    1        2.198  -2.451  -1.539  0.00  0.00    -0.600 N 
ATOM      5  O   LIG    1        2.822  -3.592  -3.336  0.00  0.00    -0.530 OA
BRANCH   4   6
ATOM      6  C   LIG    1        3.526  -2.583  -0.936  0.00  0.00    +0.300 C 
BRANCH   6   7
ATOM      7  C   LIG    1        3.598  -3.886  -0.138  0.00  0.00    +0.060 C 
BRANCH   7   8
ATOM      8  C   LIG    1        4.964  -4.022   0.482  0.00  0.00    -0.080 A 
ATOM      9  C   LIG    1        5.975  -4.665  -0.207  0.00  0.00    +0.010 A 
ATOM     10  C   LIG    1        7.231  -4.784   0.360  0.00  0.00    +0.000 A 
ATOM     11  C   LIG    1        7.471  -4.271   1.621  0.00  0.00    +0.000 A 
ATOM     12  C   LIG    1        6.458  -3.632   2.312  0.00  0.00    +0.000 A 
ATOM     13  C   LIG    1        5.205  -3.508   1.742  0.00  0.00    +0.000 A 
ENDBRANCH   7   8
ENDBRANCH   6   7
ENDBRANCH   4   6
ENDBRANCH   1   4
BRANCH   1  14
ATOM     14  C   LIG    1        1.067  -0.328  -1.222  0.00  0.00    +0.490 C 
ATOM     15  N   LIG    1        0.150   0.495  -0.675  0.00  0.00    -0.720 N 
ATOM     16  H   LIG    1       -0.473   0.155  -0.014  0.00  0.00    +0.400 HD
ATOM     17  O   LIG    1        1.846   0.097  -2.049  0.00  0.00    -0.520 OA
BRANCH  15  18
ATOM     18  C   LIG    1        0.094   1.902  -1.079  0.00  0.00    +0.250 C 
ATOM     19  C   LIG    1       -0.803   2.059  -2.325  0.00  0.00    +0.030 C 
ATOM     20  C   LIG    1       -2.188   2.454  -1.749  0.00  0.00    +0.030 C 
ATOM     21  C   LIG    1       -1.815   3.374  -0.567  0.00  0.00    +0.250 C 
ATOM     22  O   LIG    1       -1.547   4.699  -1.036  0.00  0.00    -0.360 OA
ATOM     23  C   LIG    1       -2.780   5.425  -0.805  0.00  0.00    +0.200 C 
ATOM     24  C   LIG    1       -3.279   4.788   0.517  0.00  0.00    +0.200 C 
ATOM     25  O   LIG    1       -2.872   3.409   0.391  0.00  0.00    -0.370 OA
ATOM     26  C   LIG    1       -0.549   2.746   0.037  0.00  0.00    +0.060 C 
ENDBRANCH  15  18
ENDBRANCH   1  14
TORSDOF 6
