REMARK  Name = ZINCrg000000nhaF.0
REMARK                            x       y       z     vdW  Elec       q    Type
REMARK                         _______ _______ _______ _____ _____    ______ ____
ROOT
ATOM      1  C   LIG    1       -1.668  -1.738  -0.135  0.00  0.00    +0.510 C 
ATOM      2  N   LIG    1       -1.443  -0.544   0.450  0.00  0.00    -0.730 N 
ATOM      3  H   LIG    1       -2.190   0.024   0.694  0.00  0.00    +0.400 HD
ATOM      4  O   LIG    1       -0.734  -2.449  -0.440  0.00  0.00    -0.510 OA
ENDROOT
BRANCH   2   5
ATOM      5  C   LIG    1       -0.071  -0.106   0.717  0.00  0.00    +0.230 C 
ATOM      6  C   LIG    1       -0.027   1.422   0.778  0.00  0.00    +0.030 C 
ATOM      7  C   LIG    1        1.409   1.879   1.046  0.00  0.00    +0.070 C 
ATOM      8  C   LIG    1        1.895   1.287   2.364  0.00  0.00    +0.120 C 
ATOM      9  N   LIG    1        1.099   1.803   3.484  0.00  0.00    -0.710 N 
ATOM     10  H   LIG    1        0.144   1.692   3.619  0.00  0.00    +0.440 HD
ATOM     11  C   LIG    1        1.955   2.462   4.288  0.00  0.00    +0.700 C 
ATOM     12  N   LIG    1        3.211   2.437   3.826  0.00  0.00    -0.680 N 
ATOM     13  H   LIG    1        3.964   2.857   4.271  0.00  0.00    +0.430 HD
ATOM     14  O   LIG    1        1.624   3.018   5.317  0.00  0.00    -0.540 OA
ATOM     15  C   LIG    1        1.836  -0.236   2.325  0.00  0.00    +0.060 C 
ATOM     16  C   LIG    1        3.300   1.753   2.666  0.00  0.00    +0.530 C 
ATOM     17  O   LIG    1        4.297   1.555   2.006  0.00  0.00    -0.460 OA
ATOM     18  C   LIG    1        0.399  -0.686   2.052  0.00  0.00    +0.020 C 
ENDBRANCH   2   5
BRANCH   1  19
ATOM     19  C   LIG    1       -3.080  -2.189  -0.409  0.00  0.00    +0.240 C 
BRANCH  19  20
ATOM     20  N   LIG    1       -3.056  -3.509  -1.044  0.00  0.00    -0.590 N 
ATOM     21  C   LIG    1       -3.688  -4.617  -0.340  0.00  0.00    +0.260 C 
ATOM     22  C   LIG    1       -3.993  -5.761  -1.310  0.00  0.00    +0.030 C 
ATOM     23  C   LIG    1       -2.717  -6.087  -2.096  0.00  0.00    +0.030 C 
ATOM     24  C   LIG    1       -2.397  -4.902  -3.011  0.00  0.00    +0.070 C 
ATOM     25  C   LIG    1       -2.453  -3.622  -2.228  0.00  0.00    +0.530 C 
ATOM     26  O   LIG    1       -1.921  -2.638  -2.698  0.00  0.00    -0.540 OA
ENDBRANCH  19  20
BRANCH  19  27
ATOM     27  C   LIG    1       -3.763  -1.186  -1.341  0.00  0.00    +0.040 C 
BRANCH  27  29
ATOM     28  C   LIG    1       -5.972  -1.482  -0.212  0.00  0.00    +0.020 C 
ATOM     29  C   LIG    1       -5.225  -1.592  -1.542  0.00  0.00    -0.020 C 
ATOM     30  C   LIG    1       -5.874  -0.664  -2.571  0.00  0.00    +0.030 C 
ENDBRANCH  27  29
ENDBRANCH  19  27
ENDBRANCH   1  19
TORSDOF 5
