REMARK  Name = ZINCvU0000000HPe.0
REMARK                            x       y       z     vdW  Elec       q    Type
REMARK                         _______ _______ _______ _____ _____    ______ ____
ROOT
ATOM      1  C   LIG    1        2.416   0.019   0.022  0.00  0.00    +0.110 A 
ATOM      2  C   LIG    1        2.407   1.400   0.042  0.00  0.00    -0.010 A 
ATOM      3  C   LIG    1        1.189   2.088   0.062  0.00  0.00    -0.060 A 
ATOM      4  C   LIG    1       -0.013   1.374   0.063  0.00  0.00    +0.040 A 
ATOM      5  C   LIG    1        0.005  -0.005   0.044  0.00  0.00    -0.030 A 
ATOM      6  C   LIG    1        1.213  -0.686   0.023  0.00  0.00    +0.110 A 
ENDROOT
BRANCH   1   8
ATOM      7  C   LIG    1        4.791   0.134   0.001  0.00  0.00    +0.240 C 
ATOM      8  O   LIG    1        3.598  -0.653   0.001  0.00  0.00    -0.300 OA
ENDBRANCH   1   8
BRANCH   3   9
ATOM      9  C   LIG    1        1.172   3.559   0.082  0.00  0.00    +0.070 C 
ATOM     10  C   LIG    1       -0.002   4.220   0.101  0.00  0.00    +0.060 C 
BRANCH  10  11
ATOM     11  C   LIG    1       -0.018   5.685   0.121  0.00  0.00    +0.150 A 
ATOM     12  N   LIG    1       -1.088   6.414   0.141  0.00  0.00    -0.460 NA
ATOM     13  C   LIG    1       -0.942   7.743   0.158  0.00  0.00    +0.090 A 
ATOM     14  C   LIG    1       -1.942   8.742   0.181  0.00  0.00    +0.080 A 
ATOM     15  C   LIG    1       -1.603  10.060   0.197  0.00  0.00    +0.030 A 
ATOM     16  C   LIG    1       -0.271  10.451   0.192  0.00  0.00    +0.040 A 
ATOM     17  C   LIG    1        0.726   9.501   0.169  0.00  0.00    +0.060 A 
ATOM     18  C   LIG    1        0.399   8.147   0.152  0.00  0.00    -0.170 A 
ATOM     19  S   LIG    1        1.413   6.707   0.130  0.00  0.00    +0.060 S 
ENDBRANCH  10  11
ENDBRANCH   3   9
BRANCH   6  20
ATOM     20  O   LIG    1        1.225  -2.045   0.004  0.00  0.00    -0.280 OA
BRANCH  20  21
ATOM     21  C   LIG    1       -0.043  -2.705   0.006  0.00  0.00    +0.240 C 
BRANCH  21  22
ATOM     22  C   LIG    1        0.167  -4.197  -0.018  0.00  0.00    +0.520 C 
ATOM     23  N   LIG    1       -0.895  -5.027  -0.020  0.00  0.00    -0.670 N 
ATOM     24  H   LIG    1       -1.792  -4.667   0.059  0.00  0.00    +0.420 HD
ATOM     25  O   LIG    1        1.292  -4.651  -0.034  0.00  0.00    -0.490 OA
BRANCH  23  26
ATOM     26  C   LIG    1       -0.703  -6.409  -0.136  0.00  0.00    +0.110 A 
ATOM     27  C   LIG    1        0.409  -7.008   0.441  0.00  0.00    +0.060 A 
ATOM     28  C   LIG    1        0.595  -8.372   0.326  0.00  0.00    +0.030 A 
ATOM     29  C   LIG    1       -0.323  -9.142  -0.364  0.00  0.00    +0.040 A 
ATOM     30  C   LIG    1       -1.432  -8.550  -0.941  0.00  0.00    +0.000 A 
ATOM     31  C   LIG    1       -1.628  -7.186  -0.824  0.00  0.00    +0.070 A 
ATOM     32  F   LIG    1       -2.715  -6.609  -1.383  0.00  0.00    -0.140 F 
ENDBRANCH  23  26
ENDBRANCH  21  22
ENDBRANCH  20  21
ENDBRANCH   6  20
TORSDOF 7
