REMARK  Name = ZINCpe00000VVGRr.0
REMARK                            x       y       z     vdW  Elec       q    Type
REMARK                         _______ _______ _______ _____ _____    ______ ____
ROOT
ATOM      1  N   LIG    1       -0.025   5.488  -2.595  0.00  0.00    -0.660 N 
ATOM      2  H   LIG    1       -0.913   5.112  -2.702  0.00  0.00    +0.400 HD
ATOM      3  C   LIG    1        0.777   5.050  -1.603  0.00  0.00    +0.710 C 
ATOM      4  N   LIG    1        0.387   4.019  -0.827  0.00  0.00    -0.630 N 
ATOM      5  C   LIG    1        1.290   3.456   0.188  0.00  0.00    +0.320 C 
ATOM      6  C   LIG    1        1.354   1.937  -0.006  0.00  0.00    +0.180 C 
ATOM      7  N   LIG    1       -0.009   1.388   0.001  0.00  0.00    -0.480 N 
ATOM      8  C   LIG    1       -0.800   1.911  -1.122  0.00  0.00    +0.190 C 
ATOM      9  C   LIG    1       -0.951   3.428  -0.973  0.00  0.00    +0.280 C 
ATOM     10  O   LIG    1        1.851   5.586  -1.409  0.00  0.00    -0.570 OA
ENDROOT
BRANCH   7  11
ATOM     11  C   LIG    1        0.014  -0.010  -0.010  0.00  0.00    +0.100 A 
ATOM     12  C   LIG    1        1.227  -0.685  -0.031  0.00  0.00    +0.000 A 
ATOM     13  C   LIG    1        1.247  -2.066  -0.037  0.00  0.00    +0.020 A 
ATOM     14  C   LIG    1        0.059  -2.777  -0.032  0.00  0.00    +0.070 A 
ATOM     15  C   LIG    1       -1.152  -2.106  -0.017  0.00  0.00    +0.010 A 
ATOM     16  F   LIG    1        0.081  -4.128  -0.043  0.00  0.00    -0.140 F 
ATOM     17  C   LIG    1       -1.177  -0.725  -0.005  0.00  0.00    +0.030 A 
ENDBRANCH   7  11
BRANCH   1  20
ATOM     18  N   LIG    1        0.516   7.951  -5.105  0.00  0.00    -0.370 N 
ATOM     19  C   LIG    1       -0.272   7.016  -4.513  0.00  0.00    +0.190 A 
ATOM     20  C   LIG    1        0.426   6.490  -3.475  0.00  0.00    +0.030 A 
ATOM     21  C   LIG    1        1.679   7.119  -3.437  0.00  0.00    +0.260 A 
ATOM     22  N   LIG    1        1.732   7.991  -4.411  0.00  0.00    -0.250 NA
BRANCH  18  23
ATOM     23  C   LIG    1        0.158   8.770  -6.266  0.00  0.00    +0.370 C 
BRANCH  23  27
ATOM     24  N   LIG    1        0.064  11.171  -6.851  0.00  0.00    -0.850 N 
ATOM     25  H   LIG    1        0.177  12.110  -6.633  0.00  0.00    +0.410 HD
ATOM     26  H   LIG    1       -0.245  10.912  -7.733  0.00  0.00    +0.400 HD
ATOM     27  C   LIG    1        0.335  10.227  -5.928  0.00  0.00    +0.500 C 
ATOM     28  O   LIG    1        0.721  10.551  -4.824  0.00  0.00    -0.510 OA
ENDBRANCH  23  27
ENDBRANCH  18  23
ENDBRANCH   1  20
TORSDOF 4
