REMARK  Name = ZINCnE000001TArl.2
REMARK                            x       y       z     vdW  Elec       q    Type
REMARK                         _______ _______ _______ _____ _____    ______ ____
ROOT
ATOM      1  C   LIG    1        5.971   3.609  -3.530  0.00  0.00    -0.080 C 
ATOM      2  C   LIG    1        7.074   4.668  -3.601  0.00  0.00    +0.030 C 
ATOM      3  C   LIG    1        6.593   5.941  -2.896  0.00  0.00    +0.040 C 
ATOM      4  C   LIG    1        6.176   5.593  -1.468  0.00  0.00    +0.100 C 
ATOM      5  N   LIG    1        5.164   4.535  -1.409  0.00  0.00    -0.520 NA
ATOM      6  C   LIG    1        7.363   5.359  -0.525  0.00  0.00    -0.030 C 
ATOM      7  C   LIG    1        7.316   6.867  -0.225  0.00  0.00    -0.000 C 
ATOM      8  C   LIG    1        5.830   6.821  -0.617  0.00  0.00    +0.010 C 
ATOM      9  C   LIG    1        5.644   3.310  -2.065  0.00  0.00    +0.180 C 
ENDROOT
BRANCH   1  11
ATOM     10  O   LIG    1        7.556   2.300  -4.700  0.00  0.00    -0.700 OA
ATOM     11  C   LIG    1        6.442   2.347  -4.206  0.00  0.00    +0.500 C 
ATOM     12  O   LIG    1        5.709   1.374  -4.260  0.00  0.00    -0.700 OA
ENDBRANCH   1  11
BRANCH   5  13
ATOM     13  C   LIG    1        4.763   4.266  -0.022  0.00  0.00    +0.220 C 
BRANCH  13  14
ATOM     14  C   LIG    1        3.614   3.291  -0.010  0.00  0.00    -0.070 A 
ATOM     15  C   LIG    1        3.868   1.955   0.041  0.00  0.00    +0.050 A 
ATOM     16  C   LIG    1        2.798   1.045   0.052  0.00  0.00    -0.100 A 
ATOM     17  C   LIG    1        3.017  -0.344   0.104  0.00  0.00    +0.090 A 
ATOM     18  C   LIG    1        1.928  -1.169   0.111  0.00  0.00    -0.040 A 
ATOM     19  C   LIG    1        0.646  -0.627   0.067  0.00  0.00    +0.290 A 
ATOM     20  N   LIG    1        0.445   0.668   0.019  0.00  0.00    -0.480 NA
ATOM     21  C   LIG    1        1.467   1.529   0.009  0.00  0.00    +0.130 A 
ATOM     22  C   LIG    1        1.246   2.917  -0.043  0.00  0.00    +0.030 A 
ATOM     23  C   LIG    1        2.306   3.770  -0.052  0.00  0.00    +0.060 A 
ENDBRANCH  13  14
ENDBRANCH   5  13
TORSDOF 3
