REMARK  Name = ZINCpk00000xIhMx.0
REMARK                            x       y       z     vdW  Elec       q    Type
REMARK                         _______ _______ _______ _____ _____    ______ ____
ROOT
ATOM      1  C   LIG    1        1.076   1.996  -0.502  0.00  0.00    +0.630 A 
ATOM      2  N   LIG    1        2.242   1.355  -0.507  0.00  0.00    -0.620 NA
ATOM      3  C   LIG    1        2.278   0.044  -0.342  0.00  0.00    +0.430 A 
ATOM      4  N   LIG    1        1.157  -0.635  -0.173  0.00  0.00    -0.610 NA
ATOM      5  C   LIG    1       -0.013  -0.001  -0.167  0.00  0.00    +0.630 A 
ATOM      6  N   LIG    1       -0.053   1.317  -0.332  0.00  0.00    -0.630 NA
ENDROOT
BRANCH   1   7
ATOM      7  N   LIG    1        1.039   3.365  -0.674  0.00  0.00    -0.800 N 
ATOM      8  H   LIG    1        1.864   3.860  -0.798  0.00  0.00    +0.420 HD
ATOM      9  H   LIG    1        0.189   3.831  -0.671  0.00  0.00    +0.420 HD
ENDBRANCH   1   7
BRANCH   5  10
ATOM     10  N   LIG    1       -1.184  -0.712   0.010  0.00  0.00    -0.620 N 
ATOM     11  H   LIG    1       -1.162  -1.681   0.050  0.00  0.00    +0.430 HD
BRANCH  10  12
ATOM     12  C   LIG    1       -2.402  -0.035   0.131  0.00  0.00    +0.160 A 
ATOM     13  C   LIG    1       -2.448   1.208   0.750  0.00  0.00    +0.020 A 
ATOM     14  C   LIG    1       -3.651   1.876   0.864  0.00  0.00    +0.030 A 
ATOM     15  C   LIG    1       -4.811   1.305   0.372  0.00  0.00    -0.010 A 
ATOM     16  C   LIG    1       -4.769   0.065  -0.239  0.00  0.00    +0.030 A 
ATOM     17  C   LIG    1       -3.568  -0.606  -0.361  0.00  0.00    -0.010 A 
ENDBRANCH  10  12
ENDBRANCH   5  10
BRANCH   3  18
ATOM     18  C   LIG    1        3.601  -0.678  -0.347  0.00  0.00    +0.360 C 
BRANCH  18  19
ATOM     19  O   LIG    1        3.926  -1.083  -1.703  0.00  0.00    -0.340 OA
BRANCH  19  20
ATOM     20  C   LIG    1        5.081  -1.742  -1.882  0.00  0.00    +0.450 C 
ATOM     21  O   LIG    1        5.797  -1.974  -0.936  0.00  0.00    -0.490 OA
BRANCH  20  22
ATOM     22  C   LIG    1        5.485  -2.194  -3.262  0.00  0.00    +0.400 C 
BRANCH  22  23
ATOM     23  N   LIG    1        6.775  -2.885  -3.191  0.00  0.00    -0.600 N 
ATOM     24  C   LIG    1        8.012  -2.153  -3.342  0.00  0.00    +0.290 C 
ATOM     25  C   LIG    1        9.234  -3.074  -3.229  0.00  0.00    +0.140 C 
ATOM     26  S   LIG    1        8.516  -4.725  -2.958  0.00  0.00    -0.150 S 
ATOM     27  C   LIG    1        6.829  -4.199  -2.992  0.00  0.00    +0.550 C 
ATOM     28  O   LIG    1        5.865  -4.928  -2.855  0.00  0.00    -0.480 OA
ENDBRANCH  22  23
ENDBRANCH  20  22
ENDBRANCH  19  20
ENDBRANCH  18  19
ENDBRANCH   3  18
TORSDOF 8
