REMARK  Name = ZINCtV000002KRuB.0
REMARK                            x       y       z     vdW  Elec       q    Type
REMARK                         _______ _______ _______ _____ _____    ______ ____
ROOT
ATOM      1  C   LIG    1       -5.328   5.439  -3.739  0.00  0.00    +0.350 C 
ATOM      2  N   LIG    1       -5.472   5.510  -2.283  0.00  0.00    -0.460 N 
ATOM      3  C   LIG    1       -6.499   6.077  -1.581  0.00  0.00    +0.180 A 
ATOM      4  N   LIG    1       -6.233   5.928  -0.315  0.00  0.00    -0.250 NA
ATOM      5  N   LIG    1       -5.119   5.304  -0.169  0.00  0.00    -0.290 NA
ATOM      6  C   LIG    1       -4.609   5.020  -1.345  0.00  0.00    +0.160 A 
ENDROOT
BRANCH   3   7
ATOM      7  C   LIG    1       -7.712   6.755  -2.165  0.00  0.00    +0.240 C 
BRANCH   7   8
ATOM      8  S   LIG    1       -7.364   8.517  -2.398  0.00  0.00    +0.040 S 
BRANCH   8   9
ATOM      9  C   LIG    1       -8.904   9.046  -3.071  0.00  0.00    +0.080 A 
ATOM     10  N   LIG    1       -9.915   8.276  -3.291  0.00  0.00    -0.470 NA
ATOM     11  C   LIG    1      -11.030   8.831  -3.808  0.00  0.00    +0.090 A 
ATOM     12  C   LIG    1      -12.255   8.213  -4.132  0.00  0.00    +0.080 A 
ATOM     13  C   LIG    1      -13.286   8.948  -4.661  0.00  0.00    +0.040 A 
ATOM     14  C   LIG    1      -13.140  10.309  -4.886  0.00  0.00    +0.040 A 
ATOM     15  C   LIG    1      -11.952  10.934  -4.577  0.00  0.00    +0.060 A 
ATOM     16  C   LIG    1      -10.896  10.204  -4.039  0.00  0.00    -0.170 A 
ATOM     17  S   LIG    1       -9.278  10.697  -3.546  0.00  0.00    +0.120 S 
ENDBRANCH   8   9
ENDBRANCH   7   8
ENDBRANCH   3   7
BRANCH   6  18
ATOM     18  S   LIG    1       -3.095   4.173  -1.654  0.00  0.00    +0.020 S 
BRANCH  18  19
ATOM     19  C   LIG    1       -2.553   3.868   0.046  0.00  0.00    +0.160 C 
BRANCH  19  20
ATOM     20  C   LIG    1       -1.238   3.133   0.029  0.00  0.00    -0.090 A 
ATOM     21  C   LIG    1       -1.219   1.751   0.017  0.00  0.00    +0.070 A 
ATOM     22  C   LIG    1       -0.013   1.076   0.008  0.00  0.00    +0.020 A 
ATOM     23  C   LIG    1        1.175   1.783   0.000  0.00  0.00    +0.080 A 
ATOM     24  C   LIG    1        1.156   3.166   0.008  0.00  0.00    -0.180 A 
ATOM     25  C   LIG    1       -0.050   3.840   0.023  0.00  0.00    +0.090 A 
BRANCH  24  26
ATOM     26  C   LIG    1        2.451   3.937   0.001  0.00  0.00    +0.510 C 
ATOM     27  F   LIG    1        2.524   4.736   1.147  0.00  0.00    -0.170 F 
ATOM     28  F   LIG    1        2.504   4.748  -1.138  0.00  0.00    -0.170 F 
ATOM     29  F   LIG    1        3.526   3.042  -0.013  0.00  0.00    -0.180 F 
ENDBRANCH  24  26
ENDBRANCH  19  20
ENDBRANCH  18  19
ENDBRANCH   6  18
TORSDOF 7
