REMARK  Name = ZINCrD000000B9Vb.0
REMARK                            x       y       z     vdW  Elec       q    Type
REMARK                         _______ _______ _______ _____ _____    ______ ____
ROOT
ATOM      1  C   LIG    1       -0.013   1.086   0.008  0.00  0.00    +0.000 C 
ATOM      2  C   LIG    1       -0.733   1.583  -1.243  0.00  0.00    +0.040 C 
ATOM      3  C   LIG    1       -1.966   2.438  -0.879  0.00  0.00    +0.100 C 
ATOM      4  C   LIG    1       -2.814   1.558   0.027  0.00  0.00    -0.080 A 
ATOM      5  C   LIG    1       -4.112   1.213  -0.219  0.00  0.00    +0.020 A 
ATOM      6  C   LIG    1       -4.771   0.399   0.694  0.00  0.00    +0.000 A 
ATOM      7  C   LIG    1       -4.120  -0.051   1.827  0.00  0.00    +0.000 A 
ATOM      8  C   LIG    1       -2.799   0.304   2.068  0.00  0.00    +0.030 A 
ATOM      9  C   LIG    1       -2.158   1.104   1.166  0.00  0.00    -0.080 A 
ATOM     10  C   LIG    1       -1.438   3.542   0.023  0.00  0.00    -0.080 A 
ATOM     11  C   LIG    1       -1.571   4.879  -0.221  0.00  0.00    +0.010 A 
ATOM     12  C   LIG    1       -1.038   5.782   0.690  0.00  0.00    +0.000 A 
ATOM     13  C   LIG    1       -0.387   5.332   1.823  0.00  0.00    +0.000 A 
ATOM     14  C   LIG    1       -0.256   3.971   2.065  0.00  0.00    +0.030 A 
ATOM     15  C   LIG    1       -0.781   3.089   1.165  0.00  0.00    -0.080 A 
ATOM     16  C   LIG    1       -0.717   1.575   1.292  0.00  0.00    +0.110 C 
ENDROOT
BRANCH   1  17
ATOM     17  C   LIG    1        1.426   1.606  -0.003  0.00  0.00    +0.280 C 
BRANCH  17  20
ATOM     18  O   LIG    1        4.006   2.114  -0.601  0.00  0.00    -0.520 OA
ATOM     19  C   LIG    1        3.436   1.352  -1.357  0.00  0.00    +0.560 C 
ATOM     20  N   LIG    1        2.144   1.033  -1.144  0.00  0.00    -0.720 N 
ATOM     21  H   LIG    1        1.689   0.424  -1.747  0.00  0.00    +0.400 HD
BRANCH  19  22
ATOM     22  C   LIG    1        4.161   0.773  -2.510  0.00  0.00    -0.100 C 
ATOM     23  C   LIG    1        3.525  -0.112  -3.388  0.00  0.00    +0.080 C 
ATOM     24  C   LIG    1        4.237  -0.624  -4.453  0.00  0.00    +0.260 C 
ATOM     25  N   LIG    1        5.503  -0.298  -4.642  0.00  0.00    -0.110 NA
ATOM     26  C   LIG    1        6.141   0.528  -3.835  0.00  0.00    +0.260 C 
ATOM     27  O   LIG    1        6.196  -0.853  -5.745  0.00  0.00    -0.530 OA
ATOM     28  C   LIG    1        5.503   1.091  -2.748  0.00  0.00    +0.120 C 
ENDBRANCH  19  22
ENDBRANCH  17  20
ENDBRANCH   1  17
TORSDOF 3
