REMARK  Name = ZINCrD00000F5Lte.0
REMARK                            x       y       z     vdW  Elec       q    Type
REMARK                         _______ _______ _______ _____ _____    ______ ____
ROOT
ATOM      1  C   LIG    1       -2.562   2.697   4.666  0.00  0.00    +0.510 C 
ATOM      2  N   LIG    1       -1.930   2.381   3.518  0.00  0.00    -0.660 N 
ATOM      3  H   LIG    1       -2.268   2.712   2.671  0.00  0.00    +0.410 HD
ATOM      4  O   LIG    1       -2.085   2.369   5.731  0.00  0.00    -0.510 OA
ENDROOT
BRANCH   2   5
ATOM      5  C   LIG    1       -0.785   1.574   3.549  0.00  0.00    +0.120 A 
ATOM      6  C   LIG    1       -0.581   0.697   4.603  0.00  0.00    +0.060 A 
ATOM      7  C   LIG    1        0.550  -0.099   4.631  0.00  0.00    -0.010 A 
ATOM      8  C   LIG    1        1.478  -0.022   3.610  0.00  0.00    -0.070 A 
ATOM      9  C   LIG    1        1.278   0.846   2.552  0.00  0.00    -0.060 A 
ATOM     10  C   LIG    1        2.708  -0.891   3.646  0.00  0.00    +0.100 C 
ATOM     11  C   LIG    1        0.151   1.651   2.520  0.00  0.00    +0.100 A 
BRANCH  11  12
ATOM     12  O   LIG    1       -0.044   2.509   1.483  0.00  0.00    -0.310 OA
BRANCH  12  13
ATOM     13  C   LIG    1        0.957   2.534   0.464  0.00  0.00    +0.210 C 
BRANCH  13  14
ATOM     14  C   LIG    1        0.567   3.551  -0.610  0.00  0.00    +0.190 C 
BRANCH  14  15
ATOM     15  O   LIG    1        0.569   4.864  -0.045  0.00  0.00    -0.380 OA
ATOM     16  C   LIG    1        0.216   5.895  -0.970  0.00  0.00    +0.200 C 
ENDBRANCH  14  15
ENDBRANCH  13  14
ENDBRANCH  12  13
ENDBRANCH  11  12
ENDBRANCH   2   5
BRANCH   1  17
ATOM     17  C   LIG    1       -3.862   3.459   4.624  0.00  0.00    +0.120 C 
BRANCH  17  21
ATOM     18  C   LIG    1       -5.267   4.097   8.610  0.00  0.00    +0.140 A 
ATOM     19  C   LIG    1       -4.432   5.030   8.009  0.00  0.00    -0.010 A 
ATOM     20  C   LIG    1       -3.980   4.821   6.721  0.00  0.00    +0.040 A 
ATOM     21  C   LIG    1       -4.357   3.684   6.030  0.00  0.00    -0.080 A 
ATOM     22  C   LIG    1       -5.193   2.756   6.624  0.00  0.00    +0.030 A 
ATOM     23  C   LIG    1       -5.645   2.956   7.913  0.00  0.00    +0.020 A 
BRANCH  18  25
ATOM     24  C   LIG    1       -5.896   3.258  10.745  0.00  0.00    +0.540 C 
ATOM     25  N   LIG    1       -5.728   4.306   9.914  0.00  0.00    -0.670 N 
ATOM     26  H   LIG    1       -5.926   5.205  10.220  0.00  0.00    +0.410 HD
ATOM     27  O   LIG    1       -5.731   2.125  10.336  0.00  0.00    -0.520 OA
BRANCH  24  29
ATOM     28  C   LIG    1       -6.445   2.452  12.967  0.00  0.00    +0.160 C 
ATOM     29  C   LIG    1       -6.279   3.486  12.147  0.00  0.00    -0.090 C 
ENDBRANCH  24  29
ENDBRANCH  18  25
ENDBRANCH  17  21
ENDBRANCH   1  17
TORSDOF 9
