REMARK  Name = ZINCrH000004v9Sv.0
REMARK                            x       y       z     vdW  Elec       q    Type
REMARK                         _______ _______ _______ _____ _____    ______ ____
ROOT
ATOM      1  O   LIG    1        4.052   4.239  -1.398  0.00  0.00    -0.510 OA
ATOM      2  C   LIG    1        3.249   3.607  -0.739  0.00  0.00    +0.560 C 
ATOM      3  N   LIG    1        2.328   4.255   0.001  0.00  0.00    -0.670 N 
ATOM      4  H   LIG    1        1.639   3.753   0.466  0.00  0.00    +0.410 HD
ENDROOT
BRANCH   3   5
ATOM      5  C   LIG    1        2.364   5.651   0.100  0.00  0.00    +0.130 A 
ATOM      6  C   LIG    1        1.175   6.369   0.214  0.00  0.00    +0.010 A 
ATOM      7  C   LIG    1        1.197   7.743   0.314  0.00  0.00    +0.040 A 
ATOM      8  C   LIG    1        2.409   8.419   0.303  0.00  0.00    +0.030 A 
ATOM      9  C   LIG    1        3.613   7.703   0.185  0.00  0.00    +0.070 A 
ATOM     10  N   LIG    1        4.618   8.615   0.198  0.00  0.00    -0.490 NA
ATOM     11  C   LIG    1        4.125   9.815   0.317  0.00  0.00    +0.290 A 
ATOM     12  C   LIG    1        4.934  11.090   0.360  0.00  0.00    +0.150 C 
ATOM     13  C   LIG    1        4.437  11.967   1.511  0.00  0.00    +0.030 C 
ATOM     14  C   LIG    1        3.304  12.862   1.020  0.00  0.00    +0.010 C 
ATOM     15  C   LIG    1        2.480  12.142  -0.045  0.00  0.00    +0.030 C 
ATOM     16  C   LIG    1        1.852  10.883   0.557  0.00  0.00    +0.280 C 
ATOM     17  N   LIG    1        2.767   9.750   0.394  0.00  0.00    -0.490 N 
ATOM     18  C   LIG    1        3.579   6.310   0.090  0.00  0.00    +0.070 A 
ENDBRANCH   3   5
BRANCH   2  19
ATOM     19  C   LIG    1        3.283   2.132  -0.750  0.00  0.00    -0.140 A 
ATOM     20  C   LIG    1        2.362   1.405   0.007  0.00  0.00    +0.060 A 
ATOM     21  C   LIG    1        2.397   0.027  -0.004  0.00  0.00    +0.020 A 
ATOM     22  C   LIG    1        3.346  -0.643  -0.765  0.00  0.00    +0.080 A 
ATOM     23  O   LIG    1        3.365  -2.003  -0.758  0.00  0.00    -0.300 OA
ATOM     24  C   LIG    1        4.081  -2.643  -1.819  0.00  0.00    +0.230 C 
ATOM     25  C   LIG    1        5.438  -1.944  -1.974  0.00  0.00    +0.230 C 
ATOM     26  O   LIG    1        5.200  -0.566  -2.279  0.00  0.00    -0.300 OA
ATOM     27  C   LIG    1        4.267   0.076  -1.524  0.00  0.00    +0.040 A 
ATOM     28  C   LIG    1        4.237   1.459  -1.517  0.00  0.00    +0.100 A 
ENDBRANCH   2  19
TORSDOF 2
