REMARK  Name = ZINCpk000000pUp4.0
REMARK                            x       y       z     vdW  Elec       q    Type
REMARK                         _______ _______ _______ _____ _____    ______ ____
ROOT
ATOM      1  N   LIG    1        1.845   3.949   0.050  0.00  0.00    -0.500 N 
ATOM      2  H   LIG    1        1.887   4.521   0.833  0.00  0.00    +0.430 HD
ATOM      3  C   LIG    1        2.483   4.306  -1.081  0.00  0.00    +0.520 C 
ATOM      4  O   LIG    1        2.431   3.591  -2.059  0.00  0.00    -0.480 OA
ENDROOT
BRANCH   1   9
ATOM      5  C   LIG    1       -0.555   1.199   0.131  0.00  0.00    +0.130 C 
ATOM      6  N   LIG    1        0.765   0.551   0.210  0.00  0.00    -0.710 N 
ATOM      7  H   LIG    1        0.942  -0.401   0.267  0.00  0.00    +0.450 HD
ATOM      8  C   LIG    1        1.680   1.537   0.181  0.00  0.00    +0.710 C 
ATOM      9  N   LIG    1        1.121   2.750   0.098  0.00  0.00    -0.380 N 
ATOM     10  O   LIG    1        2.880   1.348   0.225  0.00  0.00    -0.520 OA
ATOM     11  C   LIG    1       -1.299   0.753  -1.130  0.00  0.00    +0.100 C 
ATOM     12  C   LIG    1       -0.224   2.676   0.064  0.00  0.00    +0.530 C 
ATOM     13  O   LIG    1       -1.007   3.599  -0.009  0.00  0.00    -0.450 OA
BRANCH   5  15
ATOM     14  C   LIG    1       -1.502  -0.625   1.553  0.00  0.00    +0.050 C 
ATOM     15  C   LIG    1       -1.381   0.891   1.382  0.00  0.00    +0.050 C 
ENDBRANCH   5  15
ENDBRANCH   1   9
BRANCH   3  16
ATOM     16  C   LIG    1        3.261   5.596  -1.132  0.00  0.00    +0.190 C 
ATOM     17  C   LIG    1        4.445   5.515  -0.165  0.00  0.00    +0.060 C 
BRANCH  16  18
ATOM     18  O   LIG    1        3.745   5.809  -2.460  0.00  0.00    -0.280 OA
BRANCH  18  19
ATOM     19  C   LIG    1        4.002   7.092  -2.825  0.00  0.00    +0.120 A 
ATOM     20  C   LIG    1        3.895   8.114  -1.890  0.00  0.00    -0.040 A 
ATOM     21  C   LIG    1        4.161   9.422  -2.253  0.00  0.00    +0.050 A 
ATOM     22  C   LIG    1        4.524   9.723  -3.548  0.00  0.00    +0.030 A 
ATOM     23  C   LIG    1        4.630   8.703  -4.499  0.00  0.00    -0.130 A 
ATOM     24  C   LIG    1        4.366   7.381  -4.129  0.00  0.00    +0.050 A 
BRANCH  23  25
ATOM     25  C   LIG    1        5.017   9.019  -5.883  0.00  0.00    +0.390 C 
ATOM     26  O   LIG    1        5.107   8.133  -6.705  0.00  0.00    -0.450 OA
ATOM     27  C   LIG    1        5.301  10.445  -6.279  0.00  0.00    +0.080 C 
ENDBRANCH  23  25
ENDBRANCH  18  19
ENDBRANCH  16  18
ENDBRANCH   3  16
TORSDOF 6
