REMARK  Name = ZINCpk00001AZiME.0
REMARK                            x       y       z     vdW  Elec       q    Type
REMARK                         _______ _______ _______ _____ _____    ______ ____
ROOT
ATOM      1  N   LIG    1       -3.527   1.240   0.507  0.00  0.00    -0.710 N 
ATOM      2  H   LIG    1       -3.361   2.116   0.890  0.00  0.00    +0.410 HD
ATOM      3  C   LIG    1       -2.525   0.343   0.418  0.00  0.00    +0.550 C 
ATOM      4  O   LIG    1       -2.734  -0.756  -0.063  0.00  0.00    -0.540 OA
ENDROOT
BRANCH   1   6
ATOM      5  C   LIG    1       -4.955   1.164  -1.477  0.00  0.00    +0.060 C 
ATOM      6  C   LIG    1       -4.866   0.893   0.026  0.00  0.00    +0.240 C 
BRANCH   6   7
ATOM      7  C   LIG    1       -5.892   1.729   0.748  0.00  0.00    +0.520 C 
ATOM      8  N   LIG    1       -7.186   1.353   0.752  0.00  0.00    -0.610 N 
ATOM      9  C   LIG    1       -7.606   0.077   0.151  0.00  0.00    +0.260 C 
ATOM     10  C   LIG    1       -8.469  -0.675   1.177  0.00  0.00    +0.220 C 
ATOM     11  O   LIG    1       -9.515   0.188   1.631  0.00  0.00    -0.380 OA
ATOM     12  C   LIG    1       -9.056   1.355   2.315  0.00  0.00    +0.220 C 
ATOM     13  C   LIG    1       -8.221   2.209   1.353  0.00  0.00    +0.260 C 
ATOM     14  O   LIG    1       -5.552   2.740   1.325  0.00  0.00    -0.530 OA
ENDBRANCH   6   7
ENDBRANCH   1   6
BRANCH   3  15
ATOM     15  C   LIG    1       -1.188   0.689   0.898  0.00  0.00    -0.070 C 
ATOM     16  C   LIG    1       -0.185  -0.210   0.808  0.00  0.00    +0.140 C 
BRANCH  16  17
ATOM     17  C   LIG    1        1.161   0.141   1.286  0.00  0.00    -0.050 A 
ATOM     18  C   LIG    1        1.403   1.403   1.838  0.00  0.00    +0.070 A 
ATOM     19  C   LIG    1        2.666   1.728   2.285  0.00  0.00    -0.020 A 
ATOM     20  C   LIG    1        3.701   0.807   2.189  0.00  0.00    +0.050 A 
ATOM     21  O   LIG    1        5.013   0.885   2.551  0.00  0.00    -0.290 OA
ATOM     22  C   LIG    1        5.483  -0.475   2.596  0.00  0.00    +0.440 C 
ATOM     23  O   LIG    1        4.633  -1.162   1.658  0.00  0.00    -0.300 OA
ATOM     24  C   LIG    1        3.466  -0.454   1.638  0.00  0.00    +0.050 A 
ATOM     25 CL   LIG    1        2.964   3.295   2.971  0.00  0.00    -0.040 Cl
ATOM     26  C   LIG    1        2.203  -0.789   1.194  0.00  0.00    +0.080 A 
ENDBRANCH  16  17
ENDBRANCH   3  15
TORSDOF 4
