REMARK  Name = ZINCb700000010s6.0
REMARK                            x       y       z     vdW  Elec       q    Type
REMARK                         _______ _______ _______ _____ _____    ______ ____
ROOT
ATOM      1  C   LIG    1       -1.116   2.042   3.926  0.00  0.00    +0.120 C 
ATOM      2  C   LIG    1       -0.290   1.572   2.727  0.00  0.00    +0.200 C 
ENDROOT
BRANCH   2   3
ATOM      3  N   LIG    1       -0.146   0.111   2.774  0.00  0.00    -0.490 N 
ATOM      4  H   LIG    1        0.328  -0.207   1.942  0.00  0.00    +0.420 HD
ATOM      5  H   LIG    1       -1.059  -0.316   2.825  0.00  0.00    +0.430 HD
BRANCH   3   6
ATOM      6  C   LIG    1        0.637  -0.267   3.958  0.00  0.00    +0.090 C 
ATOM      7  C   LIG    1        1.988  -0.947   3.724  0.00  0.00    +0.100 C 
ATOM      8  C   LIG    1        0.802  -1.760   4.250  0.00  0.00    +0.110 C 
ENDBRANCH   3   6
ENDBRANCH   2   3
BRANCH   2   9
ATOM      9  C   LIG    1       -0.997   1.974   1.431  0.00  0.00    -0.320 C 
BRANCH   9  10
ATOM     10  S   LIG    1       -0.017   1.417   0.010  0.00  0.00    +2.390 S 
ATOM     11  O   LIG    1        1.213   2.127   0.002  0.00  0.00    -0.910 OA
ATOM     12  O   LIG    1        0.002  -0.004   0.002  0.00  0.00    -0.940 OA
ATOM     13  C   LIG    1       -1.024   1.989  -1.387  0.00  0.00    -0.200 C 
ENDBRANCH   9  10
ENDBRANCH   2   9
TORSDOF 4
