REMARK  Name = ZINCrD0000074cPr.0
REMARK                            x       y       z     vdW  Elec       q    Type
REMARK                         _______ _______ _______ _____ _____    ______ ____
ROOT
ATOM      1  C   LIG    1       -0.028   1.083   0.007  0.00  0.00    +0.080 C 
ATOM      2  C   LIG    1       -0.735   1.579   1.270  0.00  0.00    +0.200 C 
ENDROOT
BRANCH   2   3
ATOM      3  C   LIG    1        0.002   1.080   2.487  0.00  0.00    +0.520 C 
ATOM      4  N   LIG    1        0.056  -0.242   2.745  0.00  0.00    -0.660 N 
ATOM      5  H   LIG    1       -0.434  -0.866   2.188  0.00  0.00    +0.420 HD
ATOM      6  O   LIG    1        0.545   1.867   3.233  0.00  0.00    -0.490 OA
BRANCH   4   7
ATOM      7  C   LIG    1        0.821  -0.714   3.821  0.00  0.00    +0.150 A 
ATOM      8  C   LIG    1        1.480  -1.931   3.722  0.00  0.00    +0.010 A 
ATOM      9  C   LIG    1        2.238  -2.396   4.780  0.00  0.00    +0.060 A 
ATOM     10  C   LIG    1        2.335  -1.653   5.944  0.00  0.00    +0.020 A 
ATOM     11  O   LIG    1        3.003  -1.887   7.113  0.00  0.00    -0.310 OA
ATOM     12  C   LIG    1        2.410  -0.998   8.079  0.00  0.00    +0.430 C 
ATOM     13  O   LIG    1        1.921   0.096   7.282  0.00  0.00    -0.310 OA
ATOM     14  C   LIG    1        1.670  -0.433   6.049  0.00  0.00    +0.050 A 
ATOM     15  C   LIG    1        0.914   0.034   4.987  0.00  0.00    +0.050 A 
ENDBRANCH   4   7
ENDBRANCH   2   3
BRANCH   2  16
ATOM     16  O   LIG    1       -0.751   3.031   1.277  0.00  0.00    -0.320 OA
BRANCH  16  17
ATOM     17  C   LIG    1       -1.807   3.634   0.696  0.00  0.00    +0.520 C 
ATOM     18  O   LIG    1       -2.691   2.965   0.198  0.00  0.00    -0.480 OA
BRANCH  17  19
ATOM     19  C   LIG    1       -1.891   5.104   0.665  0.00  0.00    -0.170 A 
ATOM     20  C   LIG    1       -0.883   5.888   1.240  0.00  0.00    +0.160 A 
ATOM     21  C   LIG    1       -1.007   7.264   1.180  0.00  0.00    -0.030 A 
ATOM     22  C   LIG    1       -2.115   7.824   0.570  0.00  0.00    +0.330 A 
ATOM     23  N   LIG    1       -3.057   7.070   0.038  0.00  0.00    -0.480 NA
ATOM     24  C   LIG    1       -2.988   5.747   0.063  0.00  0.00    +0.160 A 
BRANCH  24  25
ATOM     25  S   LIG    1       -4.275   4.788  -0.664  0.00  0.00    +0.040 S 
BRANCH  25  26
ATOM     26  C   LIG    1       -5.360   6.112  -1.252  0.00  0.00    +0.380 C 
ATOM     27  F   LIG    1       -4.665   6.914  -2.163  0.00  0.00    -0.180 F 
ATOM     28  F   LIG    1       -5.774   6.892  -0.167  0.00  0.00    -0.180 F 
ENDBRANCH  25  26
ENDBRANCH  24  25
ENDBRANCH  17  19
ENDBRANCH  16  17
ENDBRANCH   2  16
TORSDOF 7
