REMARK  Name = ZINCvU00000003Tg.0
REMARK                            x       y       z     vdW  Elec       q    Type
REMARK                         _______ _______ _______ _____ _____    ______ ____
ROOT
ATOM      1  C   LIG    1       -5.262   1.210   0.036  0.00  0.00    -0.270 A 
ATOM      2  C   LIG    1       -6.589   1.636   0.045  0.00  0.00    +0.240 A 
ATOM      3  N   LIG    1       -7.407   0.547   0.044  0.00  0.00    -0.460 N 
ATOM      4  C   LIG    1       -6.663  -0.617   0.034  0.00  0.00    +0.090 A 
ATOM      5  C   LIG    1       -7.017  -1.963   0.029  0.00  0.00    +0.010 A 
ATOM      6  C   LIG    1       -6.037  -2.932   0.019  0.00  0.00    +0.030 A 
ATOM      7  C   LIG    1       -4.696  -2.581   0.014  0.00  0.00    +0.010 A 
ATOM      8  C   LIG    1       -4.325  -1.254   0.020  0.00  0.00    +0.030 A 
ATOM      9  C   LIG    1       -8.870   0.602   0.052  0.00  0.00    +0.320 C 
ATOM     10  C   LIG    1       -5.304  -0.264   0.022  0.00  0.00    -0.060 A 
ENDROOT
BRANCH   2  11
ATOM     11  C   LIG    1       -7.037   3.042   0.055  0.00  0.00    -0.070 A 
ATOM     12  C   LIG    1       -6.435   3.963   0.916  0.00  0.00    +0.090 A 
ATOM     13  C   LIG    1       -6.854   5.277   0.915  0.00  0.00    +0.010 A 
ATOM     14  C   LIG    1       -7.876   5.681   0.074  0.00  0.00    +0.030 A 
ATOM     15  C   LIG    1       -8.481   4.772  -0.777  0.00  0.00    +0.000 A 
ATOM     16  C   LIG    1       -8.068   3.456  -0.791  0.00  0.00    +0.020 A 
ENDBRANCH   2  11
BRANCH   1  17
ATOM     17  C   LIG    1       -4.109   2.027   0.034  0.00  0.00    +0.450 C 
ATOM     18  O   LIG    1       -4.221   3.236   0.041  0.00  0.00    -0.450 OA
BRANCH  17  19
ATOM     19  C   LIG    1       -2.740   1.397   0.024  0.00  0.00    +0.050 C 
BRANCH  19  20
ATOM     20  S   LIG    1       -1.479   2.695   0.024  0.00  0.00    +0.080 S 
BRANCH  20  24
ATOM     21  C   LIG    1        2.169   1.279  -0.012  0.00  0.00    +0.090 A 
ATOM     22  C   LIG    1        1.764   0.009  -0.015  0.00  0.00    -0.070 A 
ATOM     23  S   LIG    1        0.002  -0.004   0.002  0.00  0.00    +0.130 S 
ATOM     24  C   LIG    1       -0.021   1.705   0.011  0.00  0.00    +0.010 A 
ATOM     25  N   LIG    1        1.191   2.168   0.002  0.00  0.00    -0.430 NA
BRANCH  21  26
ATOM     26  C   LIG    1        3.624   1.670  -0.023  0.00  0.00    +0.220 C 
BRANCH  26  27
ATOM     27  C   LIG    1        3.887   2.593  -1.185  0.00  0.00    +0.460 C 
ATOM     28  O   LIG    1        2.986   2.902  -1.927  0.00  0.00    -0.490 OA
BRANCH  27  29
ATOM     29  O   LIG    1        5.124   3.072  -1.394  0.00  0.00    -0.360 OA
BRANCH  29  31
ATOM     30  C   LIG    1        6.767   4.397  -2.609  0.00  0.00    +0.070 C 
ATOM     31  C   LIG    1        5.304   3.956  -2.532  0.00  0.00    +0.200 C 
ENDBRANCH  29  31
ENDBRANCH  27  29
ENDBRANCH  26  27
ENDBRANCH  21  26
ENDBRANCH  20  24
ENDBRANCH  19  20
ENDBRANCH  17  19
ENDBRANCH   1  17
TORSDOF 9
