REMARK  Name = ZINCvU0000000E9w.0
REMARK                            x       y       z     vdW  Elec       q    Type
REMARK                         _______ _______ _______ _____ _____    ______ ____
ROOT
ATOM      1  C   LIG    1       -1.543   1.438   2.885  0.00  0.00    +0.130 C 
ATOM      2  C   LIG    1       -0.181   0.900   2.526  0.00  0.00    -0.040 A 
ATOM      3  C   LIG    1        0.577   0.226   3.391  0.00  0.00    -0.140 A 
ATOM      4  S   LIG    1        2.096  -0.258   2.661  0.00  0.00    +0.190 S 
ATOM      5  C   LIG    1        1.675   0.487   1.126  0.00  0.00    +0.090 A 
ATOM      6  N   LIG    1        2.347   0.566  -0.029  0.00  0.00    -0.490 NA
ATOM      7  C   LIG    1        1.836   1.182  -1.070  0.00  0.00    +0.520 A 
ATOM      8  N   LIG    1        0.645   1.752  -1.037  0.00  0.00    -0.550 NA
ATOM      9  C   LIG    1       -0.097   1.727   0.060  0.00  0.00    +0.400 A 
ATOM     10  C   LIG    1        0.408   1.074   1.216  0.00  0.00    -0.150 A 
ENDROOT
BRANCH   9  11
ATOM     11  N   LIG    1       -1.345   2.322   0.078  0.00  0.00    -0.480 N 
ATOM     12  C   LIG    1       -2.226   1.728  -0.934  0.00  0.00    +0.200 C 
ATOM     13  C   LIG    1       -3.636   2.306  -0.789  0.00  0.00    +0.050 C 
ATOM     14  C   LIG    1       -3.578   3.826  -0.964  0.00  0.00    -0.020 C 
ATOM     15  C   LIG    1       -2.617   4.416   0.071  0.00  0.00    +0.070 C 
ATOM     16  C   LIG    1       -1.237   3.776  -0.099  0.00  0.00    +0.200 C 
BRANCH  14  17
ATOM     17  C   LIG    1       -4.954   4.409  -0.763  0.00  0.00    +0.520 C 
ATOM     18  N   LIG    1       -5.878   4.308  -1.739  0.00  0.00    -0.600 N 
ATOM     19  C   LIG    1       -7.148   4.974  -1.562  0.00  0.00    +0.270 C 
ATOM     20  C   LIG    1       -8.140   4.032  -0.848  0.00  0.00    +0.010 C 
ATOM     21  C   LIG    1       -8.557   2.950  -1.752  0.00  0.00    +0.000 C 
ATOM     22  C   LIG    1       -7.422   2.035  -2.203  0.00  0.00    +0.000 C 
ATOM     23  C   LIG    1       -6.734   2.644  -3.400  0.00  0.00    +0.020 C 
ATOM     24  C   LIG    1       -5.552   3.518  -2.943  0.00  0.00    +0.260 C 
ATOM     25  O   LIG    1       -5.229   4.968   0.278  0.00  0.00    -0.530 OA
ENDBRANCH  14  17
ENDBRANCH   9  11
BRANCH   3  26
ATOM     26  C   LIG    1        0.188  -0.074   4.785  0.00  0.00    -0.020 A 
ATOM     27  C   LIG    1        1.084   0.160   5.829  0.00  0.00    +0.030 A 
ATOM     28  C   LIG    1        0.713  -0.117   7.129  0.00  0.00    +0.010 A 
ATOM     29  C   LIG    1       -0.541  -0.637   7.397  0.00  0.00    +0.020 A 
ATOM     30  C   LIG    1       -1.432  -0.878   6.366  0.00  0.00    +0.010 A 
ATOM     31  C   LIG    1       -1.075  -0.600   5.063  0.00  0.00    +0.040 A 
ENDBRANCH   3  26
TORSDOF 3
