REMARK  Name = ZINCqH0000037MQz.0
REMARK                            x       y       z     vdW  Elec       q    Type
REMARK                         _______ _______ _______ _____ _____    ______ ____
ROOT
ATOM      1  N   LIG    1       -2.439   1.618   0.023  0.00  0.00    -0.490 N 
ATOM      2  H   LIG    1       -2.525   0.652   0.019  0.00  0.00    +0.440 HD
ATOM      3  C   LIG    1       -1.218   2.187   0.020  0.00  0.00    +0.610 C 
ATOM      4  O   LIG    1       -1.111   3.399   0.026  0.00  0.00    -0.510 OA
ENDROOT
BRANCH   3   5
ATOM      5  C   LIG    1       -0.016   1.344   0.009  0.00  0.00    -0.050 A 
ATOM      6  C   LIG    1        1.285   1.796  -0.001  0.00  0.00    +0.080 A 
ATOM      7  C   LIG    1        2.107   0.664  -0.015  0.00  0.00    +0.000 A 
ATOM      8  C   LIG    1        1.276  -0.434  -0.013  0.00  0.00    +0.080 A 
ATOM      9  O   LIG    1        0.002  -0.004   0.002  0.00  0.00    -0.130 OA
BRANCH   8  10
ATOM     10  C   LIG    1        1.709  -1.841  -0.024  0.00  0.00    +0.160 A 
ATOM     11  N   LIG    1        0.913  -2.859  -0.022  0.00  0.00    -0.440 NA
ATOM     12  C   LIG    1        1.455  -4.081  -0.035  0.00  0.00    +0.080 A 
ATOM     13  C   LIG    1        0.806  -5.337  -0.036  0.00  0.00    +0.080 A 
ATOM     14  C   LIG    1        1.530  -6.489  -0.051  0.00  0.00    +0.030 A 
ATOM     15  C   LIG    1        2.918  -6.457  -0.064  0.00  0.00    +0.050 A 
ATOM     16  C   LIG    1        3.579  -5.249  -0.062  0.00  0.00    +0.070 A 
ATOM     17  C   LIG    1        2.856  -4.058  -0.048  0.00  0.00    -0.170 A 
ATOM     18  S   LIG    1        3.384  -2.377  -0.050  0.00  0.00    +0.130 S 
ENDBRANCH   8  10
ENDBRANCH   3   5
BRANCH   1  19
ATOM     19  N   LIG    1       -3.587   2.422   0.034  0.00  0.00    -0.490 N 
ATOM     20  H   LIG    1       -3.501   3.389   0.038  0.00  0.00    +0.450 HD
BRANCH  19  26
ATOM     21  C   LIG    1       -6.227  -1.576   0.026  0.00  0.00    +0.140 C 
ATOM     22  C   LIG    1       -6.124  -0.073   0.034  0.00  0.00    +0.230 A 
ATOM     23  C   LIG    1       -7.268   0.709   0.044  0.00  0.00    -0.130 A 
ATOM     24  C   LIG    1       -7.129   2.088   0.050  0.00  0.00    +0.230 A 
ATOM     25  N   LIG    1       -5.916   2.614   0.047  0.00  0.00    -0.570 NA
ATOM     26  C   LIG    1       -4.841   1.838   0.037  0.00  0.00    +0.580 A 
ATOM     27  C   LIG    1       -8.346   2.977   0.061  0.00  0.00    +0.140 C 
ATOM     28  N   LIG    1       -4.940   0.517   0.025  0.00  0.00    -0.580 NA
ENDBRANCH  19  26
ENDBRANCH   1  19
TORSDOF 4
