REMARK  Name = ZINCvU0000000IX8.0
REMARK                            x       y       z     vdW  Elec       q    Type
REMARK                         _______ _______ _______ _____ _____    ______ ____
ROOT
ATOM      1  C   LIG    1        2.880  -6.531  -0.041  0.00  0.00    +0.140 A 
ATOM      2  N   LIG    1        4.187  -6.497   0.088  0.00  0.00    -0.290 NA
ATOM      3  N   LIG    1        4.670  -7.684  -0.000  0.00  0.00    -0.250 NA
ATOM      4  C   LIG    1        3.702  -8.548  -0.200  0.00  0.00    +0.230 A 
ATOM      5  N   LIG    1        2.526  -7.836  -0.233  0.00  0.00    -0.450 N 
ENDROOT
BRANCH   4   6
ATOM      6  C   LIG    1        3.849 -10.011  -0.360  0.00  0.00    -0.010 A 
ATOM      7  C   LIG    1        3.042 -10.880   0.375  0.00  0.00    +0.040 A 
ATOM      8  C   LIG    1        3.181 -12.244   0.217  0.00  0.00    +0.030 A 
ATOM      9  C   LIG    1        4.124 -12.751  -0.659  0.00  0.00    +0.050 A 
ATOM     10  C   LIG    1        4.930 -11.895  -1.388  0.00  0.00    +0.030 A 
ATOM     11  C   LIG    1        4.799 -10.528  -1.244  0.00  0.00    +0.000 A 
ATOM     12 CL   LIG    1        5.812  -9.455  -2.158  0.00  0.00    -0.040 Cl
ENDBRANCH   4   6
BRANCH   1  13
ATOM     13  S   LIG    1        1.788  -5.149   0.014  0.00  0.00    +0.090 S 
BRANCH  13  14
ATOM     14  C   LIG    1        2.981  -3.817   0.293  0.00  0.00    +0.130 C 
BRANCH  14  17
ATOM     15  N   LIG    1        2.942  -1.360   0.582  0.00  0.00    -0.620 N 
ATOM     16  H   LIG    1        3.908  -1.388   0.676  0.00  0.00    +0.420 HD
ATOM     17  C   LIG    1        2.253  -2.500   0.377  0.00  0.00    +0.530 C 
ATOM     18  O   LIG    1        1.046  -2.466   0.260  0.00  0.00    -0.480 OA
BRANCH  15  20
ATOM     19  C   LIG    1        2.876   1.065   0.865  0.00  0.00    -0.110 A 
ATOM     20  C   LIG    1        2.272  -0.147   0.659  0.00  0.00    +0.050 A 
ATOM     21  S   LIG    1        0.584   0.038   0.511  0.00  0.00    +0.320 S 
ATOM     22  C   LIG    1        0.678   1.776   0.728  0.00  0.00    -0.100 A 
ATOM     23  C   LIG    1        1.935   2.162   0.901  0.00  0.00    +0.080 A 
BRANCH  19  25
ATOM     24  N   LIG    1        5.411   1.357   1.155  0.00  0.00    -0.420 NA
ATOM     25  C   LIG    1        4.289   1.228   1.027  0.00  0.00    +0.270 C 
ENDBRANCH  19  25
ENDBRANCH  15  20
ENDBRANCH  14  17
ENDBRANCH  13  14
ENDBRANCH   1  13
BRANCH   5  26
ATOM     26  C   LIG    1        1.175  -8.367  -0.430  0.00  0.00    +0.360 C 
BRANCH  26  27
ATOM     27  C   LIG    1        0.864  -8.412  -1.904  0.00  0.00    -0.130 A 
ATOM     28  C   LIG    1        0.288  -7.319  -2.524  0.00  0.00    +0.040 A 
ATOM     29  C   LIG    1        0.008  -7.359  -3.877  0.00  0.00    +0.010 A 
ATOM     30  C   LIG    1        0.293  -8.497  -4.608  0.00  0.00    +0.030 A 
ATOM     31  C   LIG    1        0.864  -9.592  -3.988  0.00  0.00    +0.010 A 
ATOM     32  C   LIG    1        1.149  -9.550  -2.636  0.00  0.00    +0.030 A 
ENDBRANCH  26  27
ENDBRANCH   5  26
TORSDOF 8
