REMARK  Name = ZINCpe000000YBfK.0
REMARK                            x       y       z     vdW  Elec       q    Type
REMARK                         _______ _______ _______ _____ _____    ______ ____
ROOT
ATOM      1  N   LIG    1       -2.062   0.977   1.338  0.00  0.00    -0.700 N 
ATOM      2  H   LIG    1       -2.237   0.133   0.893  0.00  0.00    +0.410 HD
ATOM      3  C   LIG    1       -3.046   1.595   2.021  0.00  0.00    +0.520 C 
ATOM      4  O   LIG    1       -2.827   2.650   2.577  0.00  0.00    -0.530 OA
ENDROOT
BRANCH   1   5
ATOM      5  C   LIG    1       -0.729   1.579   1.267  0.00  0.00    +0.260 C 
BRANCH   5   9
ATOM      6  N   LIG    1        1.331   1.625   2.635  0.00  0.00    -0.850 N 
ATOM      7  H   LIG    1        1.843   1.371   3.419  0.00  0.00    +0.400 HD
ATOM      8  H   LIG    1        1.729   2.197   1.960  0.00  0.00    +0.400 HD
ATOM      9  C   LIG    1        0.067   1.185   2.485  0.00  0.00    +0.510 C 
ATOM     10  O   LIG    1       -0.431   0.470   3.329  0.00  0.00    -0.530 OA
ENDBRANCH   5   9
BRANCH   5  11
ATOM     11  C   LIG    1       -0.013   1.086   0.008  0.00  0.00    +0.110 C 
BRANCH  11  12
ATOM     12  C   LIG    1       -0.742   1.585  -1.213  0.00  0.00    -0.090 A 
ATOM     13  C   LIG    1       -1.750   0.825  -1.775  0.00  0.00    +0.010 A 
ATOM     14  C   LIG    1       -2.422   1.285  -2.892  0.00  0.00    +0.000 A 
ATOM     15  C   LIG    1       -2.078   2.501  -3.453  0.00  0.00    +0.000 A 
ATOM     16  C   LIG    1       -1.066   3.259  -2.894  0.00  0.00    +0.000 A 
ATOM     17  C   LIG    1       -0.398   2.801  -1.774  0.00  0.00    +0.010 A 
ENDBRANCH  11  12
ENDBRANCH   5  11
ENDBRANCH   1   5
BRANCH   3  18
ATOM     18  C   LIG    1       -4.417   0.975   2.095  0.00  0.00    +0.320 C 
BRANCH  18  19
ATOM     19  N   LIG    1       -5.300   1.834   2.888  0.00  0.00    -0.740 N 
ATOM     20  H   LIG    1       -4.960   2.659   3.269  0.00  0.00    +0.410 HD
ATOM     21  C   LIG    1       -6.584   1.478   3.090  0.00  0.00    +0.710 C 
ATOM     22  N   LIG    1       -7.396   2.268   3.820  0.00  0.00    -0.740 N 
ATOM     23  H   LIG    1       -7.056   3.093   4.200  0.00  0.00    +0.400 HD
ATOM     24  O   LIG    1       -7.010   0.444   2.613  0.00  0.00    -0.590 OA
BRANCH  22  25
ATOM     25  C   LIG    1       -8.791   1.881   4.039  0.00  0.00    +0.250 C 
ATOM     26  C   LIG    1       -9.642   2.349   2.857  0.00  0.00    +0.000 C 
ATOM     27  C   LIG    1      -11.100   1.944   3.086  0.00  0.00    +0.000 C 
ATOM     28  C   LIG    1      -11.613   2.594   4.372  0.00  0.00    +0.000 C 
ATOM     29  C   LIG    1      -10.762   2.126   5.555  0.00  0.00    +0.020 C 
ATOM     30  C   LIG    1       -9.305   2.531   5.326  0.00  0.00    +0.010 C 
ENDBRANCH  22  25
ENDBRANCH  18  19
ENDBRANCH   3  18
TORSDOF 7
