REMARK  Name = ZINCrg000000rxF8.0
REMARK                            x       y       z     vdW  Elec       q    Type
REMARK                         _______ _______ _______ _____ _____    ______ ____
ROOT
ATOM      1  C   LIG    1       -0.164   7.585  -3.730  0.00  0.00    +0.020 C 
ATOM      2  C   LIG    1        1.164   7.855  -3.020  0.00  0.00    +0.180 C 
ENDROOT
BRANCH   2   3
ATOM      3  N   LIG    1        1.433   9.300  -3.016  0.00  0.00    -0.520 NA
ATOM      4  C   LIG    1        0.353  10.034  -2.341  0.00  0.00    +0.200 C 
ATOM      5  C   LIG    1        0.707  11.522  -2.288  0.00  0.00    +0.220 C 
ATOM      6  N   LIG    1        0.908  12.024  -3.655  0.00  0.00    -0.460 N 
ATOM      7  C   LIG    1        1.987  11.290  -4.330  0.00  0.00    +0.220 C 
ATOM      8  C   LIG    1        1.633   9.802  -4.383  0.00  0.00    +0.190 C 
BRANCH   6   9
ATOM      9  C   LIG    1        1.161  13.385  -3.651  0.00  0.00    +0.490 A 
ATOM     10  N   LIG    1        2.272  13.838  -4.212  0.00  0.00    -0.550 NA
ATOM     11  C   LIG    1        2.541  15.133  -4.231  0.00  0.00    +0.340 A 
ATOM     12  C   LIG    1        1.649  16.017  -3.644  0.00  0.00    -0.110 A 
ATOM     13  C   LIG    1        0.499  15.509  -3.061  0.00  0.00    +0.340 A 
ATOM     14  N   LIG    1        0.288  14.203  -3.082  0.00  0.00    -0.530 NA
ENDBRANCH   6   9
ENDBRANCH   2   3
BRANCH   2  15
ATOM     15  C   LIG    1        1.086   7.355  -1.601  0.00  0.00    +0.520 C 
ATOM     16  N   LIG    1        0.847   6.051  -1.358  0.00  0.00    -0.730 N 
ATOM     17  H   LIG    1        0.725   5.435  -2.097  0.00  0.00    +0.400 HD
ATOM     18  O   LIG    1        1.239   8.126  -0.677  0.00  0.00    -0.520 OA
BRANCH  16  19
ATOM     19  C   LIG    1        0.771   5.565   0.022  0.00  0.00    +0.330 C 
BRANCH  19  20
ATOM     20  C   LIG    1        0.496   4.083   0.018  0.00  0.00    -0.100 A 
ATOM     21  C   LIG    1       -0.808   3.624   0.028  0.00  0.00    +0.050 A 
ATOM     22  C   LIG    1       -1.065   2.265   0.019  0.00  0.00    +0.040 A 
ATOM     23  C   LIG    1       -0.016   1.361   0.009  0.00  0.00    +0.040 A 
ATOM     24  O   LIG    1        0.002  -0.004   0.002  0.00  0.00    -0.310 OA
ATOM     25  C   LIG    1        1.336  -0.373   0.399  0.00  0.00    +0.430 C 
ATOM     26  O   LIG    1        2.139   0.749  -0.014  0.00  0.00    -0.310 OA
ATOM     27  C   LIG    1        1.297   1.824  -0.001  0.00  0.00    +0.030 A 
ATOM     28  C   LIG    1        1.548   3.186   0.004  0.00  0.00    +0.060 A 
ENDBRANCH  19  20
ENDBRANCH  16  19
ENDBRANCH   2  15
TORSDOF 5
