REMARK  Name = ZINCrg000000shuM.0
REMARK                            x       y       z     vdW  Elec       q    Type
REMARK                         _______ _______ _______ _____ _____    ______ ____
ROOT
ATOM      1  C   LIG    1       -5.466  -1.165  -2.083  0.00  0.00    +0.520 C 
ATOM      2  N   LIG    1       -4.252  -0.946  -1.539  0.00  0.00    -0.610 N 
ATOM      3  C   LIG    1       -3.155  -1.901  -1.750  0.00  0.00    +0.280 C 
ATOM      4  C   LIG    1       -2.619  -2.341  -0.382  0.00  0.00    +0.290 C 
ATOM      5  N   LIG    1       -2.369  -1.143   0.433  0.00  0.00    -1.010 NA
ATOM      6  C   LIG    1       -3.469  -0.192   0.648  0.00  0.00    +0.280 C 
ATOM      7  C   LIG    1       -4.003   0.251  -0.724  0.00  0.00    +0.270 C 
ATOM      8  O   LIG    1       -5.660  -2.157  -2.754  0.00  0.00    -0.520 OA
ENDROOT
BRANCH   5   9
ATOM      9  S   LIG    1       -0.879  -0.875   1.101  0.00  0.00    +2.780 S 
ATOM     10  O   LIG    1       -1.087  -0.019   2.216  0.00  0.00    -0.970 OA
ATOM     11  O   LIG    1       -0.250  -2.145   1.204  0.00  0.00    -0.970 OA
BRANCH   9  12
ATOM     12  N   LIG    1        0.002  -0.004   0.002  0.00  0.00    -1.010 NA
ATOM     13  C   LIG    1       -0.018   1.467   0.010  0.00  0.00    +0.270 C 
ATOM     14  C   LIG    1        1.430   1.970  -0.001  0.00  0.00    +0.140 C 
ATOM     15  O   LIG    1        2.135   1.351  -1.079  0.00  0.00    -0.370 OA
ATOM     16  C   LIG    1        2.234  -0.071  -0.974  0.00  0.00    +0.140 C 
ATOM     17  C   LIG    1        3.058  -0.615  -2.143  0.00  0.00    +0.070 C 
ATOM     18  C   LIG    1        1.442   3.489  -0.188  0.00  0.00    +0.070 C 
ATOM     19  C   LIG    1        0.827  -0.679  -1.012  0.00  0.00    +0.270 C 
ENDBRANCH   9  12
ENDBRANCH   5   9
BRANCH   1  20
ATOM     20  C   LIG    1       -6.582  -0.177  -1.858  0.00  0.00    +0.100 C 
BRANCH  20  27
ATOM     21  C   LIG    1       -8.356  -2.056  -0.566  0.00  0.00    +0.080 C 
ATOM     22  C   LIG    1       -8.672  -1.551  -1.950  0.00  0.00    -0.070 A 
ATOM     23  C   LIG    1       -9.811  -1.986  -2.601  0.00  0.00    +0.000 A 
ATOM     24  C   LIG    1      -10.101  -1.523  -3.870  0.00  0.00    +0.010 A 
ATOM     25  C   LIG    1       -9.253  -0.624  -4.489  0.00  0.00    +0.000 A 
ATOM     26  C   LIG    1       -8.116  -0.185  -3.836  0.00  0.00    +0.020 A 
ATOM     27  C   LIG    1       -7.823  -0.652  -2.568  0.00  0.00    -0.070 A 
ENDBRANCH  20  27
ENDBRANCH   1  20
TORSDOF 4
