REMARK  Name = ZINCrD00000rTL2a.0
REMARK                            x       y       z     vdW  Elec       q    Type
REMARK                         _______ _______ _______ _____ _____    ______ ____
ROOT
ATOM      1  O   LIG    1       -2.070   4.524  -0.050  0.00  0.00    -0.230 OA
ENDROOT
BRANCH   1   6
ATOM      2  C   LIG    1        0.664   2.474   1.212  0.00  0.00    +0.150 A 
ATOM      3  C   LIG    1        0.925   1.684   0.100  0.00  0.00    +0.020 A 
ATOM      4  C   LIG    1        0.183   1.848  -1.055  0.00  0.00    +0.050 A 
ATOM      5  C   LIG    1       -0.819   2.797  -1.106  0.00  0.00    +0.020 A 
ATOM      6  C   LIG    1       -1.084   3.590   0.002  0.00  0.00    +0.100 A 
ATOM      7  C   LIG    1       -0.346   3.425   1.164  0.00  0.00    +0.020 A 
BRANCH   2  14
ATOM      8  O   LIG    1       -0.370   1.503   3.353  0.00  0.00    -0.540 OA
ATOM      9  C   LIG    1        0.797   1.817   3.456  0.00  0.00    +0.520 C 
ATOM     10  C   LIG    1        1.469   1.628   4.785  0.00  0.00    +0.070 C 
ATOM     11  C   LIG    1        2.990   1.663   4.610  0.00  0.00    +0.020 C 
ATOM     12  C   LIG    1        3.353   2.892   3.768  0.00  0.00    +0.020 C 
ATOM     13  C   LIG    1        2.821   2.688   2.349  0.00  0.00    +0.260 C 
ATOM     14  N   LIG    1        1.415   2.308   2.381  0.00  0.00    -0.560 N 
ENDBRANCH   2  14
ENDBRANCH   1   6
BRANCH   1  15
ATOM     15  C   LIG    1       -1.710   5.822  -0.197  0.00  0.00    +0.390 A 
ATOM     16  C   LIG    1       -2.667   6.829  -0.149  0.00  0.00    -0.100 A 
ATOM     17  C   LIG    1       -2.247   8.146  -0.299  0.00  0.00    +0.390 A 
ATOM     18  N   LIG    1       -0.955   8.393  -0.492  0.00  0.00    -0.590 NA
ATOM     19  C   LIG    1       -0.078   7.411  -0.536  0.00  0.00    +0.580 A 
ATOM     20  N   LIG    1       -0.436   6.151  -0.393  0.00  0.00    -0.580 NA
BRANCH  17  21
ATOM     21  O   LIG    1       -3.143   9.162  -0.254  0.00  0.00    -0.290 OA
BRANCH  21  22
ATOM     22  C   LIG    1       -2.631  10.486  -0.423  0.00  0.00    +0.190 C 
ATOM     23  C   LIG    1       -2.259  11.069   0.944  0.00  0.00    -0.010 C 
ATOM     24  C   LIG    1       -1.788  12.515   0.762  0.00  0.00    +0.230 C 
ATOM     25  O   LIG    1       -2.817  13.275   0.126  0.00  0.00    -0.380 OA
ATOM     26  C   LIG    1       -3.171  12.803  -1.176  0.00  0.00    +0.240 C 
ATOM     27  C   LIG    1       -3.700  11.370  -1.071  0.00  0.00    +0.010 C 
ENDBRANCH  21  22
ENDBRANCH  17  21
ENDBRANCH   1  15
TORSDOF 5
