REMARK  Name = ZINCpe000027pH0f.0
REMARK                            x       y       z     vdW  Elec       q    Type
REMARK                         _______ _______ _______ _____ _____    ______ ____
ROOT
ATOM      1  N   LIG    1       -1.209   7.100   2.631  0.00  0.00    -0.720 N 
ATOM      2  H   LIG    1       -0.539   7.134   3.332  0.00  0.00    +0.400 HD
ATOM      3  C   LIG    1       -2.145   8.066   2.545  0.00  0.00    +0.550 C 
ATOM      4  O   LIG    1       -2.985   8.023   1.666  0.00  0.00    -0.530 OA
ENDROOT
BRANCH   3   5
ATOM      5  C   LIG    1       -2.151   9.167   3.510  0.00  0.00    -0.050 C 
ATOM      6  C   LIG    1       -3.086  10.134   3.424  0.00  0.00    +0.110 C 
BRANCH   6   7
ATOM      7  C   LIG    1       -3.092  11.241   4.394  0.00  0.00    -0.020 A 
ATOM      8  C   LIG    1       -2.132  11.291   5.410  0.00  0.00    +0.040 A 
ATOM      9  C   LIG    1       -2.141  12.334   6.311  0.00  0.00    +0.110 A 
ATOM     10  C   LIG    1       -3.104  13.324   6.220  0.00  0.00    -0.040 A 
ATOM     11  C   LIG    1       -4.061  13.279   5.221  0.00  0.00    +0.110 A 
ATOM     12  C   LIG    1       -4.061  12.245   4.309  0.00  0.00    +0.060 A 
BRANCH  10  13
ATOM     13  N   LIG    1       -3.110  14.437   7.196  0.00  0.00    +0.020 N 
ATOM     14  O   LIG    1       -2.270  14.480   8.076  0.00  0.00    -0.160 OA
ATOM     15  O   LIG    1       -3.956  15.310   7.118  0.00  0.00    -0.150 OA
ENDBRANCH  10  13
ENDBRANCH   6   7
ENDBRANCH   3   5
BRANCH   1  16
ATOM     16  C   LIG    1       -1.203   5.998   1.666  0.00  0.00    +0.270 C 
BRANCH  16  17
ATOM     17  C   LIG    1       -0.048   5.047   1.984  0.00  0.00    +0.170 C 
BRANCH  17  23
ATOM     18  C   LIG    1       -1.293  -0.775   0.010  0.00  0.00    +0.100 C 
ATOM     19  C   LIG    1        0.002  -0.004   0.002  0.00  0.00    +0.510 C 
ATOM     20  N   LIG    1       -0.016   1.344   0.009  0.00  0.00    -0.620 N 
ATOM     21  C   LIG    1       -1.289   2.081   0.019  0.00  0.00    +0.280 C 
ATOM     22  C   LIG    1       -1.242   3.107   1.163  0.00  0.00    +0.160 C 
ATOM     23  N   LIG    1       -0.042   3.942   1.016  0.00  0.00    -0.530 NA
ATOM     24  C   LIG    1        1.183   3.140   1.140  0.00  0.00    +0.170 C 
ATOM     25  C   LIG    1        1.236   2.116   0.002  0.00  0.00    +0.290 C 
ATOM     26  O   LIG    1        1.060  -0.596  -0.011  0.00  0.00    -0.540 OA
ENDBRANCH  17  23
ENDBRANCH  16  17
ENDBRANCH   1  16
TORSDOF 6
