REMARK  Name = ZINCrD000000fEaT.1
REMARK                            x       y       z     vdW  Elec       q    Type
REMARK                         _______ _______ _______ _____ _____    ______ ____
ROOT
ATOM      1  C   LIG    1        2.651  -2.320   0.051  0.00  0.00    +0.350 C 
ENDROOT
BRANCH   1   2
ATOM      2  C   LIG    1        2.751  -3.817   0.195  0.00  0.00    +0.020 A 
ATOM      3  C   LIG    1        2.889  -4.624  -0.861  0.00  0.00    -0.040 A 
ATOM      4  S   LIG    1        2.972  -6.286  -0.278  0.00  0.00    +0.150 S 
ATOM      5  C   LIG    1        2.797  -5.708   1.377  0.00  0.00    +0.130 A 
ATOM      6  N   LIG    1        2.702  -4.409   1.366  0.00  0.00    -0.450 NA
BRANCH   5   7
ATOM      7  C   LIG    1        2.765  -6.561   2.584  0.00  0.00    -0.050 A 
ATOM      8  C   LIG    1        2.628  -5.983   3.847  0.00  0.00    +0.080 A 
ATOM      9  C   LIG    1        2.593  -6.784   4.970  0.00  0.00    +0.010 A 
ATOM     10  C   LIG    1        2.705  -8.158   4.846  0.00  0.00    -0.050 A 
ATOM     11  C   LIG    1        2.847  -8.737   3.597  0.00  0.00    +0.010 A 
ATOM     12  C   LIG    1        2.878  -7.947   2.467  0.00  0.00    +0.030 A 
BRANCH  10  13
ATOM     13  C   LIG    1        2.672  -9.027   6.077  0.00  0.00    +0.020 C 
ATOM     14  C   LIG    1        1.343  -8.826   6.807  0.00  0.00    +0.030 C 
ATOM     15  C   LIG    1        3.827  -8.642   7.004  0.00  0.00    +0.030 C 
ENDBRANCH  10  13
ENDBRANCH   5   7
ENDBRANCH   1   2
BRANCH   1  16
ATOM     16  N   LIG    1        1.237  -1.928  -0.023  0.00  0.00    -0.360 N 
ATOM     17  H   LIG    1        0.688  -2.711  -0.344  0.00  0.00    +0.430 HD
BRANCH  16  18
ATOM     18  C   LIG    1        0.772  -1.517   1.308  0.00  0.00    +0.070 C 
ATOM     19  C   LIG    1        1.160  -2.583   2.335  0.00  0.00    +0.090 C 
BRANCH  18  20
ATOM     20  C   LIG    1       -0.727  -1.359   1.290  0.00  0.00    +0.490 C 
ATOM     21  O   LIG    1       -1.257  -0.496   1.969  0.00  0.00    -0.640 OA
ATOM     22  O   LIG    1       -1.409  -2.094   0.597  0.00  0.00    -0.660 OA
ENDBRANCH  18  20
ENDBRANCH  16  18
BRANCH  16  23
ATOM     23  C   LIG    1        1.088  -0.808  -0.962  0.00  0.00    +0.240 C 
BRANCH  23  24
ATOM     24  C   LIG    1       -0.393  -0.615  -1.295  0.00  0.00    +0.300 C 
BRANCH  24  27
ATOM     25  C   LIG    1       -1.901   1.859  -3.797  0.00  0.00    +0.110 C 
ATOM     26  C   LIG    1       -1.756   0.776  -2.758  0.00  0.00    +0.510 C 
ATOM     27  N   LIG    1       -0.533   0.437  -2.305  0.00  0.00    -0.740 N 
ATOM     28  H   LIG    1        0.254   0.886  -2.650  0.00  0.00    +0.400 HD
ATOM     29  O   LIG    1       -2.740   0.211  -2.331  0.00  0.00    -0.520 OA
ENDBRANCH  24  27
ENDBRANCH  23  24
ENDBRANCH  16  23
ENDBRANCH   1  16
TORSDOF 9
