REMARK  Name = ZINCrD000000fEaT.2
REMARK                            x       y       z     vdW  Elec       q    Type
REMARK                         _______ _______ _______ _____ _____    ______ ____
ROOT
ATOM      1  C   LIG    1       -2.645   5.201   6.394  0.00  0.00    +0.380 C 
ENDROOT
BRANCH   1   2
ATOM      2  C   LIG    1       -2.614   3.727   6.703  0.00  0.00    +0.010 A 
ATOM      3  C   LIG    1       -3.685   3.077   7.172  0.00  0.00    +0.040 A 
ATOM      4  S   LIG    1       -3.247   1.384   7.397  0.00  0.00    +0.130 S 
ATOM      5  C   LIG    1       -1.617   1.735   6.829  0.00  0.00    +0.100 A 
ATOM      6  N   LIG    1       -1.534   3.000   6.529  0.00  0.00    -0.460 NA
BRANCH   5   7
ATOM      7  C   LIG    1       -0.521   0.751   6.705  0.00  0.00    -0.030 A 
ATOM      8  C   LIG    1       -0.733  -0.583   7.059  0.00  0.00    +0.040 A 
ATOM      9  C   LIG    1        0.294  -1.496   6.942  0.00  0.00    +0.020 A 
ATOM     10  C   LIG    1        1.532  -1.093   6.475  0.00  0.00    -0.060 A 
ATOM     11  C   LIG    1        1.751   0.228   6.128  0.00  0.00    +0.010 A 
ATOM     12  C   LIG    1        0.731   1.151   6.235  0.00  0.00    +0.060 A 
BRANCH  10  13
ATOM     13  C   LIG    1        2.650  -2.096   6.350  0.00  0.00    +0.020 C 
ATOM     14  C   LIG    1        3.107  -2.171   4.892  0.00  0.00    +0.030 C 
ATOM     15  C   LIG    1        3.824  -1.665   7.231  0.00  0.00    +0.030 C 
ENDBRANCH  10  13
ENDBRANCH   5   7
ENDBRANCH   1   2
BRANCH   1  16
ATOM     16  N   LIG    1       -2.146   5.955   7.552  0.00  0.00    -0.350 N 
ATOM     17  H   LIG    1       -1.139   5.899   7.582  0.00  0.00    +0.410 HD
BRANCH  16  18
ATOM     18  C   LIG    1       -2.705   5.384   8.785  0.00  0.00    +0.070 C 
ATOM     19  C   LIG    1       -1.930   4.119   9.158  0.00  0.00    +0.060 C 
BRANCH  18  20
ATOM     20  C   LIG    1       -4.155   5.039   8.566  0.00  0.00    +0.510 C 
ATOM     21  O   LIG    1       -4.738   4.322   9.362  0.00  0.00    -0.630 OA
ATOM     22  O   LIG    1       -4.747   5.477   7.594  0.00  0.00    -0.670 OA
ENDBRANCH  18  20
ENDBRANCH  16  18
BRANCH  16  23
ATOM     23  C   LIG    1       -2.555   7.361   7.434  0.00  0.00    +0.260 C 
BRANCH  23  24
ATOM     24  C   LIG    1       -1.739   8.213   8.409  0.00  0.00    +0.260 C 
BRANCH  24  27
ATOM     25  C   LIG    1       -1.979  11.996   8.938  0.00  0.00    +0.110 C 
ATOM     26  C   LIG    1       -1.560  10.554   9.059  0.00  0.00    +0.520 C 
ATOM     27  N   LIG    1       -2.147   9.615   8.291  0.00  0.00    -0.730 N 
ATOM     28  H   LIG    1       -2.839   9.867   7.661  0.00  0.00    +0.410 HD
ATOM     29  O   LIG    1       -0.694  10.238   9.847  0.00  0.00    -0.540 OA
ENDBRANCH  24  27
ENDBRANCH  23  24
ENDBRANCH  16  23
ENDBRANCH   1  16
TORSDOF 9
