REMARK  Name = ZINCpe000000SURI.0
REMARK                            x       y       z     vdW  Elec       q    Type
REMARK                         _______ _______ _______ _____ _____    ______ ____
ROOT
ATOM      1  C   LIG    1       -0.188   5.345  -0.258  0.00  0.00    +0.520 C 
ATOM      2  N   LIG    1        0.743   6.196   0.217  0.00  0.00    -0.640 N 
ATOM      3  H   LIG    1        1.461   5.865   0.780  0.00  0.00    +0.410 HD
ATOM      4  O   LIG    1       -1.085   5.759  -0.961  0.00  0.00    -0.520 OA
ENDROOT
BRANCH   1   7
ATOM      5  C   LIG    1       -1.281   1.688  -0.095  0.00  0.00    +0.220 C 
ATOM      6  C   LIG    1       -1.267   3.131  -0.595  0.00  0.00    +0.070 C 
ATOM      7  C   LIG    1       -0.114   3.879   0.086  0.00  0.00    +0.000 C 
ATOM      8  C   LIG    1        1.207   3.297  -0.422  0.00  0.00    +0.090 C 
ATOM      9  C   LIG    1        1.171   1.798  -0.335  0.00  0.00    +0.520 C 
ATOM     10  O   LIG    1        2.223   1.195  -0.383  0.00  0.00    -0.550 OA
ATOM     11  N   LIG    1        0.046   1.094  -0.207  0.00  0.00    -0.710 N 
ATOM     12  H   LIG    1        0.114   0.127  -0.192  0.00  0.00    +0.400 HD
BRANCH   5  13
ATOM     13  C   LIG    1       -2.272   0.872  -0.928  0.00  0.00    +0.010 C 
BRANCH  13  15
ATOM     14  C   LIG    1       -4.652   0.707  -1.670  0.00  0.00    +0.020 C 
ATOM     15  C   LIG    1       -3.683   1.427  -0.730  0.00  0.00    -0.020 C 
ATOM     16  C   LIG    1       -4.120   1.205   0.720  0.00  0.00    +0.030 C 
ENDBRANCH  13  15
ENDBRANCH   5  13
ENDBRANCH   1   7
BRANCH   2  17
ATOM     17  C   LIG    1        0.675   7.565  -0.103  0.00  0.00    +0.000 A 
ATOM     18  C   LIG    1        1.542   8.526   0.305  0.00  0.00    +0.200 A 
ATOM     19  N   LIG    1        1.123   9.706  -0.221  0.00  0.00    -0.360 N 
ATOM     20  N   LIG    1       -0.033   9.457  -0.971  0.00  0.00    -0.280 NA
ATOM     21  C   LIG    1       -0.298   8.177  -0.907  0.00  0.00    +0.270 A 
BRANCH  19  22
ATOM     22  C   LIG    1        1.766  11.009  -0.035  0.00  0.00    +0.280 C 
ATOM     23  C   LIG    1        2.933  11.184  -1.036  0.00  0.00    +0.060 C 
ATOM     24  C   LIG    1        3.965  11.957  -0.181  0.00  0.00    +0.270 C 
ATOM     25  N   LIG    1        3.656  11.615   1.213  0.00  0.00    -0.720 N 
ATOM     26  H   LIG    1        4.262  11.753   1.957  0.00  0.00    +0.420 HD
ATOM     27  C   LIG    1        2.425  11.086   1.324  0.00  0.00    +0.510 C 
ATOM     28  O   LIG    1        1.917  10.722   2.364  0.00  0.00    -0.510 OA
ENDBRANCH  19  22
ENDBRANCH   2  17
TORSDOF 5
