REMARK  Name = ZINCpe000000VVLM.0
REMARK                            x       y       z     vdW  Elec       q    Type
REMARK                         _______ _______ _______ _____ _____    ______ ____
ROOT
ATOM      1  C   LIG    1       -5.375   3.161   0.045  0.00  0.00    +0.510 C 
ATOM      2  N   LIG    1       -4.082   2.781   0.036  0.00  0.00    -0.630 N 
ATOM      3  H   LIG    1       -3.380   3.450   0.037  0.00  0.00    +0.440 HD
ATOM      4  O   LIG    1       -6.253   2.324   0.044  0.00  0.00    -0.480 OA
ENDROOT
BRANCH   2   5
ATOM      5  C   LIG    1       -3.753   1.423   0.028  0.00  0.00    +0.320 A 
ATOM      6  N   LIG    1       -4.593   0.409   0.026  0.00  0.00    -0.260 NA
ATOM      7  N   LIG    1       -3.824  -0.763   0.016  0.00  0.00    -0.290 N 
ATOM      8  H   LIG    1       -4.176  -1.667   0.013  0.00  0.00    +0.480 HD
ATOM      9  N   LIG    1       -2.577  -0.446   0.006  0.00  0.00    -0.180 NA
ATOM     10  C   LIG    1       -2.455   0.869   0.018  0.00  0.00    -0.090 A 
BRANCH  10  11
ATOM     11  C   LIG    1       -1.187   1.624   0.017  0.00  0.00    +0.620 C 
ATOM     12  O   LIG    1       -1.204   2.840   0.023  0.00  0.00    -0.540 OA
ATOM     13  N   LIG    1       -0.011   0.966   0.007  0.00  0.00    -0.830 N 
ATOM     14  H   LIG    1        0.822   1.462   0.002  0.00  0.00    +0.410 HD
ATOM     15  H   LIG    1        0.002  -0.004   0.002  0.00  0.00    +0.410 HD
ENDBRANCH  10  11
ENDBRANCH   2   5
BRANCH   1  16
ATOM     16  C   LIG    1       -5.730   4.626   0.054  0.00  0.00    +0.090 C 
BRANCH  16  17
ATOM     17  C   LIG    1       -7.252   4.781   0.062  0.00  0.00    +0.070 C 
BRANCH  17  18
ATOM     18  C   LIG    1       -7.613   6.268   0.072  0.00  0.00    +0.200 C 
BRANCH  18  19
ATOM     19  O   LIG    1       -9.034   6.414   0.080  0.00  0.00    -0.310 OA
BRANCH  19  23
ATOM     20  C   LIG    1      -10.523  10.261   0.108  0.00  0.00    -0.120 A 
ATOM     21  C   LIG    1      -11.391   9.185   0.106  0.00  0.00    +0.060 A 
ATOM     22  C   LIG    1      -10.895   7.896   0.097  0.00  0.00    -0.020 A 
ATOM     23  C   LIG    1       -9.525   7.681   0.089  0.00  0.00    +0.130 A 
ATOM     24  C   LIG    1       -8.656   8.762   0.096  0.00  0.00    -0.080 A 
ATOM     25  C   LIG    1       -9.157  10.050   0.100  0.00  0.00    +0.060 A 
BRANCH  20  26
ATOM     26  C   LIG    1      -11.067  11.666   0.118  0.00  0.00    +0.090 C 
BRANCH  26  27
ATOM     27  C   LIG    1      -11.244  12.134   1.564  0.00  0.00    +0.170 C 
BRANCH  27  29
ATOM     28  C   LIG    1      -11.963  14.002   2.883  0.00  0.00    +0.200 C 
ATOM     29  O   LIG    1      -11.760  13.467   1.573  0.00  0.00    -0.390 OA
ENDBRANCH  27  29
ENDBRANCH  26  27
ENDBRANCH  20  26
ENDBRANCH  19  23
ENDBRANCH  18  19
ENDBRANCH  17  18
ENDBRANCH  16  17
ENDBRANCH   1  16
TORSDOF 10
