REMARK  Name = ZINCb80000002ycy.0
REMARK                            x       y       z     vdW  Elec       q    Type
REMARK                         _______ _______ _______ _____ _____    ______ ____
ROOT
ATOM      1  C   LIG    1       -0.020   3.774   0.022  0.00  0.00    +0.390 A 
ATOM      2  N   LIG    1        1.112   3.122   0.008  0.00  0.00    -0.510 NA
ATOM      3  C   LIG    1        1.149   1.787   0.001  0.00  0.00    +0.180 A 
ATOM      4  C   LIG    1       -0.013   1.076   0.008  0.00  0.00    -0.140 A 
ATOM      5  C   LIG    1       -1.235   1.779   0.018  0.00  0.00    +0.530 A 
ATOM      6  O   LIG    1       -2.298   1.181   0.019  0.00  0.00    -0.540 OA
ATOM      7  C   LIG    1        2.474   1.069  -0.016  0.00  0.00    +0.150 C 
ATOM      8  N   LIG    1       -1.203   3.129   0.029  0.00  0.00    -0.630 N 
ATOM      9  H   LIG    1       -2.031   3.634   0.039  0.00  0.00    +0.420 HD
ENDROOT
BRANCH   1  10
ATOM     10  C   LIG    1       -0.002   5.280   0.029  0.00  0.00    +0.290 C 
BRANCH  10  12
ATOM     11  C   LIG    1        1.481   7.164   0.023  0.00  0.00    +0.230 C 
ATOM     12  O   LIG    1        1.351   5.741   0.018  0.00  0.00    -0.360 OA
ENDBRANCH  10  12
ENDBRANCH   1  10
TORSDOF 2
