REMARK  Name = ZINCrg000000pYsV.0
REMARK                            x       y       z     vdW  Elec       q    Type
REMARK                         _______ _______ _______ _____ _____    ______ ____
ROOT
ATOM      1  N   LIG    1        2.401   1.108  -0.015  0.00  0.00    -0.530 N 
ATOM      2  H   LIG    1        2.416   0.138  -0.020  0.00  0.00    +0.440 HD
ENDROOT
BRANCH   1   3
ATOM      3  C   LIG    1        1.180   1.788   0.000  0.00  0.00    +0.270 A 
ATOM      4  C   LIG    1       -0.013   1.076   0.008  0.00  0.00    -0.060 A 
ATOM      5  C   LIG    1       -1.217   1.751   0.017  0.00  0.00    +0.170 A 
ATOM      6  C   LIG    1       -1.237   3.134   0.031  0.00  0.00    -0.730 A 
ATOM      7  C   LIG    1       -0.051   3.845   0.023  0.00  0.00    +0.180 A 
ATOM      8  C   LIG    1        1.157   3.176   0.008  0.00  0.00    -0.090 A 
BRANCH   6   9
ATOM      9  S   LIG    1       -2.776   3.991   0.050  0.00  0.00    +2.700 S 
ATOM     10  O   LIG    1       -2.514   5.275   0.598  0.00  0.00    -0.960 OA
ATOM     11  O   LIG    1       -3.730   3.091   0.598  0.00  0.00    -0.960 OA
BRANCH   9  12
ATOM     12  N   LIG    1       -3.219   4.237  -1.527  0.00  0.00    -1.090 NA
ATOM     13  H   LIG    1       -3.274   5.139  -1.880  0.00  0.00    +0.420 HD
BRANCH  12  14
ATOM     14  C   LIG    1       -3.529   3.093  -2.388  0.00  0.00    +0.220 C 
ATOM     15  C   LIG    1       -3.168   3.207  -3.871  0.00  0.00    +0.010 C 
ATOM     16  C   LIG    1       -4.633   3.273  -3.432  0.00  0.00    +0.010 C 
ENDBRANCH  12  14
ENDBRANCH   9  12
ENDBRANCH   6   9
ENDBRANCH   1   3
BRANCH   1  18
ATOM     17  C   LIG    1        4.780   1.172  -0.036  0.00  0.00    +0.580 C 
ATOM     18  N   LIG    1        3.603   1.827  -0.022  0.00  0.00    -0.500 N 
ATOM     19  H   LIG    1        3.588   2.797  -0.017  0.00  0.00    +0.440 HD
ATOM     20  O   LIG    1        4.799  -0.043  -0.043  0.00  0.00    -0.520 OA
BRANCH  17  25
ATOM     21  C   LIG    1        7.137   3.973  -0.044  0.00  0.00    +0.100 A 
ATOM     22  C   LIG    1        8.386   3.350  -0.058  0.00  0.00    +0.080 A 
ATOM     23  C   LIG    1        8.452   1.966  -0.066  0.00  0.00    +0.080 A 
ATOM     24  C   LIG    1        7.268   1.246  -0.054  0.00  0.00    +0.090 A 
ATOM     25  C   LIG    1        6.052   1.933  -0.044  0.00  0.00    +0.080 A 
ATOM     26  N   LIG    1        6.024   3.256  -0.038  0.00  0.00    -0.410 NA
BRANCH  21  27
ATOM     27  C   LIG    1        7.055   5.452  -0.036  0.00  0.00    +0.520 C 
ATOM     28  O   LIG    1        8.072   6.116  -0.042  0.00  0.00    -0.490 OA
BRANCH  27  30
ATOM     29  C   LIG    1        5.850   7.512  -0.016  0.00  0.00    +0.280 C 
ATOM     30  O   LIG    1        5.854   6.060  -0.023  0.00  0.00    -0.340 OA
ENDBRANCH  27  30
ENDBRANCH  21  27
ENDBRANCH  17  25
ENDBRANCH   1  18
TORSDOF 8
