REMARK  Name = ZINCrH000004mgPq.0
REMARK                            x       y       z     vdW  Elec       q    Type
REMARK                         _______ _______ _______ _____ _____    ______ ____
ROOT
ATOM      1  C   LIG    1       -2.467  -2.866   0.013  0.00  0.00    +0.390 C 
ENDROOT
BRANCH   1   6
ATOM      2  C   LIG    1        0.002  -0.004   0.002  0.00  0.00    +0.170 A 
ATOM      3  C   LIG    1        1.212  -0.681  -0.013  0.00  0.00    -0.150 A 
ATOM      4  C   LIG    1        1.227  -2.068  -0.020  0.00  0.00    +0.170 A 
ATOM      5  C   LIG    1        0.033  -2.774  -0.012  0.00  0.00    -0.040 A 
ATOM      6  C   LIG    1       -1.172  -2.096   0.003  0.00  0.00    -0.020 A 
ATOM      7  C   LIG    1       -1.190  -0.715   0.015  0.00  0.00    -0.020 A 
BRANCH   2   9
ATOM      8  C   LIG    1        1.248   2.021   0.001  0.00  0.00    +0.250 C 
ATOM      9  O   LIG    1       -0.016   1.355   0.009  0.00  0.00    -0.310 OA
ENDBRANCH   2   9
BRANCH   4  10
ATOM     10  O   LIG    1        2.411  -2.734  -0.035  0.00  0.00    -0.310 OA
ATOM     11  C   LIG    1        3.601  -1.943  -0.042  0.00  0.00    +0.250 C 
ENDBRANCH   4  10
ENDBRANCH   1   6
BRANCH   1  12
ATOM     12  C   LIG    1       -3.011  -2.917   1.417  0.00  0.00    +0.190 A 
ATOM     13  N   LIG    1       -3.587  -1.929   2.046  0.00  0.00    -0.470 NA
ATOM     14  C   LIG    1       -3.944  -2.335   3.274  0.00  0.00    +0.140 A 
ATOM     15  C   LIG    1       -3.575  -3.623   3.411  0.00  0.00    +0.130 A 
ATOM     16  N   LIG    1       -2.988  -3.994   2.231  0.00  0.00    -0.450 N 
ATOM     17  C   LIG    1       -2.435  -5.313   1.913  0.00  0.00    +0.330 C 
ENDBRANCH   1  12
BRANCH   1  18
ATOM     18  N   LIG    1       -3.437  -2.201  -0.862  0.00  0.00    -0.700 N 
ATOM     19  H   LIG    1       -3.355  -1.251  -1.043  0.00  0.00    +0.410 HD
ATOM     20  C   LIG    1       -4.442  -2.908  -1.415  0.00  0.00    +0.570 C 
ATOM     21  O   LIG    1       -4.544  -4.098  -1.188  0.00  0.00    -0.530 OA
BRANCH  20  22
ATOM     22  C   LIG    1       -5.419  -2.237  -2.298  0.00  0.00    -0.120 A 
ATOM     23  C   LIG    1       -5.307  -0.870  -2.556  0.00  0.00    +0.060 A 
ATOM     24  C   LIG    1       -6.220  -0.251  -3.383  0.00  0.00    +0.040 A 
ATOM     25  C   LIG    1       -7.252  -0.980  -3.950  0.00  0.00    -0.070 A 
ATOM     26  C   LIG    1       -7.371  -2.336  -3.694  0.00  0.00    +0.040 A 
ATOM     27 BR   LIG    1       -8.503  -0.122  -5.079  0.00  0.00    -0.040 Br
ATOM     28  C   LIG    1       -6.461  -2.967  -2.872  0.00  0.00    +0.100 A 
ENDBRANCH  20  22
ENDBRANCH   1  18
TORSDOF 6
