REMARK  Name = ZINCrg000000rGZD.2
REMARK                            x       y       z     vdW  Elec       q    Type
REMARK                         _______ _______ _______ _____ _____    ______ ____
ROOT
ATOM      1  C   LIG    1       -0.053  -0.055   0.489  0.00  0.00    +0.670 A 
ATOM      2  N   LIG    1        1.081  -0.716   0.433  0.00  0.00    -0.570 NA
ATOM      3  C   LIG    1        2.254  -0.099   0.628  0.00  0.00    +0.390 A 
ATOM      4  C   LIG    1        2.273   1.279   0.898  0.00  0.00    -0.390 A 
ATOM      5  C   LIG    1        1.041   1.978   0.955  0.00  0.00    +0.600 A 
ATOM      6  O   LIG    1        1.010   3.174   1.186  0.00  0.00    -0.520 OA
ATOM      7  C   LIG    1        3.623   1.653   1.057  0.00  0.00    +0.350 A 
ATOM      8  N   LIG    1        4.366   0.593   0.899  0.00  0.00    -0.280 NA
ATOM      9  N   LIG    1        3.551  -0.514   0.631  0.00  0.00    -0.320 N 
ATOM     10  N   LIG    1       -0.100   1.283   0.747  0.00  0.00    -0.670 N 
ATOM     11  H   LIG    1       -0.955   1.739   0.777  0.00  0.00    +0.410 HD
ENDROOT
BRANCH   1  15
ATOM     12  N   LIG    1       -3.474  -2.283   0.846  0.00  0.00    -0.530 NA
ATOM     13  C   LIG    1       -3.402  -0.912   1.369  0.00  0.00    +0.200 C 
ATOM     14  C   LIG    1       -2.526  -0.061   0.444  0.00  0.00    +0.280 C 
ATOM     15  N   LIG    1       -1.228  -0.733   0.282  0.00  0.00    -0.580 N 
ATOM     16  C   LIG    1       -1.222  -2.150  -0.114  0.00  0.00    +0.250 C 
ATOM     17  C   LIG    1        0.199  -2.706  -0.011  0.00  0.00    +0.080 C 
ATOM     18  C   LIG    1       -2.150  -2.920   0.839  0.00  0.00    +0.180 C 
BRANCH  12  19
ATOM     19  C   LIG    1       -4.441  -3.086   1.606  0.00  0.00    +0.190 C 
BRANCH  19  21
ATOM     20  C   LIG    1       -4.880  -4.208   3.795  0.00  0.00    +0.010 C 
ATOM     21  C   LIG    1       -3.938  -3.269   3.039  0.00  0.00    +0.160 C 
BRANCH  21  22
ATOM     22  O   LIG    1       -3.901  -2.001   3.696  0.00  0.00    -0.560 OA
ATOM     23  H   LIG    1       -4.760  -1.560   3.749  0.00  0.00    +0.380 HD
ENDBRANCH  21  22
ENDBRANCH  19  21
ENDBRANCH  12  19
ENDBRANCH   1  15
BRANCH   9  24
ATOM     24  C   LIG    1        3.995  -1.823   0.404  0.00  0.00    +0.150 A 
ATOM     25  C   LIG    1        3.243  -2.901   0.854  0.00  0.00    +0.020 A 
ATOM     26  C   LIG    1        3.680  -4.190   0.624  0.00  0.00    +0.030 A 
ATOM     27  C   LIG    1        4.871  -4.409  -0.043  0.00  0.00    +0.010 A 
ATOM     28  C   LIG    1        5.625  -3.338  -0.488  0.00  0.00    +0.030 A 
ATOM     29  C   LIG    1        5.191  -2.046  -0.266  0.00  0.00    +0.020 A 
ENDBRANCH   9  24
TORSDOF 5
