REMARK  Name = ZINCpk00000y1NfV.0
REMARK                            x       y       z     vdW  Elec       q    Type
REMARK                         _______ _______ _______ _____ _____    ______ ____
ROOT
ATOM      1  N   LIG    1        3.205   3.148   0.066  0.00  0.00    -0.720 N 
ATOM      2  H   LIG    1        3.336   4.069  -0.209  0.00  0.00    +0.400 HD
ATOM      3  C   LIG    1        1.958   2.650   0.182  0.00  0.00    +0.570 C 
ATOM      4  O   LIG    1        1.793   1.496   0.526  0.00  0.00    -0.530 OA
ENDROOT
BRANCH   3   5
ATOM      5  C   LIG    1        0.789   3.508  -0.110  0.00  0.00    -0.140 A 
ATOM      6  C   LIG    1       -0.503   2.996   0.010  0.00  0.00    +0.090 A 
ATOM      7  C   LIG    1       -1.589   3.800  -0.269  0.00  0.00    +0.020 A 
ATOM      8  C   LIG    1       -1.399   5.115  -0.656  0.00  0.00    -0.040 A 
ATOM      9  C   LIG    1       -0.120   5.629  -0.776  0.00  0.00    +0.020 A 
ATOM     10  C   LIG    1        0.975   4.834  -0.506  0.00  0.00    +0.050 A 
BRANCH   8  11
ATOM     11  C   LIG    1       -2.589   5.989  -0.954  0.00  0.00    +0.110 C 
BRANCH  11  12
ATOM     12  C   LIG    1       -2.949   5.869  -2.413  0.00  0.00    +0.510 C 
ATOM     13  N   LIG    1       -3.989   6.567  -2.910  0.00  0.00    -0.740 N 
ATOM     14  H   LIG    1       -4.507   7.146  -2.329  0.00  0.00    +0.400 HD
ATOM     15  C   LIG    1       -4.338   6.450  -4.328  0.00  0.00    +0.290 C 
ATOM     16  O   LIG    1       -2.301   5.145  -3.139  0.00  0.00    -0.530 OA
ENDBRANCH  11  12
ENDBRANCH   8  11
ENDBRANCH   3   5
BRANCH   1  17
ATOM     17  C   LIG    1        4.362   2.297   0.355  0.00  0.00    +0.380 C 
ATOM     18  C   LIG    1        4.651   2.321   1.857  0.00  0.00    +0.050 C 
BRANCH  17  20
ATOM     19  C   LIG    1        6.472   3.202  -0.962  0.00  0.00    -0.150 C 
ATOM     20  C   LIG    1        5.536   2.800  -0.378  0.00  0.00    -0.130 C 
BRANCH  19  21
ATOM     21  C   LIG    1        7.645   3.705  -1.695  0.00  0.00    +0.450 C 
BRANCH  21  22
ATOM     22  O   LIG    1        8.774   2.876  -1.413  0.00  0.00    -0.380 OA
BRANCH  22  24
ATOM     23  C   LIG    1       11.166   2.556  -1.292  0.00  0.00    +0.070 C 
ATOM     24  C   LIG    1       10.027   3.561  -1.467  0.00  0.00    +0.160 C 
ENDBRANCH  22  24
ENDBRANCH  21  22
BRANCH  21  25
ATOM     25  O   LIG    1        7.376   3.682  -3.098  0.00  0.00    -0.380 OA
BRANCH  25  26
ATOM     26  C   LIG    1        8.310   4.429  -3.881  0.00  0.00    +0.160 C 
ATOM     27  C   LIG    1        7.835   4.474  -5.335  0.00  0.00    +0.050 C 
ENDBRANCH  25  26
ENDBRANCH  21  25
ENDBRANCH  19  21
ENDBRANCH  17  20
ENDBRANCH   1  17
TORSDOF 10
