REMARK  Name = ZINCvU0000000DWA.0
REMARK                            x       y       z     vdW  Elec       q    Type
REMARK                         _______ _______ _______ _____ _____    ______ ____
ROOT
ATOM      1  C   LIG    1       -0.593   2.586  -1.915  0.00  0.00    +0.160 A 
ATOM      2  N   LIG    1       -1.188   2.382  -3.068  0.00  0.00    -0.280 NA
ATOM      3  N   LIG    1       -1.732   1.218  -3.085  0.00  0.00    -0.250 NA
ATOM      4  C   LIG    1       -1.512   0.605  -1.945  0.00  0.00    +0.230 A 
ATOM      5  N   LIG    1       -0.781   1.464  -1.158  0.00  0.00    -0.450 N 
ENDROOT
BRANCH   4   6
ATOM      6  C   LIG    1       -1.969  -0.752  -1.575  0.00  0.00    -0.060 A 
ATOM      7  C   LIG    1       -1.072  -1.666  -1.021  0.00  0.00    +0.060 A 
ATOM      8  C   LIG    1       -1.506  -2.929  -0.672  0.00  0.00    +0.010 A 
ATOM      9  C   LIG    1       -2.823  -3.295  -0.881  0.00  0.00    +0.070 A 
ATOM     10  C   LIG    1       -3.718  -2.397  -1.435  0.00  0.00    +0.000 A 
ATOM     11  C   LIG    1       -3.299  -1.127  -1.784  0.00  0.00    +0.140 A 
ATOM     12  F   LIG    1       -4.173  -0.250  -2.326  0.00  0.00    -0.120 F 
ENDBRANCH   4   6
BRANCH   1  13
ATOM     13  S   LIG    1        0.285   4.036  -1.433  0.00  0.00    +0.040 S 
BRANCH  13  15
ATOM     14  C   LIG    1        0.824   4.353  -4.093  0.00  0.00    +0.110 C 
ATOM     15  C   LIG    1        0.093   5.032  -2.932  0.00  0.00    +0.170 C 
BRANCH  15  16
ATOM     16  C   LIG    1        0.677   6.402  -2.704  0.00  0.00    +0.190 A 
ATOM     17  N   LIG    1        0.133   7.548  -3.035  0.00  0.00    -0.450 NA
ATOM     18  C   LIG    1        1.007   8.491  -2.639  0.00  0.00    +0.190 A 
ATOM     19  N   LIG    1        2.019   7.882  -2.097  0.00  0.00    -0.370 NA
ATOM     20  O   LIG    1        1.847   6.681  -2.119  0.00  0.00    +0.090 OA
BRANCH  18  21
ATOM     21  C   LIG    1        0.843   9.981  -2.795  0.00  0.00    +0.020 C 
ATOM     22  C   LIG    1        0.712  10.327  -4.280  0.00  0.00    +0.060 C 
ATOM     23  C   LIG    1        2.065  10.693  -2.212  0.00  0.00    +0.050 C 
ATOM     24  C   LIG    1       -0.415  10.436  -2.053  0.00  0.00    +0.060 C 
ENDBRANCH  18  21
ENDBRANCH  15  16
ENDBRANCH  13  15
ENDBRANCH   1  13
BRANCH   5  25
ATOM     25  C   LIG    1       -0.299   1.224   0.204  0.00  0.00    +0.360 C 
BRANCH  25  26
ATOM     26  C   LIG    1       -1.346   1.668   1.193  0.00  0.00    -0.130 A 
ATOM     27  C   LIG    1       -1.351   2.970   1.657  0.00  0.00    +0.040 A 
ATOM     28  C   LIG    1       -2.314   3.379   2.560  0.00  0.00    +0.010 A 
ATOM     29  C   LIG    1       -3.267   2.483   3.007  0.00  0.00    +0.030 A 
ATOM     30  C   LIG    1       -3.259   1.179   2.547  0.00  0.00    +0.010 A 
ATOM     31  C   LIG    1       -2.299   0.772   1.640  0.00  0.00    +0.030 A 
ENDBRANCH  25  26
ENDBRANCH   5  25
TORSDOF 7
