REMARK  Name = ZINCkj000005jHDY.0
REMARK                            x       y       z     vdW  Elec       q    Type
REMARK                         _______ _______ _______ _____ _____    ______ ____
ROOT
ATOM      1  N   LIG    1       -2.215   5.376  -4.325  0.00  0.00    -0.750 N 
ATOM      2  H   LIG    1       -1.959   5.293  -5.258  0.00  0.00    +0.390 HD
ATOM      3  C   LIG    1       -1.522   4.717  -3.376  0.00  0.00    +0.710 C 
ATOM      4  N   LIG    1       -0.414   4.025  -3.708  0.00  0.00    -0.630 N 
ATOM      5  C   LIG    1       -0.018   3.876  -5.115  0.00  0.00    +0.250 C 
ATOM      6  C   LIG    1        0.167   2.386  -5.420  0.00  0.00    +0.020 C 
ATOM      7  C   LIG    1        1.158   1.784  -4.421  0.00  0.00    +0.020 C 
ATOM      8  C   LIG    1        0.601   1.921  -3.002  0.00  0.00    -0.020 C 
ATOM      9  C   LIG    1        0.421   3.406  -2.670  0.00  0.00    +0.310 C 
ATOM     10  O   LIG    1       -1.896   4.747  -2.219  0.00  0.00    -0.580 OA
ENDROOT
BRANCH   1  12
ATOM     11  C   LIG    1       -2.856   7.607  -3.557  0.00  0.00    +0.040 C 
ATOM     12  C   LIG    1       -3.355   6.216  -3.950  0.00  0.00    +0.280 C 
BRANCH  12  13
ATOM     13  C   LIG    1       -4.314   6.334  -5.137  0.00  0.00    -0.090 C 
ATOM     14  C   LIG    1       -4.813   4.943  -5.530  0.00  0.00    +0.070 C 
ATOM     15  C   LIG    1       -3.582   6.967  -6.322  0.00  0.00    +0.050 C 
BRANCH  13  16
ATOM     16  C   LIG    1       -5.505   7.212  -4.745  0.00  0.00    +0.270 C 
BRANCH  16  17
ATOM     17  N   LIG    1       -6.393   7.377  -5.903  0.00  0.00    -0.390 N 
ATOM     18  C   LIG    1       -7.154   8.625  -5.762  0.00  0.00    +0.310 C 
ATOM     19  C   LIG    1       -7.323   6.242  -5.973  0.00  0.00    +0.310 C 
ATOM     20  H   LIG    1       -5.842   7.413  -6.748  0.00  0.00    +0.420 HD
ENDBRANCH  16  17
ENDBRANCH  13  16
ENDBRANCH  12  13
ENDBRANCH   1  12
BRANCH   8  21
ATOM     21  C   LIG    1        1.578   1.290  -2.007  0.00  0.00    +0.180 C 
BRANCH  21  22
ATOM     22  O   LIG    1        1.008   1.318  -0.697  0.00  0.00    -0.570 OA
ATOM     23  H   LIG    1        1.573   0.933  -0.014  0.00  0.00    +0.380 HD
ENDBRANCH  21  22
ENDBRANCH   8  21
TORSDOF 6
