REMARK  Name = ZINCpk000005ZAcb.0
REMARK                            x       y       z     vdW  Elec       q    Type
REMARK                         _______ _______ _______ _____ _____    ______ ____
ROOT
ATOM      1  O   LIG    1       -1.325   3.771   1.909  0.00  0.00    -0.480 OA
ATOM      2  C   LIG    1       -0.468   3.054   1.441  0.00  0.00    +0.520 C 
ATOM      3  C   LIG    1       -0.730   1.579   1.267  0.00  0.00    +0.110 C 
ATOM      4  C   LIG    1       -0.013   1.086   0.008  0.00  0.00    +0.350 C 
ATOM      5  N   LIG    1        1.361   1.592  -0.002  0.00  0.00    -0.710 N 
ATOM      6  H   LIG    1        2.073   1.037  -0.357  0.00  0.00    +0.430 HD
ATOM      7  C   LIG    1        1.649   2.815   0.472  0.00  0.00    +0.720 C 
ATOM      8  O   LIG    1        2.780   3.246   0.354  0.00  0.00    -0.550 OA
ATOM      9  N   LIG    1        0.718   3.573   1.075  0.00  0.00    -0.560 N 
ENDROOT
BRANCH   4  10
ATOM     10  C   LIG    1       -0.741   1.585  -1.213  0.00  0.00    -0.000 A 
ATOM     11  N   LIG    1       -0.707   2.799  -1.649  0.00  0.00    -0.450 NA
ATOM     12  C   LIG    1       -1.401   3.067  -2.737  0.00  0.00    +0.220 A 
ATOM     13  C   LIG    1       -2.066   2.022  -3.241  0.00  0.00    -0.070 A 
ATOM     14  S   LIG    1       -1.739   0.626  -2.218  0.00  0.00    +0.150 S 
ENDBRANCH   4  10
BRANCH   9  15
ATOM     15  C   LIG    1        0.999   4.987   1.337  0.00  0.00    +0.300 C 
BRANCH  15  16
ATOM     16  C   LIG    1        0.547   5.827   0.141  0.00  0.00    +0.320 C 
BRANCH  16  17
ATOM     17  N   LIG    1        0.827   7.241   0.404  0.00  0.00    -0.630 N 
ATOM     18  C   LIG    1        2.075   7.941   0.060  0.00  0.00    +0.260 C 
ATOM     19  C   LIG    1        1.861   9.363   0.604  0.00  0.00    +0.220 C 
ATOM     20  C   LIG    1        1.998  10.395  -0.519  0.00  0.00    +0.020 C 
ATOM     21  C   LIG    1        1.411  11.728  -0.028  0.00  0.00    +0.010 C 
ATOM     22  C   LIG    1       -0.076  11.591   0.297  0.00  0.00    +0.010 C 
ATOM     23  C   LIG    1       -0.267  10.575   1.433  0.00  0.00    +0.310 C 
ATOM     24  N   LIG    1        0.453   9.352   1.053  0.00  0.00    -0.630 N 
ATOM     25  C   LIG    1       -0.016   8.105   0.991  0.00  0.00    +0.700 C 
ATOM     26  O   LIG    1       -1.103   7.781   1.428  0.00  0.00    -0.580 OA
ENDBRANCH  16  17
ENDBRANCH  15  16
ENDBRANCH   9  15
TORSDOF 4
