REMARK  Name = ZINCqH00000034dG.0
REMARK                            x       y       z     vdW  Elec       q    Type
REMARK                         _______ _______ _______ _____ _____    ______ ____
ROOT
ATOM      1  N   LIG    1        2.087   7.153  -2.044  0.00  0.00    -0.660 N 
ATOM      2  H   LIG    1        1.784   6.628  -1.286  0.00  0.00    +0.410 HD
ATOM      3  C   LIG    1        3.377   7.097  -2.429  0.00  0.00    +0.590 C 
ATOM      4  O   LIG    1        3.736   7.679  -3.435  0.00  0.00    -0.520 OA
ENDROOT
BRANCH   1   8
ATOM      5  C   LIG    1       -0.635   9.500  -4.071  0.00  0.00    +0.390 A 
ATOM      6  C   LIG    1        0.682   9.938  -3.987  0.00  0.00    -0.080 A 
ATOM      7  C   LIG    1        1.609   9.165  -3.311  0.00  0.00    +0.120 A 
ATOM      8  C   LIG    1        1.182   7.968  -2.737  0.00  0.00    +0.030 A 
ATOM      9  C   LIG    1       -0.146   7.592  -2.866  0.00  0.00    +0.280 A 
ATOM     10  N   LIG    1       -1.004   8.358  -3.513  0.00  0.00    -0.520 NA
BRANCH   5  11
ATOM     11  N   LIG    1       -1.575  10.271  -4.748  0.00  0.00    -0.610 N 
BRANCH  11  13
ATOM     12  C   LIG    1       -0.788  11.120  -6.903  0.00  0.00    +0.020 C 
ATOM     13  C   LIG    1       -1.155  11.480  -5.461  0.00  0.00    +0.280 C 
ENDBRANCH  11  13
BRANCH  11  14
ATOM     14  C   LIG    1       -2.985   9.873  -4.748  0.00  0.00    +0.280 C 
ATOM     15  C   LIG    1       -3.696  10.515  -3.555  0.00  0.00    -0.000 C 
ENDBRANCH  11  14
ENDBRANCH   5  11
ENDBRANCH   1   8
BRANCH   3  16
ATOM     16  C   LIG    1        4.351   6.333  -1.633  0.00  0.00    -0.290 A 
ATOM     17  C   LIG    1        4.098   5.622  -0.478  0.00  0.00    +0.310 A 
ATOM     18  N   LIG    1        5.254   5.079  -0.067  0.00  0.00    -0.460 N 
ATOM     19  H   LIG    1        5.363   4.530   0.726  0.00  0.00    +0.450 HD
ATOM     20  N   LIG    1        6.278   5.424  -0.954  0.00  0.00    -0.280 NA
ATOM     21  C   LIG    1        5.782   6.173  -1.912  0.00  0.00    +0.180 A 
BRANCH  21  22
ATOM     22  C   LIG    1        6.527   6.752  -3.055  0.00  0.00    -0.050 A 
ATOM     23  C   LIG    1        7.845   7.176  -2.887  0.00  0.00    +0.080 A 
ATOM     24  C   LIG    1        8.535   7.715  -3.954  0.00  0.00    -0.030 A 
ATOM     25  C   LIG    1        7.919   7.840  -5.188  0.00  0.00    +0.120 A 
ATOM     26  C   LIG    1        6.611   7.415  -5.361  0.00  0.00    -0.020 A 
ATOM     27  F   LIG    1        8.596   8.373  -6.228  0.00  0.00    -0.140 F 
ATOM     28  C   LIG    1        5.913   6.875  -4.300  0.00  0.00    +0.130 A 
ENDBRANCH  21  22
ENDBRANCH   3  16
TORSDOF 6
