REMARK  Name = ZINCqH00000034dG.1
REMARK                            x       y       z     vdW  Elec       q    Type
REMARK                         _______ _______ _______ _____ _____    ______ ____
ROOT
ATOM      1  N   LIG    1       -1.191   1.870   0.018  0.00  0.00    -0.660 N 
ATOM      2  H   LIG    1       -0.407   1.514   0.464  0.00  0.00    +0.410 HD
ATOM      3  C   LIG    1       -1.101   3.011  -0.694  0.00  0.00    +0.590 C 
ATOM      4  O   LIG    1       -2.058   3.408  -1.331  0.00  0.00    -0.520 OA
ENDROOT
BRANCH   1   8
ATOM      5  C   LIG    1       -4.760  -0.179   0.299  0.00  0.00    +0.390 A 
ATOM      6  C   LIG    1       -4.801   1.208   0.210  0.00  0.00    -0.090 A 
ATOM      7  C   LIG    1       -3.614   1.912   0.115  0.00  0.00    +0.110 A 
ATOM      8  C   LIG    1       -2.417   1.198   0.113  0.00  0.00    +0.040 A 
ATOM      9  C   LIG    1       -2.454  -0.185   0.200  0.00  0.00    +0.290 A 
ATOM     10  N   LIG    1       -3.604  -0.824   0.294  0.00  0.00    -0.520 NA
BRANCH   5  11
ATOM     11  N   LIG    1       -5.949  -0.897   0.395  0.00  0.00    -0.610 N 
BRANCH  11  13
ATOM     12  C   LIG    1       -7.676  -0.162  -1.173  0.00  0.00    +0.020 C 
ATOM     13  C   LIG    1       -7.235  -0.203   0.292  0.00  0.00    +0.280 C 
ENDBRANCH  11  13
BRANCH  11  14
ATOM     14  C   LIG    1       -5.914  -2.348   0.600  0.00  0.00    +0.280 C 
ATOM     15  C   LIG    1       -5.908  -2.651   2.099  0.00  0.00    -0.000 C 
ENDBRANCH  11  14
ENDBRANCH   5  11
ENDBRANCH   1   8
BRANCH   3  16
ATOM     16  C   LIG    1        0.153   3.781  -0.694  0.00  0.00    -0.290 A 
ATOM     17  C   LIG    1        0.394   4.973  -1.377  0.00  0.00    +0.210 A 
ATOM     18  N   LIG    1        1.666   5.338  -1.101  0.00  0.00    -0.450 N 
ATOM     19  H   LIG    1        2.115   6.129  -1.436  0.00  0.00    +0.450 HD
ATOM     20  N   LIG    1        2.227   4.375  -0.254  0.00  0.00    -0.280 NA
ATOM     21  C   LIG    1        1.341   3.451  -0.007  0.00  0.00    +0.280 A 
BRANCH  17  22
ATOM     22  C   LIG    1       -0.560   5.700  -2.238  0.00  0.00    -0.070 A 
ATOM     23  C   LIG    1       -1.329   5.006  -3.175  0.00  0.00    +0.130 A 
ATOM     24  C   LIG    1       -2.221   5.689  -3.973  0.00  0.00    -0.020 A 
ATOM     25  C   LIG    1       -2.350   7.064  -3.854  0.00  0.00    +0.120 A 
ATOM     26  C   LIG    1       -1.586   7.759  -2.929  0.00  0.00    -0.020 A 
ATOM     27  F   LIG    1       -3.223   7.730  -4.641  0.00  0.00    -0.130 F 
ATOM     28  C   LIG    1       -0.694   7.085  -2.122  0.00  0.00    +0.060 A 
ENDBRANCH  17  22
ENDBRANCH   3  16
TORSDOF 6
