REMARK  Name = ZINCqH0000032otw.0
REMARK                            x       y       z     vdW  Elec       q    Type
REMARK                         _______ _______ _______ _____ _____    ______ ____
ROOT
ATOM      1  C   LIG    1       -1.660   2.453   0.258  0.00  0.00    +0.060 C 
ATOM      2  C   LIG    1       -1.178   3.913   0.243  0.00  0.00    +0.260 C 
ATOM      3  N   LIG    1        0.167   3.880   0.825  0.00  0.00    -0.560 N 
ATOM      4  C   LIG    1        0.505   2.569   1.175  0.00  0.00    +0.160 A 
ATOM      5  C   LIG    1        1.679   2.082   1.753  0.00  0.00    +0.010 A 
ATOM      6  C   LIG    1        1.815   0.737   2.023  0.00  0.00    +0.040 A 
ATOM      7  C   LIG    1        0.791  -0.141   1.721  0.00  0.00    -0.010 A 
ATOM      8  C   LIG    1       -0.374   0.333   1.147  0.00  0.00    +0.050 A 
ATOM      9  C   LIG    1        0.961   4.955   0.997  0.00  0.00    +0.720 C 
ATOM     10  N   LIG    1        0.572   6.160   0.536  0.00  0.00    -0.670 N 
ATOM     11  H   LIG    1       -0.307   6.268   0.140  0.00  0.00    +0.410 HD
ATOM     12  O   LIG    1        2.027   4.838   1.568  0.00  0.00    -0.550 OA
ATOM     13  C   LIG    1       -0.516   1.681   0.876  0.00  0.00    -0.130 A 
ENDROOT
BRANCH  10  14
ATOM     14  C   LIG    1        1.437   7.257   0.629  0.00  0.00    +0.160 A 
ATOM     15  C   LIG    1        2.800   7.056   0.813  0.00  0.00    +0.050 A 
ATOM     16  C   LIG    1        3.659   8.136   0.905  0.00  0.00    +0.030 A 
ATOM     17  C   LIG    1        3.170   9.425   0.815  0.00  0.00    +0.070 A 
ATOM     18  C   LIG    1        1.806   9.634   0.630  0.00  0.00    -0.120 A 
ATOM     19  C   LIG    1        1.247  11.000   0.530  0.00  0.00    +0.570 C 
ATOM     20  O   LIG    1        1.972  11.945   0.288  0.00  0.00    -0.530 OA
ATOM     21  N   LIG    1       -0.075  11.183   0.697  0.00  0.00    -0.730 N 
ATOM     22  H   LIG    1       -0.452  12.070   0.590  0.00  0.00    +0.410 HD
ATOM     23  C   LIG    1       -0.953  10.069   1.046  0.00  0.00    +0.280 C 
ATOM     24  C   LIG    1       -0.532   8.792   0.323  0.00  0.00    +0.080 C 
ATOM     25  C   LIG    1        0.938   8.544   0.531  0.00  0.00    -0.090 A 
ENDBRANCH  10  14
BRANCH   1  27
ATOM     26  C   LIG    1       -2.334   0.488  -1.130  0.00  0.00    +0.020 C 
ATOM     27  C   LIG    1       -1.927   1.962  -1.166  0.00  0.00    -0.010 C 
ATOM     28  C   LIG    1       -3.057   2.788  -1.786  0.00  0.00    +0.020 C 
ENDBRANCH   1  27
TORSDOF 2
