REMARK  Name = ZINCtV000002K7lT.0
REMARK                            x       y       z     vdW  Elec       q    Type
REMARK                         _______ _______ _______ _____ _____    ______ ____
ROOT
ATOM      1  C   LIG    1        2.462   5.035   0.718  0.00  0.00    +0.540 C 
ATOM      2  N   LIG    1        2.518   3.730   0.384  0.00  0.00    -0.500 N 
ATOM      3  C   LIG    1        1.488   2.873   0.792  0.00  0.00    +0.140 A 
ATOM      4  C   LIG    1        0.174   3.313   0.798  0.00  0.00    +0.010 A 
ATOM      5  C   LIG    1       -0.839   2.459   1.198  0.00  0.00    +0.060 A 
ATOM      6  C   LIG    1       -0.551   1.165   1.587  0.00  0.00    +0.030 A 
ATOM      7  C   LIG    1        0.759   0.718   1.592  0.00  0.00    +0.070 A 
ATOM      8  C   LIG    1        1.776   1.566   1.194  0.00  0.00    -0.130 A 
ATOM      9  S   LIG    1        3.454   1.018   1.187  0.00  0.00    +0.020 S 
ATOM     10  C   LIG    1        4.149   2.000  -0.104  0.00  0.00    -0.130 A 
ATOM     11  C   LIG    1        5.217   1.532  -0.848  0.00  0.00    +0.070 A 
ATOM     12  C   LIG    1        5.750   2.319  -1.855  0.00  0.00    +0.030 A 
ATOM     13  C   LIG    1        5.217   3.567  -2.115  0.00  0.00    +0.050 A 
ATOM     14  C   LIG    1        4.148   4.040  -1.374  0.00  0.00    +0.040 A 
ATOM     15  C   LIG    1        3.605   3.260  -0.365  0.00  0.00    +0.140 A 
ATOM     16  O   LIG    1        3.384   5.772   0.439  0.00  0.00    -0.480 OA
ENDROOT
BRANCH   1  17
ATOM     17  C   LIG    1        1.255   5.577   1.438  0.00  0.00    +0.130 C 
BRANCH  17  18
ATOM     18  S   LIG    1        1.666   7.170   2.191  0.00  0.00    +0.050 S 
BRANCH  18  23
ATOM     19  C   LIG    1       -3.345   6.911   3.774  0.00  0.00    +0.140 C 
ATOM     20  C   LIG    1       -1.944   7.434   3.584  0.00  0.00    +0.010 A 
ATOM     21  C   LIG    1       -1.464   8.592   4.069  0.00  0.00    -0.010 A 
ATOM     22  N   LIG    1       -0.149   8.680   3.671  0.00  0.00    -0.430 N 
ATOM     23  C   LIG    1        0.121   7.562   2.943  0.00  0.00    +0.180 A 
ATOM     24  C   LIG    1       -2.221   9.600   4.895  0.00  0.00    +0.140 C 
ATOM     25  N   LIG    1       -0.962   6.822   2.902  0.00  0.00    -0.480 NA
BRANCH  22  26
ATOM     26  C   LIG    1        0.781   9.771   3.971  0.00  0.00    +0.300 C 
BRANCH  26  27
ATOM     27  C   LIG    1        0.691  10.833   2.873  0.00  0.00    -0.030 C 
ATOM     28  C   LIG    1        1.176  10.241   1.549  0.00  0.00    +0.030 C 
ATOM     29  C   LIG    1        1.569  12.029   3.248  0.00  0.00    +0.040 C 
ENDBRANCH  26  27
ENDBRANCH  22  26
ENDBRANCH  18  23
ENDBRANCH  17  18
ENDBRANCH   1  17
TORSDOF 5
