REMARK  Name = ZINCpe00000MJLra.0
REMARK                            x       y       z     vdW  Elec       q    Type
REMARK                         _______ _______ _______ _____ _____    ______ ____
ROOT
ATOM      1  C   LIG    1       -0.013   1.210   0.016  0.00  0.00    +0.600 C 
ATOM      2  N   LIG    1       -0.677   0.968   1.163  0.00  0.00    -0.710 N 
ATOM      3  H   LIG    1       -0.360   1.349   1.997  0.00  0.00    +0.410 HD
ATOM      4  O   LIG    1       -0.462   0.815  -1.043  0.00  0.00    -0.510 OA
ENDROOT
BRANCH   1  11
ATOM      5  C   LIG    1        5.565   3.278  -0.823  0.00  0.00    +0.070 C 
ATOM      6  C   LIG    1        4.886   2.377   0.212  0.00  0.00    +0.260 C 
ATOM      7  O   LIG    1        5.194   1.003  -0.064  0.00  0.00    -0.370 OA
ATOM      8  C   LIG    1        4.459   0.056   0.715  0.00  0.00    +0.150 C 
ATOM      9  C   LIG    1        2.996   0.016   0.244  0.00  0.00    +0.100 C 
ATOM     10  C   LIG    1        2.517   1.438   0.139  0.00  0.00    -0.150 A 
ATOM     11  C   LIG    1        1.255   1.958   0.044  0.00  0.00    -0.020 A 
ATOM     12  N   LIG    1        1.413   3.318  -0.027  0.00  0.00    -0.280 N 
ATOM     13  N   LIG    1        2.667   3.613   0.031  0.00  0.00    -0.250 NA
ATOM     14  C   LIG    1        0.323   4.289  -0.146  0.00  0.00    +0.370 C 
ATOM     15  C   LIG    1        5.085  -1.330   0.549  0.00  0.00    +0.060 C 
ATOM     16  C   LIG    1        3.389   2.539   0.126  0.00  0.00    +0.000 A 
ENDBRANCH   1  11
BRANCH   2  17
ATOM     17  C   LIG    1       -1.879   0.130   1.150  0.00  0.00    +0.250 C 
ATOM     18  C   LIG    1       -3.184   0.915   1.373  0.00  0.00    +0.200 C 
ATOM     19  N   LIG    1       -3.591  -0.203   2.252  0.00  0.00    -0.430 N 
ATOM     20  C   LIG    1       -2.174  -0.550   2.499  0.00  0.00    +0.230 C 
BRANCH  19  21
ATOM     21  C   LIG    1       -4.196   0.267   3.406  0.00  0.00    +0.320 A 
ATOM     22  C   LIG    1       -5.538   0.653   3.397  0.00  0.00    -0.070 A 
ATOM     23  C   LIG    1       -6.095   1.114   4.573  0.00  0.00    +0.330 A 
ATOM     24  N   LIG    1       -5.345   1.175   5.664  0.00  0.00    -0.530 NA
ATOM     25  C   LIG    1       -4.081   0.803   5.640  0.00  0.00    +0.520 A 
ATOM     26  N   LIG    1       -3.510   0.352   4.542  0.00  0.00    -0.550 NA
ENDBRANCH  19  21
ENDBRANCH   2  17
TORSDOF 3
