REMARK  Name = ZINCpk00000y6wxS.0
REMARK                            x       y       z     vdW  Elec       q    Type
REMARK                         _______ _______ _______ _____ _____    ______ ____
ROOT
ATOM      1  N   LIG    1       -2.918  -1.202  -0.995  0.00  0.00    -0.590 N 
ATOM      2  C   LIG    1       -2.540  -0.672  -2.175  0.00  0.00    +0.610 C 
ATOM      3  O   LIG    1       -1.599   0.097  -2.223  0.00  0.00    -0.520 OA
ENDROOT
BRANCH   2   4
ATOM      4  C   LIG    1       -3.265  -1.025  -3.406  0.00  0.00    -0.010 A 
ATOM      5  C   LIG    1       -4.162  -0.247  -4.086  0.00  0.00    -0.120 A 
ATOM      6  C   LIG    1       -4.665   1.146  -3.821  0.00  0.00    +0.100 C 
ATOM      7  C   LIG    1       -5.922   1.352  -4.680  0.00  0.00    +0.150 C 
ATOM      8  O   LIG    1       -5.667   0.930  -6.022  0.00  0.00    -0.370 OA
ATOM      9  C   LIG    1       -5.570  -0.490  -6.198  0.00  0.00    +0.260 C 
ATOM     10  C   LIG    1       -5.084  -0.805  -7.614  0.00  0.00    +0.070 C 
ATOM     11  C   LIG    1       -6.301   2.835  -4.677  0.00  0.00    +0.060 C 
ATOM     12  C   LIG    1       -4.576  -1.011  -5.189  0.00  0.00    -0.000 A 
ATOM     13  N   LIG    1       -3.963  -2.153  -5.131  0.00  0.00    -0.260 NA
ATOM     14  N   LIG    1       -3.186  -2.203  -4.103  0.00  0.00    -0.290 N 
ATOM     15  C   LIG    1       -2.347  -3.346  -3.735  0.00  0.00    +0.360 C 
ENDBRANCH   2   4
BRANCH   1  16
ATOM     16  C   LIG    1       -3.981  -2.209  -0.951  0.00  0.00    +0.310 C 
BRANCH  16  17
ATOM     17  C   LIG    1       -5.312  -1.533  -0.620  0.00  0.00    +0.160 C 
BRANCH  17  19
ATOM     18  C   LIG    1       -6.972  -0.064  -1.533  0.00  0.00    +0.200 C 
ATOM     19  O   LIG    1       -5.685  -0.664  -1.691  0.00  0.00    -0.380 OA
ENDBRANCH  17  19
ENDBRANCH  16  17
ENDBRANCH   1  16
BRANCH   1  20
ATOM     20  C   LIG    1       -2.268  -0.769   0.245  0.00  0.00    +0.410 C 
BRANCH  20  21
ATOM     21  C   LIG    1       -1.075  -1.648   0.519  0.00  0.00    +0.180 A 
ATOM     22  N   LIG    1       -1.104  -2.799   1.134  0.00  0.00    -0.480 NA
ATOM     23  C   LIG    1        0.139  -3.297   1.199  0.00  0.00    +0.140 A 
ATOM     24  C   LIG    1        0.971  -2.422   0.602  0.00  0.00    +0.130 A 
ATOM     25  N   LIG    1        0.201  -1.376   0.171  0.00  0.00    -0.550 N 
ATOM     26  H   LIG    1        0.513  -0.588  -0.301  0.00  0.00    +0.420 HD
ENDBRANCH  20  21
ENDBRANCH   1  20
TORSDOF 6
