REMARK  Name = ZINCqH000005012m.0
REMARK                            x       y       z     vdW  Elec       q    Type
REMARK                         _______ _______ _______ _____ _____    ______ ____
ROOT
ATOM      1  C   LIG    1        1.354  -0.918   1.724  0.00  0.00    +0.520 C 
ATOM      2  O   LIG    1        0.677  -0.348   2.556  0.00  0.00    -0.510 OA
ENDROOT
BRANCH   1   8
ATOM      3  C   LIG    1        6.507  -4.312   5.957  0.00  0.00    +0.150 C 
ATOM      4  C   LIG    1        5.587  -3.733   4.913  0.00  0.00    +0.070 A 
ATOM      5  C   LIG    1        4.535  -2.939   5.170  0.00  0.00    -0.160 A 
ATOM      6  C   LIG    1        3.925  -2.609   3.878  0.00  0.00    -0.120 A 
ATOM      7  C   LIG    1        2.830  -1.841   3.495  0.00  0.00    +0.150 A 
ATOM      8  C   LIG    1        2.512  -1.729   2.144  0.00  0.00    -0.160 A 
ATOM      9  C   LIG    1        3.290  -2.391   1.183  0.00  0.00    +0.100 A 
ATOM     10  C   LIG    1        4.366  -3.140   1.556  0.00  0.00    -0.010 A 
ATOM     11  C   LIG    1        4.702  -3.266   2.902  0.00  0.00    +0.130 A 
ATOM     12  C   LIG    1        4.069  -2.477   6.526  0.00  0.00    +0.130 C 
ATOM     13  N   LIG    1        5.700  -3.937   3.565  0.00  0.00    -0.590 N 
ATOM     14  H   LIG    1        6.385  -4.477   3.140  0.00  0.00    +0.420 HD
ENDBRANCH   1   8
BRANCH   1  15
ATOM     15  O   LIG    1        1.046  -0.809   0.416  0.00  0.00    -0.320 OA
BRANCH  15  16
ATOM     16  C   LIG    1       -0.106   0.005   0.075  0.00  0.00    +0.230 C 
BRANCH  16  17
ATOM     17  C   LIG    1       -0.742  -0.526  -1.184  0.00  0.00    -0.100 A 
ATOM     18  C   LIG    1        0.044  -0.824  -2.282  0.00  0.00    +0.050 A 
ATOM     19  C   LIG    1       -0.538  -1.314  -3.436  0.00  0.00    +0.010 A 
ATOM     20  C   LIG    1       -1.907  -1.499  -3.495  0.00  0.00    +0.020 A 
ATOM     21  C   LIG    1       -2.693  -1.196  -2.399  0.00  0.00    +0.010 A 
ATOM     22  C   LIG    1       -2.110  -0.709  -1.244  0.00  0.00    +0.030 A 
ENDBRANCH  16  17
BRANCH  16  23
ATOM     23  C   LIG    1        0.332   1.429  -0.145  0.00  0.00    +0.510 C 
ATOM     24  N   LIG    1       -0.564   2.432  -0.053  0.00  0.00    -0.610 N 
ATOM     25  C   LIG    1       -1.941   2.149   0.360  0.00  0.00    +0.270 C 
ATOM     26  C   LIG    1       -0.162   3.805  -0.368  0.00  0.00    +0.290 C 
ATOM     27  O   LIG    1        1.490   1.674  -0.409  0.00  0.00    -0.520 OA
ENDBRANCH  16  23
ENDBRANCH  15  16
ENDBRANCH   1  15
TORSDOF 5
