REMARK  Name = ZINCpe00000bKJET.0
REMARK                            x       y       z     vdW  Elec       q    Type
REMARK                         _______ _______ _______ _____ _____    ______ ____
ROOT
ATOM      1  C   LIG    1       -3.658   2.923   0.053  0.00  0.00    +0.280 C 
ATOM      2  C   LIG    1       -4.418   2.962  -1.284  0.00  0.00    +0.010 C 
ATOM      3  C   LIG    1       -5.710   3.061  -0.456  0.00  0.00    +0.250 C 
ATOM      4  C   LIG    1       -4.853   3.674   0.664  0.00  0.00    -0.100 C 
ATOM      5  C   LIG    1       -4.728   5.196   0.579  0.00  0.00    +0.060 C 
ATOM      6  C   LIG    1       -5.232   3.186   2.063  0.00  0.00    +0.040 C 
ENDROOT
BRANCH   3   7
ATOM      7  N   LIG    1       -6.696   3.989  -1.015  0.00  0.00    -0.720 N 
ATOM      8  H   LIG    1       -6.545   4.945  -0.964  0.00  0.00    +0.400 HD
ATOM      9  C   LIG    1       -7.812   3.513  -1.602  0.00  0.00    +0.510 C 
ATOM     10  O   LIG    1       -8.001   2.317  -1.667  0.00  0.00    -0.530 OA
BRANCH   9  11
ATOM     11  C   LIG    1       -8.826   4.468  -2.178  0.00  0.00    +0.060 C 
BRANCH  11  12
ATOM     12  C   LIG    1       -9.989   3.675  -2.780  0.00  0.00    +0.240 C 
ATOM     13  C   LIG    1      -10.977   4.629  -3.485  0.00  0.00    +0.050 C 
ATOM     14  C   LIG    1      -12.336   3.954  -3.186  0.00  0.00    +0.050 C 
ATOM     15  C   LIG    1      -12.085   3.160  -1.923  0.00  0.00    +0.520 C 
ATOM     16  O   LIG    1      -12.950   2.712  -1.201  0.00  0.00    -0.540 OA
ATOM     17  N   LIG    1      -10.764   3.024  -1.717  0.00  0.00    -0.720 N 
ATOM     18  H   LIG    1      -10.372   2.556  -0.963  0.00  0.00    +0.410 HD
ENDBRANCH  11  12
ENDBRANCH   9  11
ENDBRANCH   3   7
BRANCH   1  19
ATOM     19  N   LIG    1       -2.417   3.702   0.045  0.00  0.00    -0.680 N 
ATOM     20  H   LIG    1       -2.453   4.671   0.051  0.00  0.00    +0.410 HD
BRANCH  19  25
ATOM     21  C   LIG    1        1.106   3.183   0.009  0.00  0.00    +0.400 A 
ATOM     22  C   LIG    1        1.171   1.791   0.001  0.00  0.00    -0.150 A 
ATOM     23  C   LIG    1       -0.013   1.076   0.008  0.00  0.00    +0.400 A 
ATOM     24  N   LIG    1       -1.164   1.730   0.017  0.00  0.00    -0.590 NA
ATOM     25  C   LIG    1       -1.194   3.054   0.030  0.00  0.00    +0.600 A 
ATOM     26  N   LIG    1       -0.082   3.774   0.023  0.00  0.00    -0.630 NA
BRANCH  21  28
ATOM     27  C   LIG    1        2.090   5.344   0.011  0.00  0.00    +0.260 C 
ATOM     28  O   LIG    1        2.242   3.923   0.001  0.00  0.00    -0.300 OA
ENDBRANCH  21  28
ENDBRANCH  19  25
ENDBRANCH   1  19
TORSDOF 6
