REMARK  Name = ZINCrD00000hQ7oR.0
REMARK                            x       y       z     vdW  Elec       q    Type
REMARK                         _______ _______ _______ _____ _____    ______ ____
ROOT
ATOM      1  N   LIG    1        3.952   1.987  -1.293  0.00  0.00    -0.610 N 
ATOM      2  H   LIG    1        3.591   1.865  -0.401  0.00  0.00    +0.410 HD
ENDROOT
BRANCH   1   8
ATOM      3  N   LIG    1        3.613   4.305  -1.332  0.00  0.00    -0.440 N 
ATOM      4  C   LIG    1        3.337   5.442  -2.030  0.00  0.00    +0.290 C 
ATOM      5  C   LIG    1        3.116   5.397  -3.362  0.00  0.00    -0.010 C 
ATOM      6  C   LIG    1        3.168   4.172  -4.048  0.00  0.00    +0.150 C 
ATOM      7  C   LIG    1        3.444   3.028  -3.364  0.00  0.00    +0.070 C 
ATOM      8  C   LIG    1        3.677   3.093  -1.976  0.00  0.00    +0.460 C 
BRANCH   3   9
ATOM      9  C   LIG    1        3.849   4.376   0.112  0.00  0.00    +0.360 C 
BRANCH   9  14
ATOM     10  C   LIG    1       -1.222   4.494   2.880  0.00  0.00    +0.100 C 
ATOM     11  C   LIG    1        0.102   4.463   2.161  0.00  0.00    -0.060 A 
ATOM     12  C   LIG    1        0.716   3.254   1.893  0.00  0.00    +0.020 A 
ATOM     13  C   LIG    1        1.927   3.225   1.229  0.00  0.00    +0.020 A 
ATOM     14  C   LIG    1        2.528   4.407   0.836  0.00  0.00    -0.140 A 
ATOM     15  C   LIG    1        1.917   5.617   1.108  0.00  0.00    +0.040 A 
ATOM     16  C   LIG    1        0.705   5.645   1.772  0.00  0.00    +0.010 A 
ENDBRANCH   9  14
ENDBRANCH   3   9
ENDBRANCH   1   8
BRANCH   1  17
ATOM     17  C   LIG    1        4.735   1.034  -1.839  0.00  0.00    +0.380 C 
ATOM     18  C   LIG    1        5.162  -0.009  -1.083  0.00  0.00    -0.270 C 
ATOM     19  O   LIG    1        5.096   1.119  -3.146  0.00  0.00    -0.690 OA
BRANCH  18  20
ATOM     20  C   LIG    1        6.134  -0.967  -1.633  0.00  0.00    -0.060 A 
ATOM     21  C   LIG    1        6.820  -0.874  -2.833  0.00  0.00    +0.210 A 
ATOM     22  N   LIG    1        7.618  -1.929  -2.999  0.00  0.00    -0.530 NA
ATOM     23  C   LIG    1        7.548  -2.776  -1.991  0.00  0.00    +0.220 A 
ATOM     24  N   LIG    1        8.153  -3.975  -1.695  0.00  0.00    -0.510 N 
ATOM     25  H   LIG    1        8.792  -4.359  -2.316  0.00  0.00    +0.420 HD
ATOM     26  C   LIG    1        7.865  -4.619  -0.551  0.00  0.00    +0.300 A 
ATOM     27  C   LIG    1        6.979  -4.132   0.356  0.00  0.00    -0.100 A 
ATOM     28  C   LIG    1        6.320  -2.923   0.137  0.00  0.00    +0.150 A 
ATOM     29  C   LIG    1        6.589  -2.222  -1.026  0.00  0.00    -0.160 A 
ENDBRANCH  18  20
ENDBRANCH   1  17
TORSDOF 5
