REMARK  Name = ZINCrg000000sKvy.0
REMARK                            x       y       z     vdW  Elec       q    Type
REMARK                         _______ _______ _______ _____ _____    ______ ____
ROOT
ATOM      1  C   LIG    1       -3.305   2.743  -1.203  0.00  0.00    +0.610 C 
ATOM      2  N   LIG    1       -2.316   2.093  -0.559  0.00  0.00    -0.600 N 
ATOM      3  C   LIG    1       -1.078   1.591  -1.174  0.00  0.00    +0.270 C 
ATOM      4  C   LIG    1       -0.239   0.945  -0.052  0.00  0.00    +0.070 C 
ATOM      5  C   LIG    1       -0.790   1.619   1.233  0.00  0.00    +0.160 C 
ATOM      6  C   LIG    1       -2.296   1.767   0.878  0.00  0.00    +0.270 C 
ATOM      7  O   LIG    1       -4.288   3.114  -0.591  0.00  0.00    -0.520 OA
ENDROOT
BRANCH   1  11
ATOM      8  C   LIG    1       -0.776   2.328  -5.240  0.00  0.00    +0.360 C 
ATOM      9  N   LIG    1       -1.990   2.807  -4.574  0.00  0.00    -0.340 N 
ATOM     10  N   LIG    1       -2.133   2.603  -3.314  0.00  0.00    -0.180 NA
ATOM     11  C   LIG    1       -3.196   3.005  -2.655  0.00  0.00    +0.020 A 
ATOM     12  C   LIG    1       -4.239   3.684  -3.330  0.00  0.00    +0.140 A 
ATOM     13  C   LIG    1       -4.100   3.913  -4.667  0.00  0.00    -0.010 A 
ATOM     14  C   LIG    1       -2.925   3.447  -5.299  0.00  0.00    +0.480 A 
ATOM     15  O   LIG    1       -2.760   3.625  -6.495  0.00  0.00    -0.520 OA
ENDBRANCH   1  11
BRANCH   5  16
ATOM     16  O   LIG    1       -0.608   0.775   2.372  0.00  0.00    -0.280 OA
BRANCH  16  17
ATOM     17  C   LIG    1       -0.567   1.382   3.589  0.00  0.00    +0.070 A 
ATOM     18  C   LIG    1       -0.812   2.742   3.706  0.00  0.00    -0.010 A 
ATOM     19  C   LIG    1       -0.759   3.317   4.969  0.00  0.00    -0.020 A 
ATOM     20  C   LIG    1       -0.467   2.527   6.061  0.00  0.00    +0.250 A 
ATOM     21  N   LIG    1       -0.238   1.234   5.922  0.00  0.00    -0.480 NA
ATOM     22  C   LIG    1       -0.284   0.643   4.739  0.00  0.00    +0.290 A 
BRANCH  22  23
ATOM     23  N   LIG    1       -0.042  -0.724   4.640  0.00  0.00    -0.450 N 
ATOM     24  C   LIG    1        1.166  -0.993   3.818  0.00  0.00    +0.200 C 
ATOM     25  C   LIG    1        1.573  -2.426   4.244  0.00  0.00    +0.040 C 
ATOM     26  C   LIG    1        1.266  -2.436   5.759  0.00  0.00    +0.020 C 
ATOM     27  C   LIG    1        0.236  -1.311   5.968  0.00  0.00    +0.190 C 
ENDBRANCH  22  23
ENDBRANCH  16  17
ENDBRANCH   5  16
TORSDOF 4
