REMARK  Name = ZINCvU0000000BSh.0
REMARK                            x       y       z     vdW  Elec       q    Type
REMARK                         _______ _______ _______ _____ _____    ______ ____
ROOT
ATOM      1  C   LIG    1       -3.275   2.950   0.035  0.00  0.00    +0.150 A 
ATOM      2  N   LIG    1       -2.437   3.961   0.035  0.00  0.00    -0.280 NA
ATOM      3  N   LIG    1       -1.226   3.533   0.033  0.00  0.00    -0.270 NA
ATOM      4  C   LIG    1       -1.212   2.220   0.020  0.00  0.00    +0.290 A 
ATOM      5  N   LIG    1       -2.526   1.803   0.025  0.00  0.00    -0.420 N 
ENDROOT
BRANCH   4   6
ATOM      6  C   LIG    1       -0.016   1.354   0.009  0.00  0.00    -0.120 A 
ATOM      7  C   LIG    1        0.002  -0.004   0.002  0.00  0.00    +0.260 A 
ATOM      8  N   LIG    1        1.293  -0.447  -0.013  0.00  0.00    -0.580 N 
ATOM      9  H   LIG    1        1.560  -1.380  -0.021  0.00  0.00    +0.420 HD
ATOM     10  C   LIG    1        2.163   0.622  -0.015  0.00  0.00    +0.090 A 
ATOM     11  C   LIG    1        3.551   0.721  -0.028  0.00  0.00    -0.010 A 
ATOM     12  C   LIG    1        4.152   1.960  -0.027  0.00  0.00    +0.040 A 
ATOM     13  C   LIG    1        3.386   3.117  -0.013  0.00  0.00    -0.010 A 
ATOM     14  C   LIG    1        2.011   3.042  -0.001  0.00  0.00    +0.080 A 
ATOM     15  C   LIG    1        1.389   1.795  -0.002  0.00  0.00    -0.070 A 
ENDBRANCH   4   6
BRANCH   5  16
ATOM     16  C   LIG    1       -2.997   0.482   0.021  0.00  0.00    +0.110 A 
ATOM     17  C   LIG    1       -2.762  -0.336  -1.075  0.00  0.00    +0.050 A 
ATOM     18  C   LIG    1       -3.223  -1.638  -1.075  0.00  0.00    +0.050 A 
ATOM     19  C   LIG    1       -3.926  -2.124   0.013  0.00  0.00    -0.020 A 
ATOM     20  C   LIG    1       -4.166  -1.308   1.105  0.00  0.00    +0.060 A 
ATOM     21 CL   LIG    1       -4.509  -3.759   0.009  0.00  0.00    -0.050 Cl
ATOM     22  C   LIG    1       -3.703  -0.007   1.111  0.00  0.00    +0.060 A 
ENDBRANCH   5  16
BRANCH   1  23
ATOM     23  S   LIG    1       -5.034   3.050   0.043  0.00  0.00    +0.080 S 
BRANCH  23  25
ATOM     24  C   LIG    1       -4.707   5.433  -1.253  0.00  0.00    +0.080 C 
ATOM     25  C   LIG    1       -5.247   4.848   0.054  0.00  0.00    +0.010 C 
BRANCH  25  26
ATOM     26  C   LIG    1       -6.711   5.179   0.187  0.00  0.00    +0.550 C 
ATOM     27  N   LIG    1       -7.089   6.400   0.616  0.00  0.00    -0.610 N 
ATOM     28  C   LIG    1       -6.183   7.494   0.994  0.00  0.00    +0.240 C 
ATOM     29  C   LIG    1       -7.060   8.682   1.442  0.00  0.00    +0.040 C 
ATOM     30  C   LIG    1       -8.395   7.996   1.837  0.00  0.00    +0.040 C 
ATOM     31  C   LIG    1       -8.480   6.856   0.791  0.00  0.00    +0.250 C 
ATOM     32  O   LIG    1       -7.548   4.348  -0.093  0.00  0.00    -0.520 OA
ENDBRANCH  25  26
ENDBRANCH  23  25
ENDBRANCH   1  23
TORSDOF 5
