REMARK  Name = ZINCb80000003W6M.0
REMARK                            x       y       z     vdW  Elec       q    Type
REMARK                         _______ _______ _______ _____ _____    ______ ____
ROOT
ATOM      1  O   LIG    1       -3.499  -0.538  -0.829  0.00  0.00    -0.470 OA
ATOM      2  C   LIG    1       -2.557   0.071  -1.288  0.00  0.00    +0.540 C 
ATOM      3  N   LIG    1       -1.579  -0.424  -2.078  0.00  0.00    -0.690 N 
ATOM      4  H   LIG    1       -1.614  -1.310  -2.472  0.00  0.00    +0.420 HD
ATOM      5  C   LIG    1       -0.550   0.425  -2.269  0.00  0.00    +0.530 C 
ATOM      6  C   LIG    1       -0.716   1.574  -1.261  0.00  0.00    +0.030 C 
ATOM      7  C   LIG    1       -0.013   1.086   0.008  0.00  0.00    +0.090 C 
ATOM      8  C   LIG    1       -0.673   1.548   1.261  0.00  0.00    -0.050 C 
ATOM      9  C   LIG    1       -1.855   2.041   1.343  0.00  0.00    -0.030 C 
ATOM     10  C   LIG    1       -2.751   2.213   0.157  0.00  0.00    +0.100 C 
ATOM     11  O   LIG    1        0.340   0.305  -3.083  0.00  0.00    -0.470 OA
ATOM     12  C   LIG    1       -2.242   1.552  -1.081  0.00  0.00    +0.000 C 
ENDROOT
TORSDOF 0
