REMARK  Name = ZINCrD000000B0NG.0
REMARK                            x       y       z     vdW  Elec       q    Type
REMARK                         _______ _______ _______ _____ _____    ______ ____
ROOT
ATOM      1  O   LIG    1       -1.109   5.926   0.048  0.00  0.00    -0.510 OA
ATOM      2  C   LIG    1       -0.051   5.326   0.033  0.00  0.00    +0.560 C 
ATOM      3  N   LIG    1        1.111   6.008   0.025  0.00  0.00    -0.730 N 
ATOM      4  H   LIG    1        1.954   5.530   0.013  0.00  0.00    +0.400 HD
ENDROOT
BRANCH   2   5
ATOM      5  C   LIG    1       -0.040   3.850   0.025  0.00  0.00    -0.140 A 
ATOM      6  C   LIG    1        1.173   3.158   0.008  0.00  0.00    +0.050 A 
ATOM      7  C   LIG    1        1.179   1.780   0.000  0.00  0.00    +0.020 A 
ATOM      8  C   LIG    1       -0.013   1.076   0.008  0.00  0.00    +0.050 A 
ATOM      9  C   LIG    1       -1.225   1.748   0.017  0.00  0.00    +0.040 A 
ATOM     10  O   LIG    1       -2.384   1.034   0.024  0.00  0.00    -0.300 OA
ATOM     11  C   LIG    1       -3.570   1.734   0.417  0.00  0.00    +0.230 C 
ATOM     12  C   LIG    1       -3.596   3.083  -0.315  0.00  0.00    +0.220 C 
ATOM     13  O   LIG    1       -2.423   3.816   0.054  0.00  0.00    -0.270 OA
ATOM     14  C   LIG    1       -1.246   3.138   0.034  0.00  0.00    +0.110 A 
ENDBRANCH   2   5
BRANCH   3  15
ATOM     15  C   LIG    1        1.100   7.473   0.033  0.00  0.00    +0.300 C 
BRANCH  15  16
ATOM     16  C   LIG    1        2.538   7.994   0.020  0.00  0.00    +0.220 C 
BRANCH  16  17
ATOM     17  O   LIG    1        3.167   7.628  -1.210  0.00  0.00    -0.280 OA
BRANCH  17  18
ATOM     18  C   LIG    1        4.456   8.016  -1.383  0.00  0.00    +0.370 A 
ATOM     19  N   LIG    1        5.065   8.706  -0.433  0.00  0.00    -0.520 NA
ATOM     20  C   LIG    1        6.319   9.099  -0.558  0.00  0.00    +0.380 A 
ATOM     21  C   LIG    1        7.040   8.810  -1.699  0.00  0.00    -0.270 A 
ATOM     22  C   LIG    1        6.436   8.092  -2.722  0.00  0.00    +0.190 A 
ATOM     23  C   LIG    1        5.121   7.690  -2.559  0.00  0.00    -0.120 A 
ATOM     24 CL   LIG    1        4.315   6.790  -3.805  0.00  0.00    -0.020 Cl
BRANCH  21  25
ATOM     25  C   LIG    1        8.470   9.269  -1.832  0.00  0.00    +0.520 C 
ATOM     26  F   LIG    1        9.176   8.368  -2.635  0.00  0.00    -0.170 F 
ATOM     27  F   LIG    1        9.060   9.329  -0.566  0.00  0.00    -0.170 F 
ATOM     28  F   LIG    1        8.498  10.539  -2.420  0.00  0.00    -0.170 F 
ENDBRANCH  21  25
ENDBRANCH  17  18
ENDBRANCH  16  17
ENDBRANCH  15  16
ENDBRANCH   3  15
TORSDOF 6
