REMARK  Name = ZINCAx0000000iiy.0
REMARK                            x       y       z     vdW  Elec       q    Type
REMARK                         _______ _______ _______ _____ _____    ______ ____
ROOT
ATOM      1  N   LIG    1       -0.002   3.176  -1.501  0.00  0.00    -0.980 NA
ENDROOT
BRANCH   1   2
ATOM      2  S   LIG    1       -1.656   3.194  -1.442  0.00  0.00    +2.610 S 
ATOM      3  O   LIG    1       -1.973   2.460  -0.267  0.00  0.00    -0.920 OA
ATOM      4  O   LIG    1       -2.058   2.732  -2.724  0.00  0.00    -0.950 OA
ATOM      5  C   LIG    1       -2.083   4.944  -1.234  0.00  0.00    -0.300 C 
ENDBRANCH   1   2
BRANCH   1   6
ATOM      6  C   LIG    1        0.773   2.943  -0.279  0.00  0.00    +0.310 C 
BRANCH   6  11
ATOM      7  N   LIG    1        2.199  -0.226   1.240  0.00  0.00    -0.520 NA
ATOM      8  C   LIG    1        0.943  -0.989   1.280  0.00  0.00    +0.140 C 
ATOM      9  C   LIG    1        0.148  -0.722  -0.001  0.00  0.00    +0.220 C 
ATOM     10  O   LIG    1       -0.077   0.684  -0.131  0.00  0.00    -0.340 OA
ATOM     11  C   LIG    1        1.125   1.458  -0.174  0.00  0.00    +0.160 C 
ATOM     12  C   LIG    1        1.929   1.213   1.105  0.00  0.00    +0.150 C 
BRANCH   7  13
ATOM     13  C   LIG    1        3.019  -0.499   2.428  0.00  0.00    +0.260 C 
BRANCH  13  15
ATOM     14  C   LIG    1        2.809   1.371   4.005  0.00  0.00    +0.060 C 
ATOM     15  C   LIG    1        2.400   0.167   3.630  0.00  0.00    -0.130 C 
BRANCH  15  16
ATOM     16  C   LIG    1        1.336  -0.522   4.390  0.00  0.00    -0.040 A 
ATOM     17  C   LIG    1        1.610  -1.722   5.048  0.00  0.00    +0.030 A 
ATOM     18  C   LIG    1        0.614  -2.358   5.761  0.00  0.00    +0.020 A 
ATOM     19  C   LIG    1       -0.657  -1.813   5.816  0.00  0.00    -0.030 A 
ATOM     20  C   LIG    1       -0.937  -0.625   5.160  0.00  0.00    +0.030 A 
ATOM     21 CL   LIG    1       -1.907  -2.622   6.709  0.00  0.00    -0.070 Cl
ATOM     22  C   LIG    1        0.052   0.022   4.449  0.00  0.00    +0.040 A 
ENDBRANCH  15  16
ENDBRANCH  13  15
ENDBRANCH   7  13
ENDBRANCH   6  11
ENDBRANCH   1   6
BRANCH   1  23
ATOM     23  C   LIG    1        0.688   3.394  -2.775  0.00  0.00    +0.330 C 
BRANCH  23  24
ATOM     24  C   LIG    1        1.010   2.064  -3.405  0.00  0.00    +0.490 C 
ATOM     25  N   LIG    1        1.649   2.017  -4.591  0.00  0.00    -0.730 N 
ATOM     26  H   LIG    1        1.902   2.840  -5.039  0.00  0.00    +0.400 HD
ATOM     27  O   LIG    1        0.695   1.035  -2.846  0.00  0.00    -0.500 OA
BRANCH  25  28
ATOM     28  C   LIG    1        1.962   0.724  -5.204  0.00  0.00    +0.250 C 
ATOM     29  C   LIG    1        2.090   0.892  -6.721  0.00  0.00    +0.020 C 
ATOM     30  C   LIG    1        2.162  -0.485  -7.383  0.00  0.00    +0.140 C 
ATOM     31  C   LIG    1        3.239  -1.305  -6.689  0.00  0.00    +0.070 A 
ATOM     32  C   LIG    1        3.727  -0.984  -5.476  0.00  0.00    -0.220 A 
ATOM     33  S   LIG    1        4.946  -2.172  -5.031  0.00  0.00    +0.120 S 
ATOM     34  C   LIG    1        4.696  -2.994  -6.508  0.00  0.00    +0.050 A 
ATOM     35  C   LIG    1        5.425  -4.241  -6.936  0.00  0.00    +0.180 C 
ATOM     36  N   LIG    1        3.793  -2.394  -7.202  0.00  0.00    -0.470 NA
ATOM     37  C   LIG    1        3.291   0.200  -4.647  0.00  0.00    +0.120 C 
ENDBRANCH  25  28
ENDBRANCH  23  24
ENDBRANCH   1  23
TORSDOF 9
