REMARK  Name = ZINCrH000004ogyv.0
REMARK                            x       y       z     vdW  Elec       q    Type
REMARK                         _______ _______ _______ _____ _____    ______ ____
ROOT
ATOM      1  N   LIG    1       -1.710   5.387  -1.435  0.00  0.00    -0.740 N 
ATOM      2  H   LIG    1       -0.828   5.730  -1.223  0.00  0.00    +0.400 HD
ATOM      3  C   LIG    1       -2.641   6.204  -1.966  0.00  0.00    +0.710 C 
ATOM      4  N   LIG    1       -2.347   7.497  -2.203  0.00  0.00    -0.630 N 
ATOM      5  C   LIG    1       -1.014   8.016  -1.883  0.00  0.00    +0.280 C 
ATOM      6  O   LIG    1       -3.747   5.773  -2.231  0.00  0.00    -0.580 OA
ENDROOT
BRANCH   1   8
ATOM      7  C   LIG    1       -2.708   3.854   0.188  0.00  0.00    +0.040 C 
ATOM      8  C   LIG    1       -2.030   3.981  -1.178  0.00  0.00    +0.310 C 
BRANCH   8   9
ATOM      9  C   LIG    1       -0.761   3.167  -1.186  0.00  0.00    -0.080 A 
ATOM     10  C   LIG    1        0.387   3.674  -0.606  0.00  0.00    +0.030 A 
ATOM     11  C   LIG    1        1.553   2.931  -0.611  0.00  0.00    +0.040 A 
ATOM     12  C   LIG    1        1.574   1.677  -1.197  0.00  0.00    +0.030 A 
ATOM     13  O   LIG    1        2.574   0.758  -1.335  0.00  0.00    -0.310 OA
ATOM     14  C   LIG    1        1.915  -0.484  -1.646  0.00  0.00    +0.430 C 
ATOM     15  O   LIG    1        0.693  -0.072  -2.285  0.00  0.00    -0.310 OA
ATOM     16  C   LIG    1        0.417   1.166  -1.782  0.00  0.00    +0.040 A 
ATOM     17  C   LIG    1       -0.747   1.917  -1.777  0.00  0.00    +0.050 A 
ENDBRANCH   8   9
ENDBRANCH   1   8
BRANCH   4  18
ATOM     18  C   LIG    1       -3.359   8.385  -2.780  0.00  0.00    +0.320 C 
ATOM     19  C   LIG    1       -2.700   9.315  -3.801  0.00  0.00    +0.050 C 
BRANCH  18  20
ATOM     20  C   LIG    1       -3.989   9.207  -1.685  0.00  0.00    -0.090 A 
ATOM     21  C   LIG    1       -3.195   9.795  -0.718  0.00  0.00    +0.070 A 
ATOM     22  C   LIG    1       -3.773  10.550   0.286  0.00  0.00    +0.030 A 
ATOM     23  C   LIG    1       -5.145  10.716   0.323  0.00  0.00    +0.090 A 
ATOM     24  C   LIG    1       -5.939  10.129  -0.644  0.00  0.00    -0.040 A 
ATOM     25  C   LIG    1       -5.361   9.379  -1.651  0.00  0.00    +0.120 A 
BRANCH  24  26
ATOM     26  N   LIG    1       -7.408  10.307  -0.605  0.00  0.00    +0.030 N 
ATOM     27  O   LIG    1       -8.107   9.789  -1.457  0.00  0.00    -0.150 OA
ATOM     28  O   LIG    1       -7.917  10.972   0.279  0.00  0.00    -0.160 OA
ENDBRANCH  24  26
ENDBRANCH  18  20
ENDBRANCH   4  18
TORSDOF 5
