REMARK  Name = ZINCpk00000y6tNM.0
REMARK                            x       y       z     vdW  Elec       q    Type
REMARK                         _______ _______ _______ _____ _____    ______ ____
ROOT
ATOM      1  C   LIG    1        2.291   0.724  -0.043  0.00  0.00    +0.000 C 
ATOM      2  C   LIG    1        1.368   1.960  -0.001  0.00  0.00    +0.270 C 
ATOM      3  N   LIG    1       -0.018   1.470   0.010  0.00  0.00    -0.610 N 
ATOM      4  C   LIG    1        0.002  -0.004   0.002  0.00  0.00    +0.290 C 
ATOM      5  C   LIG    1       -1.124   2.240   0.020  0.00  0.00    +0.610 C 
ATOM      6  O   LIG    1       -2.225   1.724   0.022  0.00  0.00    -0.530 OA
ATOM      7  C   LIG    1        1.368  -0.379  -0.625  0.00  0.00    +0.100 C 
ENDROOT
BRANCH   7   8
ATOM      8  C   LIG    1        1.811  -1.747  -0.176  0.00  0.00    -0.230 A 
ATOM      9  C   LIG    1        2.081  -2.801  -0.982  0.00  0.00    +0.260 A 
ATOM     10  N   LIG    1        2.444  -3.837  -0.197  0.00  0.00    -0.380 N 
ATOM     11  N   LIG    1        2.396  -3.405   1.135  0.00  0.00    -0.290 NA
ATOM     12  C   LIG    1        2.822  -5.175  -0.656  0.00  0.00    +0.360 C 
ATOM     13  C   LIG    1        2.023  -2.151   1.146  0.00  0.00    +0.230 A 
ENDBRANCH   7   8
BRANCH   1  17
ATOM     14  C   LIG    1        5.536   2.132  -1.507  0.00  0.00    +0.290 C 
ATOM     15  N   LIG    1        4.392   1.894  -0.624  0.00  0.00    -0.740 N 
ATOM     16  H   LIG    1        4.299   2.402   0.197  0.00  0.00    +0.400 HD
ATOM     17  C   LIG    1        3.468   0.969  -0.952  0.00  0.00    +0.530 C 
ATOM     18  O   LIG    1        3.584   0.334  -1.978  0.00  0.00    -0.520 OA
ENDBRANCH   1  17
BRANCH   5  19
ATOM     19  C   LIG    1       -0.999   3.709   0.027  0.00  0.00    -0.240 A 
ATOM     20  C   LIG    1       -2.011   4.623   0.032  0.00  0.00    +0.120 A 
ATOM     21  O   LIG    1       -1.475   5.847   0.040  0.00  0.00    -0.170 OA
ATOM     22  C   LIG    1       -0.134   5.782   0.033  0.00  0.00    +0.180 A 
ATOM     23  C   LIG    1        0.244   4.495   0.025  0.00  0.00    -0.040 A 
BRANCH  20  24
ATOM     24  C   LIG    1       -3.485   4.306   0.030  0.00  0.00    +0.060 C 
ATOM     25  C   LIG    1       -4.457   5.470  -0.168  0.00  0.00    +0.040 C 
ATOM     26  C   LIG    1       -4.318   4.815   1.208  0.00  0.00    +0.050 C 
ENDBRANCH  20  24
ENDBRANCH   5  19
TORSDOF 4
