REMARK  Name = ZINCrD000000BqzR.0
REMARK                            x       y       z     vdW  Elec       q    Type
REMARK                         _______ _______ _______ _____ _____    ______ ____
ROOT
ATOM      1  C   LIG    1       -3.795   5.860   0.069  0.00  0.00    +0.550 C 
ATOM      2  N   LIG    1       -3.861   7.206   0.077  0.00  0.00    -0.710 N 
ATOM      3  H   LIG    1       -3.046   7.732   0.072  0.00  0.00    +0.410 HD
ATOM      4  O   LIG    1       -4.815   5.201   0.075  0.00  0.00    -0.520 OA
ENDROOT
BRANCH   1   8
ATOM      5  O   LIG    1        0.950   5.978   0.024  0.00  0.00    -0.480 OA
ATOM      6  C   LIG    1       -0.075   5.316   0.031  0.00  0.00    +0.420 A 
ATOM      7  C   LIG    1       -1.350   5.941   0.046  0.00  0.00    -0.100 A 
ATOM      8  C   LIG    1       -2.475   5.183   0.053  0.00  0.00    +0.170 A 
ATOM      9  N   LIG    1       -2.435   3.819   0.045  0.00  0.00    -0.590 N 
ATOM     10  H   LIG    1       -3.267   3.321   0.051  0.00  0.00    +0.430 HD
ATOM     11  C   LIG    1       -1.243   3.133   0.031  0.00  0.00    +0.210 A 
ATOM     12  C   LIG    1       -1.219   1.741   0.017  0.00  0.00    -0.010 A 
ATOM     13  C   LIG    1       -0.013   1.076   0.008  0.00  0.00    +0.130 A 
ATOM     14  C   LIG    1        1.186   1.779   0.000  0.00  0.00    -0.130 A 
ATOM     15  C   LIG    1        1.185   3.157   0.008  0.00  0.00    +0.150 A 
ATOM     16 BR   LIG    1        2.827   0.840  -0.021  0.00  0.00    -0.040 Br
ATOM     17  C   LIG    1       -0.029   3.845   0.023  0.00  0.00    -0.200 A 
ENDBRANCH   1   8
BRANCH   2  18
ATOM     18  C   LIG    1       -5.165   7.875   0.093  0.00  0.00    +0.340 C 
BRANCH  18  19
ATOM     19  C   LIG    1       -4.963   9.368   0.099  0.00  0.00    -0.110 A 
ATOM     20  C   LIG    1       -4.865  10.045   1.300  0.00  0.00    +0.050 A 
ATOM     21  C   LIG    1       -4.674  11.416   1.313  0.00  0.00    +0.020 A 
ATOM     22  C   LIG    1       -4.592  12.109   0.118  0.00  0.00    +0.080 A 
ATOM     23  O   LIG    1       -4.410  13.461   0.116  0.00  0.00    -0.320 OA
ATOM     24  C   LIG    1       -3.148  13.920  -0.373  0.00  0.00    +0.230 C 
ATOM     25  C   LIG    1       -3.166  14.034  -1.889  0.00  0.00    -0.010 C 
ATOM     26  C   LIG    1       -3.340  12.684  -2.569  0.00  0.00    +0.230 C 
ATOM     27  O   LIG    1       -4.617  12.122  -2.261  0.00  0.00    -0.320 OA
ATOM     28  C   LIG    1       -4.697  11.430  -1.088  0.00  0.00    +0.070 A 
ATOM     29  C   LIG    1       -4.882  10.058  -1.098  0.00  0.00    +0.050 A 
ENDBRANCH  18  19
ENDBRANCH   2  18
TORSDOF 3
