REMARK  Name = ZINCrH000004vE7N.0
REMARK                            x       y       z     vdW  Elec       q    Type
REMARK                         _______ _______ _______ _____ _____    ______ ____
ROOT
ATOM      1  O   LIG    1        0.719   3.715  -0.042  0.00  0.00    -0.530 OA
ATOM      2  C   LIG    1        1.393   4.725   0.014  0.00  0.00    +0.610 C 
ATOM      3  N   LIG    1        0.795   5.928   0.128  0.00  0.00    -0.600 N 
ATOM      4  C   LIG    1       -0.667   6.037   0.248  0.00  0.00    +0.310 C 
ATOM      5  C   LIG    1       -1.007   6.629   1.626  0.00  0.00    +0.110 C 
ATOM      6  C   LIG    1       -0.111   7.816   1.886  0.00  0.00    +0.080 A 
ATOM      7  C   LIG    1        1.043   8.053   1.225  0.00  0.00    -0.180 A 
ATOM      8  C   LIG    1        1.607   9.271   1.768  0.00  0.00    -0.090 A 
ATOM      9  C   LIG    1        2.771   9.989   1.480  0.00  0.00    +0.060 A 
ATOM     10  C   LIG    1        2.994  11.129   2.213  0.00  0.00    -0.030 A 
ATOM     11  C   LIG    1        2.114  11.559   3.192  0.00  0.00    +0.020 A 
ATOM     12  C   LIG    1        0.954  10.867   3.497  0.00  0.00    +0.000 A 
ATOM     13  C   LIG    1        0.702   9.706   2.771  0.00  0.00    +0.100 A 
ATOM     14  N   LIG    1       -0.323   8.805   2.812  0.00  0.00    -0.590 N 
ATOM     15  H   LIG    1       -1.086   8.856   3.408  0.00  0.00    +0.420 HD
ATOM     16  C   LIG    1        1.587   7.170   0.129  0.00  0.00    +0.380 C 
ENDROOT
BRANCH   2  17
ATOM     17  C   LIG    1        2.864   4.635  -0.043  0.00  0.00    -0.090 A 
ATOM     18  C   LIG    1        3.595   3.481  -0.027  0.00  0.00    +0.310 A 
ATOM     19  N   LIG    1        4.895   3.841  -0.094  0.00  0.00    -0.310 N 
ATOM     20  N   LIG    1        4.925   5.242  -0.145  0.00  0.00    -0.050 NA
ATOM     21  N   LIG    1        3.712   5.675  -0.119  0.00  0.00    -0.190 NA
BRANCH  19  22
ATOM     22  C   LIG    1        6.002   2.980  -0.105  0.00  0.00    +0.140 A 
ATOM     23  C   LIG    1        7.287   3.500  -0.178  0.00  0.00    +0.060 A 
ATOM     24  C   LIG    1        8.375   2.650  -0.188  0.00  0.00    +0.060 A 
ATOM     25  C   LIG    1        8.187   1.282  -0.127  0.00  0.00    +0.070 A 
ATOM     26  C   LIG    1        6.907   0.760  -0.054  0.00  0.00    -0.070 A 
ATOM     27 BR   LIG    1        6.654  -1.112   0.031  0.00  0.00    -0.020 Br
ATOM     28  C   LIG    1        5.814   1.606  -0.037  0.00  0.00    +0.050 A 
ENDBRANCH  19  22
ENDBRANCH   2  17
TORSDOF 2
