REMARK  Name = ZINCpe000000UDhI.1
REMARK                            x       y       z     vdW  Elec       q    Type
REMARK                         _______ _______ _______ _____ _____    ______ ____
ROOT
ATOM      1  C   LIG    1       -0.454   1.480   0.158  0.00  0.00    +0.210 C 
ENDROOT
BRANCH   1   2
ATOM      2  O   LIG    1       -1.423   1.935  -0.788  0.00  0.00    -0.540 OA
ATOM      3  H   LIG    1       -2.323   1.630  -0.607  0.00  0.00    +0.370 HD
ENDBRANCH   1   2
BRANCH   1   4
ATOM      4  C   LIG    1       -0.828   1.982   1.554  0.00  0.00    +0.280 C 
BRANCH   4   6
ATOM      5  C   LIG    1       -2.104   4.152   1.235  0.00  0.00    +0.280 C 
ATOM      6  N   LIG    1       -0.860   3.446   1.554  0.00  0.00    -0.610 N 
ATOM      7  C   LIG    1        0.254   4.145   1.848  0.00  0.00    +0.530 C 
ATOM      8  O   LIG    1        1.304   3.564   2.027  0.00  0.00    -0.510 OA
BRANCH   7   9
ATOM      9  C   LIG    1        0.196   5.647   1.955  0.00  0.00    +0.120 C 
ATOM     10  C   LIG    1        0.098   6.255   0.554  0.00  0.00    +0.220 C 
ATOM     11  N   LIG    1        0.119   7.722   0.659  0.00  0.00    -0.680 NA
ATOM     12  H   LIG    1       -0.699   8.061   1.142  0.00  0.00    +0.340 HD
ATOM     13  C   LIG    1        1.349   8.178   1.322  0.00  0.00    +0.200 C 
ATOM     14  C   LIG    1        1.435   7.550   2.716  0.00  0.00    +0.180 C 
ATOM     15  O   LIG    1        1.382   6.126   2.595  0.00  0.00    -0.350 OA
ENDBRANCH   7   9
ENDBRANCH   4   6
ENDBRANCH   1   4
BRANCH   1  16
ATOM     16  C   LIG    1       -0.420  -0.050   0.158  0.00  0.00    +0.180 C 
BRANCH  16  17
ATOM     17  O   LIG    1        0.042  -0.516  -1.112  0.00  0.00    -0.290 OA
BRANCH  17  18
ATOM     18  C   LIG    1        0.131  -1.861  -1.280  0.00  0.00    +0.180 A 
ATOM     19  C   LIG    1       -0.219  -2.716  -0.244  0.00  0.00    -0.070 A 
ATOM     20  C   LIG    1       -0.128  -4.083  -0.417  0.00  0.00    +0.090 A 
ATOM     21  C   LIG    1        0.312  -4.601  -1.622  0.00  0.00    -0.020 A 
ATOM     22  C   LIG    1        0.662  -3.751  -2.655  0.00  0.00    +0.120 A 
ATOM     23  C   LIG    1        0.567  -2.384  -2.489  0.00  0.00    -0.220 A 
BRANCH  23  24
ATOM     24  C   LIG    1        0.941  -1.459  -3.619  0.00  0.00    +0.520 C 
ATOM     25  F   LIG    1        1.990  -0.627  -3.212  0.00  0.00    -0.170 F 
ATOM     26  F   LIG    1       -0.165  -0.677  -3.967  0.00  0.00    -0.170 F 
ATOM     27  F   LIG    1        1.346  -2.213  -4.725  0.00  0.00    -0.180 F 
ENDBRANCH  23  24
ENDBRANCH  17  18
ENDBRANCH  16  17
ENDBRANCH   1  16
TORSDOF 8
