REMARK  Name = ZINCrD00000dX3kr.0
REMARK                            x       y       z     vdW  Elec       q    Type
REMARK                         _______ _______ _______ _____ _____    ______ ____
ROOT
ATOM      1  N   LIG    1        1.160   7.313   1.162  0.00  0.00    -0.680 N 
ATOM      2  H   LIG    1        1.946   7.865   1.298  0.00  0.00    +0.410 HD
ATOM      3  C   LIG    1       -0.056   7.885   1.062  0.00  0.00    +0.710 C 
ATOM      4  N   LIG    1       -0.164   9.224   0.958  0.00  0.00    -0.620 N 
ATOM      5  C   LIG    1       -1.480   9.880   0.990  0.00  0.00    +0.310 C 
ATOM      6  C   LIG    1       -1.434  11.003   2.038  0.00  0.00    +0.180 C 
ATOM      7  N   LIG    1       -0.303  11.894   1.743  0.00  0.00    -0.530 NA
ATOM      8  C   LIG    1        0.978  11.184   1.852  0.00  0.00    +0.170 C 
ATOM      9  C   LIG    1        1.030  10.068   0.802  0.00  0.00    +0.280 C 
ATOM     10  O   LIG    1       -1.055   7.192   1.066  0.00  0.00    -0.560 OA
ENDROOT
BRANCH   1  14
ATOM     11  C   LIG    1        1.545   3.166   0.885  0.00  0.00    -0.010 A 
ATOM     12  C   LIG    1        0.347   3.726   1.311  0.00  0.00    +0.120 A 
ATOM     13  C   LIG    1        0.222   5.100   1.408  0.00  0.00    +0.000 A 
ATOM     14  C   LIG    1        1.290   5.920   1.069  0.00  0.00    +0.220 A 
ATOM     15  C   LIG    1        2.486   5.362   0.639  0.00  0.00    -0.050 A 
ATOM     16  F   LIG    1       -0.695   2.929   1.634  0.00  0.00    -0.120 F 
ATOM     17  C   LIG    1        2.614   3.988   0.547  0.00  0.00    +0.180 A 
ATOM     18  F   LIG    1        3.778   3.444   0.129  0.00  0.00    -0.110 F 
BRANCH  11  20
ATOM     19  C   LIG    1        1.464   1.136   2.099  0.00  0.00    +0.210 C 
ATOM     20  N   LIG    1        1.675   1.773   0.792  0.00  0.00    -0.500 N 
ATOM     21  C   LIG    1        0.756   1.225  -0.215  0.00  0.00    +0.210 C 
ENDBRANCH  11  20
ENDBRANCH   1  14
BRANCH   7  22
ATOM     22  C   LIG    1       -0.325  13.078   2.613  0.00  0.00    +0.230 C 
BRANCH  22  23
ATOM     23  C   LIG    1       -1.540  13.911   2.297  0.00  0.00    -0.080 A 
ATOM     24  C   LIG    1       -1.466  14.908   1.342  0.00  0.00    +0.020 A 
ATOM     25  C   LIG    1       -2.582  15.669   1.050  0.00  0.00    +0.000 A 
ATOM     26  C   LIG    1       -3.769  15.441   1.719  0.00  0.00    +0.000 A 
ATOM     27  C   LIG    1       -3.842  14.448   2.678  0.00  0.00    +0.000 A 
ATOM     28  C   LIG    1       -2.728  13.683   2.967  0.00  0.00    +0.000 A 
ENDBRANCH  22  23
ENDBRANCH   7  22
TORSDOF 4
