REMARK  Name = ZINC560000002L7M.0
REMARK                            x       y       z     vdW  Elec       q    Type
REMARK                         _______ _______ _______ _____ _____    ______ ____
ROOT
ATOM      1  O   LIG    1        0.002  -0.004   0.002  0.00  0.00    -0.670 OA
ATOM      2  C   LIG    1       -0.015   1.215   0.009  0.00  0.00    +0.510 C 
ATOM      3  O   LIG    1        1.033   1.839   0.002  0.00  0.00    -0.690 OA
ENDROOT
BRANCH   2   4
ATOM      4  C   LIG    1       -1.330   1.951   0.019  0.00  0.00    +0.030 C 
BRANCH   4   5
ATOM      5  S   LIG    1       -2.692   0.753   0.019  0.00  0.00    -0.200 S 
ATOM      6  H   LIG    1       -3.785   1.538   0.028  0.00  0.00    +0.030 HD
ENDBRANCH   4   5
ENDBRANCH   2   4
TORSDOF 2
