REMARK  Name = ZINCrH000004tmHt.0
REMARK                            x       y       z     vdW  Elec       q    Type
REMARK                         _______ _______ _______ _____ _____    ______ ____
ROOT
ATOM      1  C   LIG    1       -1.097   7.791   0.056  0.00  0.00    +0.510 C 
ATOM      2  N   LIG    1       -2.133   8.653   0.070  0.00  0.00    -0.610 N 
ATOM      3  C   LIG    1       -3.517   8.159   0.074  0.00  0.00    +0.280 C 
ATOM      4  C   LIG    1       -4.281   8.811  -1.077  0.00  0.00    +0.040 C 
ATOM      5  C   LIG    1       -4.155  10.333  -0.973  0.00  0.00    -0.030 C 
ATOM      6  C   LIG    1       -2.682  10.733  -1.081  0.00  0.00    +0.040 C 
ATOM      7  C   LIG    1       -1.900  10.103   0.076  0.00  0.00    +0.280 C 
ATOM      8  O   LIG    1        0.041   8.211   0.047  0.00  0.00    -0.530 OA
ENDROOT
BRANCH   5   9
ATOM      9  C   LIG    1       -4.934  10.978  -2.090  0.00  0.00    +0.400 C 
ATOM     10  O   LIG    1       -4.393  11.210  -3.151  0.00  0.00    -0.440 OA
BRANCH   9  11
ATOM     11  C   LIG    1       -6.349  11.327  -1.895  0.00  0.00    -0.170 A 
ATOM     12  C   LIG    1       -6.978  11.055  -0.675  0.00  0.00    +0.080 A 
ATOM     13  C   LIG    1       -8.303  11.388  -0.497  0.00  0.00    +0.020 A 
ATOM     14  C   LIG    1       -9.016  11.982  -1.527  0.00  0.00    -0.000 A 
ATOM     15  C   LIG    1       -8.401  12.249  -2.739  0.00  0.00    +0.020 A 
ATOM     16 CL   LIG    1      -10.687  12.392  -1.296  0.00  0.00    -0.060 Cl
ATOM     17  C   LIG    1       -7.075  11.926  -2.930  0.00  0.00    +0.090 A 
ENDBRANCH   9  11
ENDBRANCH   5   9
BRANCH   1  18
ATOM     18  C   LIG    1       -1.352   6.306   0.050  0.00  0.00    +0.300 C 
BRANCH  18  19
ATOM     19  N   LIG    1       -0.074   5.591   0.033  0.00  0.00    -0.730 N 
ATOM     20  H   LIG    1        0.760   6.087   0.028  0.00  0.00    +0.420 HD
BRANCH  19  24
ATOM     21  C   LIG    1       -0.017   1.428   0.010  0.00  0.00    -0.100 A 
ATOM     22  C   LIG    1       -1.237   2.112   0.019  0.00  0.00    +0.110 A 
ATOM     23  C   LIG    1       -1.252   3.488   0.033  0.00  0.00    -0.080 A 
ATOM     24  C   LIG    1       -0.055   4.199   0.025  0.00  0.00    +0.250 A 
ATOM     25  C   LIG    1        1.161   3.521   0.010  0.00  0.00    -0.060 A 
ATOM     26  C   LIG    1        1.183   2.145   0.002  0.00  0.00    +0.110 A 
BRANCH  21  28
ATOM     27  N   LIG    1        0.018  -1.140  -0.004  0.00  0.00    -0.430 NA
ATOM     28  C   LIG    1        0.002  -0.004   0.002  0.00  0.00    +0.260 C 
ENDBRANCH  21  28
ENDBRANCH  19  24
ENDBRANCH  18  19
ENDBRANCH   1  18
TORSDOF 6
