REMARK  Name = ZINCvU0000000CbV.0
REMARK                            x       y       z     vdW  Elec       q    Type
REMARK                         _______ _______ _______ _____ _____    ______ ____
ROOT
ATOM      1  C   LIG    1       -5.826   0.201   3.440  0.00  0.00    +0.560 C 
ATOM      2  N   LIG    1       -5.378   0.671   4.621  0.00  0.00    -0.720 N 
ATOM      3  H   LIG    1       -4.618   1.272   4.647  0.00  0.00    +0.400 HD
ATOM      4  O   LIG    1       -6.779  -0.553   3.408  0.00  0.00    -0.500 OA
ENDROOT
BRANCH   1   9
ATOM      5  C   LIG    1       -3.446   1.840   1.041  0.00  0.00    -0.690 A 
ATOM      6  C   LIG    1       -3.912   1.360  -0.171  0.00  0.00    +0.180 A 
ATOM      7  C   LIG    1       -4.992   0.497  -0.212  0.00  0.00    +0.010 A 
ATOM      8  C   LIG    1       -5.621   0.118   0.958  0.00  0.00    +0.070 A 
ATOM      9  C   LIG    1       -5.159   0.603   2.184  0.00  0.00    -0.150 A 
ATOM     10 CL   LIG    1       -6.981  -0.959   0.904  0.00  0.00    -0.010 Cl
ATOM     11  C   LIG    1       -4.065   1.469   2.217  0.00  0.00    +0.170 A 
BRANCH   5  12
ATOM     12  S   LIG    1       -2.065   2.933   1.082  0.00  0.00    +2.690 S 
ATOM     13  O   LIG    1       -2.004   3.550  -0.197  0.00  0.00    -0.950 OA
ATOM     14  O   LIG    1       -2.169   3.666   2.295  0.00  0.00    -0.950 OA
BRANCH  12  15
ATOM     15  N   LIG    1       -0.704   1.998   1.216  0.00  0.00    -0.990 NA
ATOM     16  C   LIG    1       -0.186   1.644   2.540  0.00  0.00    +0.310 C 
BRANCH  15  18
ATOM     17  C   LIG    1        0.002  -0.004   0.002  0.00  0.00    +0.020 C 
ATOM     18  C   LIG    1       -0.019   1.526   0.010  0.00  0.00    +0.240 C 
ATOM     19  C   LIG    1        1.417   2.055  -0.000  0.00  0.00    +0.030 C 
ENDBRANCH  15  18
ENDBRANCH  12  15
ENDBRANCH   5  12
ENDBRANCH   1   9
BRANCH   2  20
ATOM     20  C   LIG    1       -6.039   0.272   5.866  0.00  0.00    +0.390 C 
BRANCH  20  21
ATOM     21  C   LIG    1       -5.065   0.386   7.011  0.00  0.00    -0.110 A 
ATOM     22  C   LIG    1       -4.187   1.452   7.067  0.00  0.00    +0.050 A 
ATOM     23  C   LIG    1       -3.297   1.560   8.119  0.00  0.00    -0.010 A 
ATOM     24  C   LIG    1       -3.277   0.594   9.110  0.00  0.00    +0.110 A 
ATOM     25  C   LIG    1       -4.154  -0.477   9.050  0.00  0.00    -0.010 A 
ATOM     26  F   LIG    1       -2.405   0.695  10.136  0.00  0.00    -0.140 F 
ATOM     27  C   LIG    1       -5.047  -0.580   8.000  0.00  0.00    +0.070 A 
ENDBRANCH  20  21
BRANCH  20  28
ATOM     28  C   LIG    1       -7.219   1.175   6.119  0.00  0.00    -0.190 A 
ATOM     29  C   LIG    1       -8.402   0.779   6.593  0.00  0.00    +0.020 A 
ATOM     30  C   LIG    1       -9.337   1.789   6.744  0.00  0.00    +0.010 A 
ATOM     31  C   LIG    1       -8.913   3.004   6.394  0.00  0.00    -0.040 A 
ATOM     32  S   LIG    1       -7.245   2.911   5.843  0.00  0.00    +0.110 S 
ENDBRANCH  20  28
ENDBRANCH   2  20
TORSDOF 7
