REMARK  Name = ZINCpk00000KfKC2.0
REMARK                            x       y       z     vdW  Elec       q    Type
REMARK                         _______ _______ _______ _____ _____    ______ ____
ROOT
ATOM      1  C   LIG    1        2.904   4.262  -1.465  0.00  0.00    -0.610 C 
ATOM      2  C   LIG    1        2.957   2.730  -1.582  0.00  0.00    +0.110 C 
ATOM      3  C   LIG    1        3.940   2.933  -2.750  0.00  0.00    +0.060 C 
ATOM      4  C   LIG    1        4.301   4.283  -2.108  0.00  0.00    +0.090 C 
ENDROOT
BRANCH   1   5
ATOM      5  C   LIG    1        1.837   4.897  -2.320  0.00  0.00    +0.550 C 
ATOM      6  N   LIG    1        2.053   6.102  -2.883  0.00  0.00    -0.720 N 
ATOM      7  H   LIG    1        2.867   6.591  -2.685  0.00  0.00    +0.410 HD
ATOM      8  O   LIG    1        0.784   4.323  -2.500  0.00  0.00    -0.490 OA
BRANCH   6   9
ATOM      9  C   LIG    1        1.058   6.673  -3.795  0.00  0.00    +0.250 C 
ATOM     10  C   LIG    1        1.652   7.891  -4.506  0.00  0.00    +0.050 C 
ATOM     11  C   LIG    1        2.592   8.646  -3.584  0.00  0.00    +0.010 C 
ATOM     12  C   LIG    1        1.897   9.303  -2.406  0.00  0.00    +0.010 C 
ATOM     13  C   LIG    1        1.335   8.251  -1.448  0.00  0.00    +0.260 C 
ATOM     14  N   LIG    1       -0.008   7.863  -1.910  0.00  0.00    -0.720 N 
ATOM     15  H   LIG    1       -0.790   8.150  -1.414  0.00  0.00    +0.400 HD
ATOM     16  C   LIG    1       -0.155   7.120  -3.008  0.00  0.00    +0.510 C 
ATOM     17  O   LIG    1       -1.266   6.801  -3.377  0.00  0.00    -0.530 OA
ENDBRANCH   6   9
ENDBRANCH   1   5
BRANCH   1  18
ATOM     18  S   LIG    1        2.883   4.860   0.247  0.00  0.00    +2.510 S 
ATOM     19  O   LIG    1        3.699   4.039   1.072  0.00  0.00    -0.920 OA
ATOM     20  O   LIG    1        2.996   6.276   0.282  0.00  0.00    -0.930 OA
BRANCH  18  25
ATOM     21  C   LIG    1       -2.739   3.763   2.143  0.00  0.00    +0.090 C 
ATOM     22  C   LIG    1       -1.333   4.038   1.673  0.00  0.00    -0.020 A 
ATOM     23  C   LIG    1       -0.375   3.044   1.740  0.00  0.00    -0.010 A 
ATOM     24  C   LIG    1        0.912   3.295   1.304  0.00  0.00    +0.130 A 
ATOM     25  C   LIG    1        1.243   4.541   0.804  0.00  0.00    -0.660 A 
ATOM     26  C   LIG    1        0.285   5.536   0.742  0.00  0.00    +0.120 A 
ATOM     27  C   LIG    1       -1.002   5.285   1.179  0.00  0.00    -0.010 A 
ENDBRANCH  18  25
ENDBRANCH   1  18
TORSDOF 4
