REMARK  Name = ZINCqH0000000r9n.0
REMARK                            x       y       z     vdW  Elec       q    Type
REMARK                         _______ _______ _______ _____ _____    ______ ____
ROOT
ATOM      1  C   LIG    1       -2.314  -2.778   0.491  0.00  0.00    +0.270 A 
ATOM      2  N   LIG    1       -1.149  -2.278   0.763  0.00  0.00    -0.490 NA
ATOM      3  C   LIG    1       -1.024  -0.961   0.680  0.00  0.00    +0.130 A 
ATOM      4  C   LIG    1       -2.139  -0.298   0.324  0.00  0.00    -0.110 A 
ATOM      5  S   LIG    1       -3.425  -1.477   0.074  0.00  0.00    +0.200 S 
ENDROOT
BRANCH   3   6
ATOM      6  C   LIG    1        0.255  -0.266   0.966  0.00  0.00    -0.030 A 
ATOM      7  C   LIG    1        0.311   1.127   0.968  0.00  0.00    +0.020 A 
ATOM      8  C   LIG    1        1.506   1.759   1.231  0.00  0.00    +0.010 A 
ATOM      9  C   LIG    1        2.656   1.024   1.496  0.00  0.00    -0.070 A 
ATOM     10  C   LIG    1        3.927   1.786   1.763  0.00  0.00    +0.080 C 
ATOM     11  C   LIG    1        4.956   0.892   2.452  0.00  0.00    +0.020 C 
ATOM     12  C   LIG    1        5.094  -0.401   1.640  0.00  0.00    +0.020 C 
ATOM     13  C   LIG    1        3.808  -1.209   1.799  0.00  0.00    +0.070 C 
ATOM     14  C   LIG    1        2.603  -0.354   1.502  0.00  0.00    -0.080 A 
ATOM     15  C   LIG    1        1.406  -0.999   1.234  0.00  0.00    +0.040 A 
ENDBRANCH   3   6
BRANCH   1  17
ATOM     16  C   LIG    1       -3.886  -4.532   0.220  0.00  0.00    +0.520 C 
ATOM     17  N   LIG    1       -2.636  -4.129   0.524  0.00  0.00    -0.620 N 
ATOM     18  H   LIG    1       -1.961  -4.783   0.765  0.00  0.00    +0.430 HD
ATOM     19  O   LIG    1       -4.750  -3.710  -0.001  0.00  0.00    -0.500 OA
BRANCH  16  20
ATOM     20  C   LIG    1       -4.209  -6.002   0.155  0.00  0.00    +0.260 C 
BRANCH  20  23
ATOM     21  C   LIG    1       -7.499  -7.597   1.288  0.00  0.00    +0.110 C 
ATOM     22  C   LIG    1       -6.043  -7.388   0.964  0.00  0.00    +0.520 C 
ATOM     23  N   LIG    1       -5.625  -6.205   0.470  0.00  0.00    -0.720 N 
ATOM     24  H   LIG    1       -6.262  -5.489   0.323  0.00  0.00    +0.410 HD
ATOM     25  O   LIG    1       -5.246  -8.284   1.148  0.00  0.00    -0.540 OA
ENDBRANCH  20  23
BRANCH  20  26
ATOM     26  C   LIG    1       -3.919  -6.526  -1.253  0.00  0.00    -0.020 C 
ATOM     27  C   LIG    1       -4.297  -8.007  -1.334  0.00  0.00    +0.050 C 
ATOM     28  C   LIG    1       -2.430  -6.362  -1.562  0.00  0.00    +0.030 C 
ENDBRANCH  20  26
ENDBRANCH  16  20
ENDBRANCH   1  17
TORSDOF 5
