REMARK  Name = ZINCpe000000WAKO.0
REMARK                            x       y       z     vdW  Elec       q    Type
REMARK                         _______ _______ _______ _____ _____    ______ ____
ROOT
ATOM      1  S   LIG    1       -2.613   0.256   0.718  0.00  0.00    +2.450 S 
ATOM      2  O   LIG    1       -2.854   1.373  -0.126  0.00  0.00    -0.910 OA
ATOM      3  O   LIG    1       -2.293   0.476   2.085  0.00  0.00    -0.910 OA
ENDROOT
BRANCH   1   4
ATOM      4  C   LIG    1       -1.307  -0.760  -0.025  0.00  0.00    -0.370 C 
ATOM      5  C   LIG    1       -1.698  -1.125  -1.458  0.00  0.00    +0.100 C 
BRANCH   4  11
ATOM      6  C   LIG    1        1.198  -0.658  -0.058  0.00  0.00    +0.150 A 
ATOM      7  C   LIG    1        2.386   0.058  -0.071  0.00  0.00    -0.070 A 
ATOM      8  C   LIG    1        2.359   1.439  -0.065  0.00  0.00    +0.060 A 
ATOM      9  C   LIG    1        1.149   2.108  -0.047  0.00  0.00    -0.010 A 
ATOM     10  C   LIG    1       -0.037   1.396  -0.034  0.00  0.00    +0.040 A 
ATOM     11  C   LIG    1       -0.015   0.015  -0.039  0.00  0.00    -0.100 A 
BRANCH   6  13
ATOM     12  C   LIG    1        2.507  -2.643  -0.082  0.00  0.00    +0.240 C 
ATOM     13  O   LIG    1        1.223  -2.017  -0.063  0.00  0.00    -0.310 OA
ENDBRANCH   6  13
ENDBRANCH   4  11
ENDBRANCH   1   4
BRANCH   1  14
ATOM     14  C   LIG    1       -4.046  -0.854   0.632  0.00  0.00    -0.340 C 
BRANCH  14  15
ATOM     15  C   LIG    1       -5.251  -0.165   1.218  0.00  0.00    +0.550 C 
ATOM     16  N   LIG    1       -6.438  -0.802   1.260  0.00  0.00    -0.600 N 
ATOM     17  C   LIG    1       -6.572  -2.168   0.734  0.00  0.00    +0.280 C 
ATOM     18  C   LIG    1       -7.146  -3.062   1.846  0.00  0.00    +0.270 C 
ATOM     19  N   LIG    1       -8.329  -2.403   2.414  0.00  0.00    -0.620 N 
ATOM     20  C   LIG    1       -8.196  -1.035   2.935  0.00  0.00    +0.290 C 
ATOM     21  C   LIG    1       -9.516  -3.040   2.456  0.00  0.00    +0.510 C 
ATOM     22  O   LIG    1      -10.463  -2.523   3.010  0.00  0.00    -0.540 OA
ATOM     23  C   LIG    1       -9.667  -4.395   1.814  0.00  0.00    +0.100 C 
ATOM     24  C   LIG    1       -7.622  -0.142   1.828  0.00  0.00    +0.290 C 
ATOM     25  O   LIG    1       -5.153   0.964   1.651  0.00  0.00    -0.520 OA
ENDBRANCH  14  15
ENDBRANCH   1  14
TORSDOF 5
