REMARK  Name = ZINCbw0000000Hhi.0
REMARK                            x       y       z     vdW  Elec       q    Type
REMARK                         _______ _______ _______ _____ _____    ______ ____
ROOT
ATOM      1  C   LIG    1       -0.718   1.572   1.248  0.00  0.00    -0.140 A 
ATOM      2  C   LIG    1       -0.292   2.726   1.878  0.00  0.00    +0.060 A 
ATOM      3  C   LIG    1       -0.943   3.175   3.012  0.00  0.00    +0.050 A 
ATOM      4  C   LIG    1       -2.013   2.465   3.524  0.00  0.00    -0.070 A 
ATOM      5  C   LIG    1       -2.437   1.306   2.898  0.00  0.00    +0.030 A 
ATOM      6 BR   LIG    1       -2.896   3.076   5.080  0.00  0.00    -0.030 Br
ATOM      7  C   LIG    1       -1.790   0.859   1.759  0.00  0.00    +0.110 A 
ATOM      8  F   LIG    1       -2.203  -0.272   1.147  0.00  0.00    -0.130 F 
ENDROOT
BRANCH   1  10
ATOM      9  C   LIG    1       -0.753   1.593  -1.232  0.00  0.00    +0.020 C 
ATOM     10  C   LIG    1       -0.013   1.086   0.008  0.00  0.00    +0.260 C 
BRANCH  10  11
ATOM     11  O   LIG    1        1.328   1.580  -0.002  0.00  0.00    -0.550 OA
ATOM     12  H   LIG    1        1.391   2.545   0.002  0.00  0.00    +0.380 HD
ENDBRANCH  10  11
ENDBRANCH   1  10
TORSDOF 2
