REMARK  Name = ZINCrH00000No4UF.0
REMARK                            x       y       z     vdW  Elec       q    Type
REMARK                         _______ _______ _______ _____ _____    ______ ____
ROOT
ATOM      1  C   LIG    1        2.267   0.607   0.017  0.00  0.00    -0.190 A 
ATOM      2  C   LIG    1        1.688   1.849   0.009  0.00  0.00    +0.090 A 
ATOM      3  S   LIG    1       -0.011   1.730   0.015  0.00  0.00    +0.230 S 
ATOM      4  C   LIG    1        0.028  -0.024   0.028  0.00  0.00    -0.200 A 
ATOM      5  C   LIG    1       -1.192  -0.908   0.039  0.00  0.00    +0.150 C 
ATOM      6  C   LIG    1        1.290  -0.470   0.028  0.00  0.00    -0.000 A 
ENDROOT
BRANCH   6   7
ATOM      7  C   LIG    1        1.653  -1.907   0.038  0.00  0.00    -0.050 A 
ATOM      8  C   LIG    1        2.326  -2.450   1.132  0.00  0.00    +0.070 A 
ATOM      9  C   LIG    1        2.657  -3.790   1.139  0.00  0.00    -0.010 A 
ATOM     10  C   LIG    1        2.332  -4.592   0.058  0.00  0.00    +0.110 A 
ATOM     11  C   LIG    1        1.667  -4.055  -1.033  0.00  0.00    -0.010 A 
ATOM     12  F   LIG    1        2.663  -5.902   0.067  0.00  0.00    -0.140 F 
ATOM     13  C   LIG    1        1.327  -2.718  -1.048  0.00  0.00    +0.070 A 
ENDBRANCH   6   7
BRANCH   1  14
ATOM     14  C   LIG    1        3.713   0.387   0.014  0.00  0.00    +0.540 C 
ATOM     15  O   LIG    1        4.312   0.288  -1.040  0.00  0.00    -0.490 OA
BRANCH  14  16
ATOM     16  O   LIG    1        4.384   0.296   1.181  0.00  0.00    -0.350 OA
BRANCH  16  18
ATOM     17  C   LIG    1        6.399   0.001   2.516  0.00  0.00    +0.070 C 
ATOM     18  C   LIG    1        5.817   0.078   1.103  0.00  0.00    +0.200 C 
ENDBRANCH  16  18
ENDBRANCH  14  16
ENDBRANCH   1  14
BRANCH   2  19
ATOM     19  N   LIG    1        2.390   3.041  -0.003  0.00  0.00    -0.650 N 
ATOM     20  H   LIG    1        3.358   3.034   0.060  0.00  0.00    +0.420 HD
BRANCH  19  21
ATOM     21  C   LIG    1        1.724   4.222  -0.103  0.00  0.00    +0.280 C 
ATOM     22  C   LIG    1        1.992   5.078  -1.149  0.00  0.00    -0.170 C 
ATOM     23  C   LIG    1        0.691   4.594   0.930  0.00  0.00    +0.170 C 
BRANCH  22  24
ATOM     24  C   LIG    1        1.367   6.406  -1.189  0.00  0.00    +0.590 C 
ATOM     25  O   LIG    1        0.697   6.792  -0.249  0.00  0.00    -0.530 OA
ATOM     26  N   LIG    1        1.537   7.199  -2.266  0.00  0.00    -0.850 N 
ATOM     27  H   LIG    1        1.124   8.076  -2.292  0.00  0.00    +0.410 HD
ATOM     28  H   LIG    1        2.071   6.891  -3.015  0.00  0.00    +0.400 HD
ENDBRANCH  22  24
BRANCH  22  29
ATOM     29  C   LIG    1        2.880   4.673  -2.196  0.00  0.00    +0.240 C 
ATOM     30  N   LIG    1        3.585   4.351  -3.027  0.00  0.00    -0.390 NA
ENDBRANCH  22  29
ENDBRANCH  19  21
ENDBRANCH   2  19
TORSDOF 8
