REMARK  Name = ZINCrH000004udTp.1
REMARK                            x       y       z     vdW  Elec       q    Type
REMARK                         _______ _______ _______ _____ _____    ______ ____
ROOT
ATOM      1  N   LIG    1       -3.929  -4.726   0.014  0.00  0.00    -0.540 NA
ATOM      2  C   LIG    1       -4.602  -4.396   1.278  0.00  0.00    +0.190 C 
ATOM      3  C   LIG    1       -6.056  -4.872   1.217  0.00  0.00    +0.210 C 
ATOM      4  N   LIG    1       -6.085  -6.320   0.972  0.00  0.00    -0.490 N 
ATOM      5  C   LIG    1       -5.411  -6.651  -0.292  0.00  0.00    +0.200 C 
ATOM      6  C   LIG    1       -3.958  -6.175  -0.232  0.00  0.00    +0.200 C 
ENDROOT
BRANCH   4   7
ATOM      7  C   LIG    1       -7.395  -6.804   0.982  0.00  0.00    +0.110 A 
ATOM      8  C   LIG    1       -7.891  -7.494  -0.117  0.00  0.00    +0.000 A 
ATOM      9  C   LIG    1       -9.187  -7.971  -0.104  0.00  0.00    +0.050 A 
ATOM     10  C   LIG    1       -9.991  -7.763   1.002  0.00  0.00    +0.040 A 
ATOM     11  C   LIG    1       -9.500  -7.076   2.098  0.00  0.00    -0.160 A 
ATOM     12  C   LIG    1       -8.204  -6.601   2.093  0.00  0.00    +0.050 A 
BRANCH  11  13
ATOM     13  C   LIG    1      -10.380  -6.852   3.301  0.00  0.00    +0.510 C 
ATOM     14  F   LIG    1      -10.527  -5.478   3.521  0.00  0.00    -0.180 F 
ATOM     15  F   LIG    1       -9.793  -7.444   4.424  0.00  0.00    -0.180 F 
ATOM     16  F   LIG    1      -11.635  -7.426   3.074  0.00  0.00    -0.180 F 
ENDBRANCH  11  13
ENDBRANCH   4   7
BRANCH   1  17
ATOM     17  C   LIG    1       -2.551  -4.218   0.004  0.00  0.00    +0.180 C 
BRANCH  17  18
ATOM     18  C   LIG    1       -2.571  -2.688   0.012  0.00  0.00    +0.020 C 
BRANCH  18  19
ATOM     19  C   LIG    1       -1.136  -2.159   0.001  0.00  0.00    +0.260 C 
BRANCH  19  22
ATOM     20  O   LIG    1        1.064  -0.598  -0.011  0.00  0.00    -0.530 OA
ATOM     21  C   LIG    1        0.002  -0.004   0.002  0.00  0.00    +0.580 C 
ATOM     22  N   LIG    1       -1.156  -0.694   0.009  0.00  0.00    -0.730 N 
ATOM     23  H   LIG    1       -2.002  -0.220   0.020  0.00  0.00    +0.400 HD
BRANCH  21  24
ATOM     24  C   LIG    1       -0.018   1.468   0.010  0.00  0.00    -0.160 A 
ATOM     25  C   LIG    1       -1.163   2.202   0.019  0.00  0.00    -0.050 A 
ATOM     26  S   LIG    1       -0.812   3.870   0.030  0.00  0.00    +0.190 S 
ATOM     27  C   LIG    1        0.919   3.583   0.012  0.00  0.00    -0.060 A 
ATOM     28  C   LIG    1        1.176   2.280   0.003  0.00  0.00    +0.070 A 
ENDBRANCH  21  24
ENDBRANCH  19  22
ENDBRANCH  18  19
ENDBRANCH  17  18
ENDBRANCH   1  17
TORSDOF 7
