REMARK  Name = ZINCrH000004szEi.0
REMARK                            x       y       z     vdW  Elec       q    Type
REMARK                         _______ _______ _______ _____ _____    ______ ____
ROOT
ATOM      1  C   LIG    1        1.244  -0.691  -0.387  0.00  0.00    +0.130 A 
ATOM      2  C   LIG    1        0.057   0.011  -0.207  0.00  0.00    +0.030 A 
ATOM      3  C   LIG    1        0.054   1.387  -0.267  0.00  0.00    +0.060 A 
ATOM      4  C   LIG    1        1.244   2.078  -0.507  0.00  0.00    -0.120 A 
ATOM      5  C   LIG    1        2.435   1.369  -0.686  0.00  0.00    +0.100 A 
ATOM      6  C   LIG    1        2.432  -0.007  -0.626  0.00  0.00    +0.030 A 
ENDROOT
BRANCH   1  18
ATOM      7  C   LIG    1        0.839  -1.857   2.094  0.00  0.00    +0.190 C 
ATOM      8  C   LIG    1        1.050  -2.709   0.869  0.00  0.00    +0.400 A 
ATOM      9  N   LIG    1        1.031  -4.000   1.006  0.00  0.00    -0.510 NA
ATOM     10  C   LIG    1        1.219  -4.830  -0.051  0.00  0.00    +0.150 A 
ATOM     11  C   LIG    1        1.204  -6.218   0.097  0.00  0.00    +0.030 A 
ATOM     12  C   LIG    1        1.399  -7.023  -1.003  0.00  0.00    +0.070 A 
ATOM     13  C   LIG    1        1.611  -6.472  -2.260  0.00  0.00    +0.000 A 
ATOM     14  C   LIG    1        1.630  -5.105  -2.431  0.00  0.00    +0.100 A 
ATOM     15  C   LIG    1        1.435  -4.272  -1.331  0.00  0.00    -0.200 A 
ATOM     16  C   LIG    1        1.444  -2.807  -1.453  0.00  0.00    +0.550 A 
ATOM     17  O   LIG    1        1.624  -2.264  -2.527  0.00  0.00    -0.490 OA
ATOM     18  N   LIG    1        1.244  -2.087  -0.325  0.00  0.00    -0.500 N 
ENDBRANCH   1  18
BRANCH   4  19
ATOM     19  C   LIG    1        1.244   3.553  -0.572  0.00  0.00    +0.580 C 
ATOM     20  N   LIG    1        0.229   4.251  -0.025  0.00  0.00    -0.610 N 
ATOM     21  C   LIG    1       -0.869   3.684   0.779  0.00  0.00    +0.250 C 
ATOM     22  C   LIG    1       -1.368   4.865   1.652  0.00  0.00    +0.040 C 
ATOM     23  C   LIG    1       -1.240   6.055   0.665  0.00  0.00    +0.040 C 
ATOM     24  C   LIG    1        0.030   5.703  -0.138  0.00  0.00    +0.160 C 
ATOM     25  C   LIG    1       -0.158   6.091  -1.606  0.00  0.00    +0.040 C 
ATOM     26  C   LIG    1        1.237   6.441   0.447  0.00  0.00    +0.030 C 
ATOM     27  O   LIG    1        2.160   4.137  -1.118  0.00  0.00    -0.520 OA
ENDBRANCH   4  19
TORSDOF 2
