REMARK  Name = ZINCah0000003Z3I.0
REMARK                            x       y       z     vdW  Elec       q    Type
REMARK                         _______ _______ _______ _____ _____    ______ ____
ROOT
ATOM      1  C   LIG    1        2.121   0.685  -0.015  0.00  0.00    +0.120 A 
ATOM      2  C   LIG    1        1.343  -0.421  -0.013  0.00  0.00    -0.170 A 
ATOM      3  C   LIG    1        0.002  -0.004   0.002  0.00  0.00    +0.340 A 
ATOM      4  N   LIG    1       -0.016   1.308   0.009  0.00  0.00    -0.350 NA
ATOM      5  N   LIG    1        1.309   1.763  -0.001  0.00  0.00    -0.480 N 
ATOM      6  H   LIG    1        1.593   2.690   0.001  0.00  0.00    +0.440 HD
ENDROOT
BRANCH   3   7
ATOM      7  N   LIG    1       -1.119  -0.842   0.008  0.00  0.00    -0.850 N 
ATOM      8  H   LIG    1       -1.005  -1.805   0.002  0.00  0.00    +0.410 HD
ATOM      9  H   LIG    1       -2.011  -0.459   0.018  0.00  0.00    +0.400 HD
ENDBRANCH   3   7
BRANCH   1  10
ATOM     10  C   LIG    1        3.628   0.710  -0.029  0.00  0.00    +0.110 C 
BRANCH  10  12
ATOM     11  C   LIG    1        3.693   1.841  -2.256  0.00  0.00    +0.010 C 
ATOM     12  C   LIG    1        4.126   0.601  -1.472  0.00  0.00    -0.010 C 
ATOM     13  C   LIG    1        5.652   0.500  -1.478  0.00  0.00    +0.030 C 
ENDBRANCH  10  12
ENDBRANCH   1  10
TORSDOF 3
