REMARK  Name = ZINCpk000000I2Z0.0
REMARK                            x       y       z     vdW  Elec       q    Type
REMARK                         _______ _______ _______ _____ _____    ______ ____
ROOT
ATOM      1  N   LIG    1        5.205   5.470   0.520  0.00  0.00    -0.520 NA
ATOM      2  C   LIG    1        5.093   6.122  -0.793  0.00  0.00    +0.180 C 
ATOM      3  C   LIG    1        3.633   6.096  -1.249  0.00  0.00    +0.230 C 
ATOM      4  N   LIG    1        3.167   4.704  -1.314  0.00  0.00    -0.470 N 
ATOM      5  C   LIG    1        3.279   4.052  -0.002  0.00  0.00    +0.220 C 
ATOM      6  C   LIG    1        4.740   4.078   0.454  0.00  0.00    +0.200 C 
ENDROOT
BRANCH   4   7
ATOM      7  C   LIG    1        1.871   4.637  -1.792  0.00  0.00    +0.410 A 
ATOM      8  C   LIG    1        1.221   3.402  -1.938  0.00  0.00    -0.220 A 
ATOM      9  C   LIG    1        1.582   2.006  -1.695  0.00  0.00    -0.020 A 
ATOM     10  C   LIG    1        0.516   1.264  -2.035  0.00  0.00    +0.230 A 
ATOM     11  N   LIG    1       -0.493   2.078  -2.481  0.00  0.00    -0.570 N 
ATOM     12  H   LIG    1       -1.361   1.771  -2.786  0.00  0.00    +0.420 HD
ATOM     13  C   LIG    1       -0.097   3.386  -2.429  0.00  0.00    +0.330 A 
ATOM     14  N   LIG    1       -0.676   4.546  -2.735  0.00  0.00    -0.550 NA
ATOM     15  C   LIG    1       -0.029   5.681  -2.582  0.00  0.00    +0.540 A 
ATOM     16  N   LIG    1        1.209   5.741  -2.125  0.00  0.00    -0.580 NA
ENDBRANCH   4   7
BRANCH   1  18
ATOM     17  C   LIG    1        6.678   4.780   2.350  0.00  0.00    +0.060 C 
ATOM     18  C   LIG    1        6.582   5.542   1.027  0.00  0.00    +0.130 C 
BRANCH  18  19
ATOM     19  C   LIG    1        6.962   6.983   1.249  0.00  0.00    +0.520 C 
ATOM     20  N   LIG    1        8.254   7.359   1.175  0.00  0.00    -0.730 N 
ATOM     21  H   LIG    1        8.940   6.701   0.980  0.00  0.00    +0.400 HD
ATOM     22  O   LIG    1        6.104   7.805   1.493  0.00  0.00    -0.510 OA
BRANCH  20  23
ATOM     23  C   LIG    1        8.623   8.760   1.391  0.00  0.00    +0.230 C 
ATOM     24  C   LIG    1        8.530   9.541   0.064  0.00  0.00    +0.010 C 
ATOM     25  C   LIG    1        9.720  10.531   0.122  0.00  0.00    +0.010 C 
ATOM     26  C   LIG    1       10.833   9.689   0.795  0.00  0.00    +0.020 C 
ATOM     27  C   LIG    1       10.086   8.854   1.856  0.00  0.00    +0.020 C 
ENDBRANCH  20  23
ENDBRANCH  18  19
ENDBRANCH   1  18
TORSDOF 4
