REMARK  Name = ZINCqH0000003zay.0
REMARK                            x       y       z     vdW  Elec       q    Type
REMARK                         _______ _______ _______ _____ _____    ______ ____
ROOT
ATOM      1  C   LIG    1       -3.420   2.538  -1.078  0.00  0.00    +0.140 C 
ENDROOT
BRANCH   1   2
ATOM      2  C   LIG    1       -4.066   2.326   0.267  0.00  0.00    -0.090 A 
ATOM      3  C   LIG    1       -4.190   3.383   1.149  0.00  0.00    +0.000 A 
ATOM      4  C   LIG    1       -4.786   3.189   2.381  0.00  0.00    +0.020 A 
ATOM      5  C   LIG    1       -5.250   1.936   2.735  0.00  0.00    +0.020 A 
ATOM      6  C   LIG    1       -5.121   0.877   1.855  0.00  0.00    +0.020 A 
ATOM      7  C   LIG    1       -4.529   1.072   0.621  0.00  0.00    +0.040 A 
ENDBRANCH   1   2
BRANCH   1   8
ATOM      8  C   LIG    1       -4.365   2.095  -2.165  0.00  0.00    -0.080 A 
ATOM      9  C   LIG    1       -4.029   1.032  -2.982  0.00  0.00    +0.020 A 
ATOM     10  C   LIG    1       -4.898   0.622  -3.976  0.00  0.00    +0.020 A 
ATOM     11  C   LIG    1       -6.099   1.281  -4.159  0.00  0.00    +0.020 A 
ATOM     12  C   LIG    1       -6.433   2.347  -3.345  0.00  0.00    +0.010 A 
ATOM     13  C   LIG    1       -5.566   2.754  -2.348  0.00  0.00    +0.020 A 
ENDBRANCH   1   8
BRANCH   1  14
ATOM     14  C   LIG    1       -3.108   3.966  -1.252  0.00  0.00    +0.210 C 
ATOM     15  N   LIG    1       -2.867   5.068  -1.387  0.00  0.00    -0.400 NA
ENDBRANCH   1  14
BRANCH   1  16
ATOM     16  C   LIG    1       -2.130   1.720  -1.159  0.00  0.00    +0.080 C 
BRANCH  16  17
ATOM     17  C   LIG    1       -1.151   2.204  -0.087  0.00  0.00    +0.320 C 
BRANCH  17  20
ATOM     18  C   LIG    1        2.131   0.760  -0.267  0.00  0.00    -0.030 A 
ATOM     19  C   LIG    1        1.326   1.849  -0.274  0.00  0.00    +0.170 A 
ATOM     20  N   LIG    1        0.063   1.386  -0.130  0.00  0.00    -0.290 N 
ATOM     21  N   LIG    1        0.112   0.102  -0.043  0.00  0.00    -0.080 NA
ATOM     22  N   LIG    1        1.331  -0.302  -0.121  0.00  0.00    -0.260 NA
BRANCH  18  23
ATOM     23  C   LIG    1        3.632   0.748  -0.398  0.00  0.00    +0.290 C 
BRANCH  23  24
ATOM     24  O   LIG    1        4.109   2.087  -0.536  0.00  0.00    -0.390 OA
BRANCH  24  26
ATOM     25  C   LIG    1        5.925   3.659  -0.808  0.00  0.00    +0.040 C 
ATOM     26  C   LIG    1        5.529   2.188  -0.668  0.00  0.00    +0.160 C 
ENDBRANCH  24  26
ENDBRANCH  23  24
ENDBRANCH  18  23
ENDBRANCH  17  20
ENDBRANCH  16  17
ENDBRANCH   1  16
TORSDOF 9
