REMARK  Name = ZINCrD000000B9Vc.0
REMARK                            x       y       z     vdW  Elec       q    Type
REMARK                         _______ _______ _______ _____ _____    ______ ____
ROOT
ATOM      1  C   LIG    1        6.064   2.071  -0.045  0.00  0.00    +0.000 C 
ATOM      2  C   LIG    1        6.008   2.880  -1.338  0.00  0.00    +0.040 C 
ATOM      3  C   LIG    1        7.307   2.727  -2.156  0.00  0.00    +0.100 C 
ATOM      4  C   LIG    1        7.479   1.230  -2.360  0.00  0.00    -0.080 A 
ATOM      5  C   LIG    1        7.578   0.615  -3.575  0.00  0.00    +0.010 A 
ATOM      6  C   LIG    1        7.732  -0.765  -3.616  0.00  0.00    +0.000 A 
ATOM      7  C   LIG    1        7.784  -1.499  -2.446  0.00  0.00    +0.000 A 
ATOM      8  C   LIG    1        7.684  -0.866  -1.213  0.00  0.00    +0.030 A 
ATOM      9  C   LIG    1        7.532   0.490  -1.180  0.00  0.00    -0.080 A 
ATOM     10  C   LIG    1        8.428   3.130  -1.211  0.00  0.00    -0.080 A 
ATOM     11  C   LIG    1        9.332   4.125  -1.452  0.00  0.00    +0.020 A 
ATOM     12  C   LIG    1       10.307   4.401  -0.429  0.00  0.00    +0.000 A 
ATOM     13  C   LIG    1       10.351   3.650   0.731  0.00  0.00    +0.000 A 
ATOM     14  C   LIG    1        9.428   2.634   0.947  0.00  0.00    +0.030 A 
ATOM     15  C   LIG    1        8.480   2.393  -0.006  0.00  0.00    -0.080 A 
ATOM     16  C   LIG    1        7.407   1.320   0.088  0.00  0.00    +0.110 C 
ENDROOT
BRANCH   1  17
ATOM     17  C   LIG    1        4.920   1.055  -0.039  0.00  0.00    +0.280 C 
BRANCH  17  20
ATOM     18  O   LIG    1        2.506  -0.147  -0.023  0.00  0.00    -0.510 OA
ATOM     19  C   LIG    1        2.483   1.069  -0.016  0.00  0.00    +0.570 C 
ATOM     20  N   LIG    1        3.638   1.764  -0.023  0.00  0.00    -0.720 N 
ATOM     21  H   LIG    1        3.620   2.734  -0.018  0.00  0.00    +0.400 HD
BRANCH  19  22
ATOM     22  C   LIG    1        1.190   1.784   0.000  0.00  0.00    -0.140 C 
ATOM     23  C   LIG    1        1.151   3.183   0.008  0.00  0.00    +0.110 C 
ATOM     24  C   LIG    1       -0.086   3.805   0.022  0.00  0.00    +0.050 C 
ATOM     25  C   LIG    1       -1.233   3.033   0.029  0.00  0.00    +0.290 C 
ATOM     26  N   LIG    1       -1.166   1.714   0.017  0.00  0.00    -0.120 NA
ATOM     27  O   LIG    1       -2.367   0.964   0.019  0.00  0.00    -0.540 OA
ATOM     28  C   LIG    1       -0.013   1.076   0.008  0.00  0.00    +0.330 C 
ENDBRANCH  19  22
ENDBRANCH  17  20
ENDBRANCH   1  17
TORSDOF 3
