REMARK  Name = ZINCkj000005izoc.0
REMARK                            x       y       z     vdW  Elec       q    Type
REMARK                         _______ _______ _______ _____ _____    ______ ____
ROOT
ATOM      1  N   LIG    1       -0.706   1.566   1.226  0.00  0.00    -0.370 N 
ATOM      2  C   LIG    1        0.113   0.759   0.311  0.00  0.00    +0.330 C 
ATOM      3  H   LIG    1       -0.639   2.539   0.967  0.00  0.00    +0.430 HD
ENDROOT
BRANCH   1   6
ATOM      4  C   LIG    1       -4.059   1.876   0.790  0.00  0.00    +0.110 C 
ATOM      5  C   LIG    1       -3.072   2.002   1.963  0.00  0.00    +0.050 C 
ATOM      6  C   LIG    1       -2.107   1.132   1.141  0.00  0.00    +0.160 C 
ATOM      7  C   LIG    1       -4.982   0.660   0.895  0.00  0.00    +0.060 C 
ATOM      8  C   LIG    1       -2.836   1.644  -0.112  0.00  0.00    -0.070 C 
ATOM      9  C   LIG    1       -3.054   0.568  -1.177  0.00  0.00    +0.070 C 
ATOM     10  C   LIG    1       -2.242   2.934  -0.682  0.00  0.00    +0.080 C 
BRANCH   4  12
ATOM     11  C   LIG    1       -5.863   3.340   1.381  0.00  0.00    +0.220 C 
ATOM     12  O   LIG    1       -4.764   3.085   0.503  0.00  0.00    -0.360 OA
ENDBRANCH   4  12
ENDBRANCH   1   6
BRANCH   1  13
ATOM     13  C   LIG    1       -0.221   1.390   2.601  0.00  0.00    +0.240 C 
BRANCH  13  14
ATOM     14  C   LIG    1        1.196   1.957   2.719  0.00  0.00    +0.210 C 
BRANCH  14  15
ATOM     15  O   LIG    1        1.162   3.370   2.507  0.00  0.00    -0.540 OA
ATOM     16  H   LIG    1        0.610   3.849   3.140  0.00  0.00    +0.390 HD
ENDBRANCH  14  15
BRANCH  14  17
ATOM     17  C   LIG    1        1.748   1.663   4.115  0.00  0.00    +0.320 C 
BRANCH  17  18
ATOM     18  N   LIG    1        3.145   2.099   4.189  0.00  0.00    -0.380 N 
ATOM     19  C   LIG    1        3.663   2.953   5.096  0.00  0.00    +0.240 A 
ATOM     20  C   LIG    1        4.981   3.092   4.826  0.00  0.00    -0.110 A 
ATOM     21  C   LIG    1        5.277   2.303   3.710  0.00  0.00    +0.250 A 
ATOM     22  N   LIG    1        4.177   1.707   3.327  0.00  0.00    -0.300 NA
ENDBRANCH  17  18
ENDBRANCH  14  17
ENDBRANCH  13  14
ENDBRANCH   1  13
TORSDOF 7
