REMARK  Name = ZINCkj000005izoc.1
REMARK                            x       y       z     vdW  Elec       q    Type
REMARK                         _______ _______ _______ _____ _____    ______ ____
ROOT
ATOM      1  N   LIG    1        1.289   1.559  -2.460  0.00  0.00    -0.370 N 
ATOM      2  C   LIG    1       -0.040   0.934  -2.469  0.00  0.00    +0.330 C 
ATOM      3  H   LIG    1        1.190   2.559  -2.373  0.00  0.00    +0.420 HD
ENDROOT
BRANCH   1   6
ATOM      4  C   LIG    1        2.959   2.168  -5.353  0.00  0.00    +0.110 C 
ATOM      5  C   LIG    1        1.487   2.057  -4.919  0.00  0.00    +0.050 C 
ATOM      6  C   LIG    1        1.987   1.244  -3.713  0.00  0.00    +0.160 C 
ATOM      7  C   LIG    1        3.419   1.020  -6.253  0.00  0.00    +0.050 C 
ATOM      8  C   LIG    1        3.329   1.976  -3.873  0.00  0.00    -0.070 C 
ATOM      9  C   LIG    1        4.548   1.077  -3.657  0.00  0.00    +0.060 C 
ATOM     10  C   LIG    1        3.409   3.287  -3.086  0.00  0.00    +0.080 C 
BRANCH   4  12
ATOM     11  C   LIG    1        2.971   3.640  -7.245  0.00  0.00    +0.220 C 
ATOM     12  O   LIG    1        3.312   3.453  -5.869  0.00  0.00    -0.360 OA
ENDBRANCH   4  12
ENDBRANCH   1   6
BRANCH   1  13
ATOM     13  C   LIG    1        2.065   1.044  -1.324  0.00  0.00    +0.230 C 
BRANCH  13  14
ATOM     14  C   LIG    1        1.429   1.515  -0.015  0.00  0.00    +0.210 C 
BRANCH  14  15
ATOM     15  O   LIG    1        0.151   0.895   0.143  0.00  0.00    -0.540 OA
ATOM     16  H   LIG    1        0.183  -0.071   0.173  0.00  0.00    +0.390 HD
ENDBRANCH  14  15
BRANCH  14  17
ATOM     17  C   LIG    1        2.331   1.130   1.159  0.00  0.00    +0.320 C 
BRANCH  17  18
ATOM     18  N   LIG    1        1.782   1.684   2.399  0.00  0.00    -0.380 N 
ATOM     19  C   LIG    1        1.477   0.987   3.513  0.00  0.00    +0.240 A 
ATOM     20  C   LIG    1        1.003   1.862   4.430  0.00  0.00    -0.110 A 
ATOM     21  C   LIG    1        1.009   3.136   3.853  0.00  0.00    +0.250 A 
ATOM     22  N   LIG    1        1.476   3.031   2.635  0.00  0.00    -0.300 NA
ENDBRANCH  17  18
ENDBRANCH  14  17
ENDBRANCH  13  14
ENDBRANCH   1  13
TORSDOF 7
