REMARK  Name = ZINCpk00000y13uO.0
REMARK                            x       y       z     vdW  Elec       q    Type
REMARK                         _______ _______ _______ _____ _____    ______ ____
ROOT
ATOM      1  N   LIG    1       -3.707   4.012   0.030  0.00  0.00    -0.620 N 
ATOM      2  H   LIG    1       -3.925   3.067   0.025  0.00  0.00    +0.420 HD
ATOM      3  C   LIG    1       -4.693   4.931   0.034  0.00  0.00    +0.560 C 
ATOM      4  O   LIG    1       -4.419   6.115   0.040  0.00  0.00    -0.490 OA
ENDROOT
BRANCH   3   5
ATOM      5  C   LIG    1       -6.106   4.499   0.032  0.00  0.00    +0.120 A 
ATOM      6  C   LIG    1       -7.100   5.433   0.043  0.00  0.00    +0.050 A 
ATOM      7  C   LIG    1       -8.443   5.026   0.035  0.00  0.00    -0.090 A 
ATOM      8  C   LIG    1       -8.739   3.697   0.029  0.00  0.00    +0.050 A 
ATOM      9  C   LIG    1       -7.691   2.751   0.024  0.00  0.00    +0.520 A 
ATOM     10  O   LIG    1       -7.947   1.558   0.019  0.00  0.00    -0.510 OA
ATOM     11  N   LIG    1       -6.409   3.163   0.026  0.00  0.00    -0.600 N 
ATOM     12  H   LIG    1       -5.693   2.508   0.022  0.00  0.00    +0.420 HD
BRANCH   7  13
ATOM     13  C   LIG    1       -9.548   6.050   0.041  0.00  0.00    +0.510 C 
ATOM     14  F   LIG    1       -9.442   6.856  -1.098  0.00  0.00    -0.170 F 
ATOM     15  F   LIG    1       -9.441   6.846   1.187  0.00  0.00    -0.170 F 
ATOM     16  F   LIG    1      -10.787   5.400   0.039  0.00  0.00    -0.170 F 
ENDBRANCH   7  13
ENDBRANCH   3   5
BRANCH   1  20
ATOM     17  C   LIG    1        0.365   6.773   0.035  0.00  0.00    +0.380 C 
ATOM     18  N   LIG    1       -0.539   5.620   0.034  0.00  0.00    -0.280 N 
ATOM     19  C   LIG    1       -1.895   5.697   0.041  0.00  0.00    +0.190 A 
ATOM     20  C   LIG    1       -2.366   4.422   0.032  0.00  0.00    +0.070 A 
ATOM     21  C   LIG    1       -1.214   3.594   0.027  0.00  0.00    -0.030 A 
ATOM     22  N   LIG    1       -0.164   4.392   0.026  0.00  0.00    -0.240 NA
BRANCH  21  23
ATOM     23  C   LIG    1       -1.194   2.119   0.019  0.00  0.00    +0.610 C 
ATOM     24  N   LIG    1       -0.018   1.461   0.010  0.00  0.00    -0.610 N 
ATOM     25  C   LIG    1        1.241   2.211   0.002  0.00  0.00    +0.300 C 
ATOM     26  C   LIG    1        0.002  -0.004   0.002  0.00  0.00    +0.290 C 
ATOM     27  O   LIG    1       -2.239   1.496   0.021  0.00  0.00    -0.550 OA
ENDBRANCH  21  23
ENDBRANCH   1  20
TORSDOF 4
