REMARK  Name = ZINCqH00000098p4.0
REMARK                            x       y       z     vdW  Elec       q    Type
REMARK                         _______ _______ _______ _____ _____    ______ ____
ROOT
ATOM      1  C   LIG    1        1.085  -3.062   3.184  0.00  0.00    +0.040 C 
ENDROOT
BRANCH   1   4
ATOM      2  N   LIG    1        1.120  -4.380   5.277  0.00  0.00    -0.730 N 
ATOM      3  H   LIG    1        0.189  -4.601   5.116  0.00  0.00    +0.400 HD
ATOM      4  C   LIG    1        1.786  -3.595   4.407  0.00  0.00    +0.520 C 
ATOM      5  O   LIG    1        2.949  -3.318   4.609  0.00  0.00    -0.530 OA
BRANCH   2   7
ATOM      6  C   LIG    1        1.739  -3.856   7.585  0.00  0.00    +0.040 C 
ATOM      7  C   LIG    1        1.801  -4.898   6.466  0.00  0.00    +0.280 C 
BRANCH   7   8
ATOM      8  C   LIG    1        1.124  -6.165   6.921  0.00  0.00    -0.080 A 
ATOM      9  C   LIG    1        1.881  -7.229   7.372  0.00  0.00    +0.030 A 
ATOM     10  C   LIG    1        1.260  -8.392   7.790  0.00  0.00    +0.040 A 
ATOM     11  C   LIG    1       -0.118  -8.490   7.758  0.00  0.00    +0.030 A 
ATOM     12  C   LIG    1       -0.877  -7.424   7.307  0.00  0.00    -0.030 A 
ATOM     13 CL   LIG    1       -2.608  -7.546   7.266  0.00  0.00    -0.060 Cl
ATOM     14  C   LIG    1       -0.255  -6.259   6.893  0.00  0.00    +0.020 A 
ENDBRANCH   7   8
ENDBRANCH   2   7
ENDBRANCH   1   4
BRANCH   1  15
ATOM     15  C   LIG    1        2.058  -2.206   2.371  0.00  0.00    +0.330 C 
BRANCH  15  16
ATOM     16  N   LIG    1        1.377  -1.688   1.182  0.00  0.00    -0.550 N 
ATOM     17  C   LIG    1        0.730  -0.503   1.224  0.00  0.00    +0.490 C 
ATOM     18  C   LIG    1        0.002  -0.004   0.002  0.00  0.00    +0.180 C 
ATOM     19  O   LIG    1        0.670  -0.465  -1.175  0.00  0.00    -0.300 OA
ATOM     20  C   LIG    1        1.025  -1.777  -1.203  0.00  0.00    +0.080 A 
ATOM     21  C   LIG    1        1.030  -2.482  -2.394  0.00  0.00    +0.030 A 
ATOM     22  C   LIG    1        1.394  -3.817  -2.402  0.00  0.00    +0.030 A 
ATOM     23  C   LIG    1        1.752  -4.449  -1.226  0.00  0.00    +0.020 A 
ATOM     24  C   LIG    1        1.749  -3.751  -0.032  0.00  0.00    +0.010 A 
ATOM     25  C   LIG    1       -0.019   1.526   0.010  0.00  0.00    +0.100 C 
ATOM     26  O   LIG    1        0.734   0.157   2.242  0.00  0.00    -0.500 OA
ATOM     27  C   LIG    1        1.386  -2.414  -0.017  0.00  0.00    +0.090 A 
ENDBRANCH  15  16
ENDBRANCH   1  15
TORSDOF 5
