REMARK  Name = ZINCrg00000SjSqc.0
REMARK                            x       y       z     vdW  Elec       q    Type
REMARK                         _______ _______ _______ _____ _____    ______ ____
ROOT
ATOM      1  C   LIG    1        2.540   1.270  -1.066  0.00  0.00    -0.020 C 
ATOM      2  C   LIG    1        2.431   2.572  -1.891  0.00  0.00    +0.050 C 
ATOM      3  C   LIG    1        1.611   3.516  -0.986  0.00  0.00    +0.160 C 
ATOM      4  O   LIG    1        1.814   3.019   0.356  0.00  0.00    -0.350 OA
ATOM      5  C   LIG    1        0.125   3.360  -1.312  0.00  0.00    +0.140 C 
ATOM      6  C   LIG    1       -0.291   1.887  -1.276  0.00  0.00    +0.020 C 
ATOM      7  C   LIG    1       -1.816   1.842  -1.000  0.00  0.00    +0.230 C 
ATOM      8  N   LIG    1       -1.988   1.732   0.461  0.00  0.00    -0.460 N 
ATOM      9  C   LIG    1       -0.637   1.694   1.103  0.00  0.00    +0.220 C 
ATOM     10  C   LIG    1        0.284   1.189  -0.024  0.00  0.00    -0.020 C 
ATOM     11  C   LIG    1        1.733   1.585   0.218  0.00  0.00    +0.220 C 
ENDROOT
BRANCH   8  12
ATOM     12  C   LIG    1       -2.748   2.796   0.958  0.00  0.00    +0.170 A 
ATOM     13  C   LIG    1       -2.169   3.723   1.814  0.00  0.00    +0.010 A 
ATOM     14  C   LIG    1       -2.919   4.777   2.299  0.00  0.00    +0.090 A 
ATOM     15  C   LIG    1       -4.251   4.901   1.942  0.00  0.00    +0.080 A 
ATOM     16  C   LIG    1       -4.832   3.974   1.093  0.00  0.00    +0.100 A 
ATOM     17  F   LIG    1       -4.985   5.929   2.422  0.00  0.00    -0.120 F 
ATOM     18  C   LIG    1       -4.084   2.922   0.601  0.00  0.00    -0.040 A 
BRANCH  18  19
ATOM     19  N   LIG    1       -4.705   1.932  -0.306  0.00  0.00    +0.030 N 
ATOM     20  O   LIG    1       -4.082   0.942  -0.646  0.00  0.00    -0.120 OA
ATOM     21  O   LIG    1       -5.840   2.107  -0.714  0.00  0.00    -0.180 OA
ENDBRANCH  18  19
ENDBRANCH   8  12
BRANCH   1  24
ATOM     22  N   LIG    1        1.770  -1.077  -1.202  0.00  0.00    -0.730 N 
ATOM     23  H   LIG    1        2.061  -1.193  -0.284  0.00  0.00    +0.400 HD
ATOM     24  C   LIG    1        1.920   0.116  -1.811  0.00  0.00    +0.530 C 
ATOM     25  O   LIG    1        1.557   0.261  -2.959  0.00  0.00    -0.520 OA
BRANCH  22  27
ATOM     26  C   LIG    1        1.115  -3.426  -1.015  0.00  0.00    +0.030 C 
ATOM     27  C   LIG    1        1.168  -2.199  -1.927  0.00  0.00    +0.250 C 
ENDBRANCH  22  27
ENDBRANCH   1  24
BRANCH   5  28
ATOM     28  O   LIG    1       -0.127   3.886  -2.616  0.00  0.00    -0.550 OA
ATOM     29  H   LIG    1        0.091   4.824  -2.711  0.00  0.00    +0.380 HD
ENDBRANCH   5  28
TORSDOF 5
