REMARK  Name = ZINCtV00000L6kAp.0
REMARK                            x       y       z     vdW  Elec       q    Type
REMARK                         _______ _______ _______ _____ _____    ______ ____
ROOT
ATOM      1  N   LIG    1       -6.015   3.071  -0.689  0.00  0.00    -0.510 NA
ATOM      2  C   LIG    1       -6.444   2.080   0.307  0.00  0.00    +0.210 C 
ENDROOT
BRANCH   1   3
ATOM      3  C   LIG    1       -4.996   3.970  -0.132  0.00  0.00    +0.220 C 
BRANCH   3   6
ATOM      4  N   LIG    1       -2.665   3.810   0.679  0.00  0.00    -0.670 N 
ATOM      5  H   LIG    1       -2.715   4.750   0.914  0.00  0.00    +0.410 HD
ATOM      6  C   LIG    1       -3.741   3.188   0.159  0.00  0.00    +0.500 C 
ATOM      7  O   LIG    1       -3.700   1.998  -0.074  0.00  0.00    -0.470 OA
BRANCH   4  13
ATOM      8  C   LIG    1        1.229   2.784   3.504  0.00  0.00    +0.120 C 
ATOM      9  C   LIG    1        0.433   2.583   2.240  0.00  0.00    -0.050 A 
ATOM     10  C   LIG    1        0.878   1.696   1.277  0.00  0.00    +0.030 A 
ATOM     11  C   LIG    1        0.150   1.509   0.116  0.00  0.00    +0.060 A 
ATOM     12  C   LIG    1       -1.022   2.212  -0.088  0.00  0.00    -0.040 A 
ATOM     13  C   LIG    1       -1.475   3.100   0.880  0.00  0.00    +0.170 A 
ATOM     14 CL   LIG    1       -1.931   1.981  -1.549  0.00  0.00    -0.020 Cl
ATOM     15  C   LIG    1       -0.742   3.285   2.045  0.00  0.00    -0.060 A 
ATOM     16 CL   LIG    1       -1.299   4.399   3.255  0.00  0.00    -0.050 Cl
ENDBRANCH   4  13
ENDBRANCH   3   6
ENDBRANCH   1   3
BRANCH   1  17
ATOM     17  C   LIG    1       -7.162   3.830  -1.204  0.00  0.00    +0.230 C 
BRANCH  17  18
ATOM     18  C   LIG    1       -6.687   4.820  -2.237  0.00  0.00    -0.090 A 
ATOM     19  C   LIG    1       -5.817   4.415  -3.232  0.00  0.00    +0.080 A 
ATOM     20  C   LIG    1       -5.385   5.320  -4.183  0.00  0.00    -0.020 A 
ATOM     21  C   LIG    1       -5.815   6.635  -4.132  0.00  0.00    +0.100 A 
ATOM     22  C   LIG    1       -6.682   7.041  -3.131  0.00  0.00    -0.010 A 
ATOM     23  F   LIG    1       -5.389   7.522  -5.057  0.00  0.00    -0.140 F 
ATOM     24  C   LIG    1       -7.117   6.132  -2.185  0.00  0.00    +0.050 A 
ENDBRANCH  17  18
BRANCH  17  25
ATOM     25  C   LIG    1       -8.150   2.882  -1.835  0.00  0.00    -0.080 A 
ATOM     26  C   LIG    1       -7.701   1.842  -2.627  0.00  0.00    +0.040 A 
ATOM     27  C   LIG    1       -8.607   0.970  -3.201  0.00  0.00    +0.000 A 
ATOM     28  C   LIG    1       -9.962   1.144  -2.991  0.00  0.00    +0.000 A 
ATOM     29  C   LIG    1      -10.412   2.187  -2.203  0.00  0.00    +0.000 A 
ATOM     30  C   LIG    1       -9.505   3.056  -1.625  0.00  0.00    +0.010 A 
ENDBRANCH  17  25
ENDBRANCH   1  17
TORSDOF 6
