REMARK  Name = ZINCqH0000007fs7.0
REMARK                            x       y       z     vdW  Elec       q    Type
REMARK                         _______ _______ _______ _____ _____    ______ ____
ROOT
ATOM      1  C   LIG    1       -1.329   1.945   0.035  0.00  0.00    +0.020 C 
ATOM      2  C   LIG    1       -1.729   2.319  -1.394  0.00  0.00    +0.080 C 
ENDROOT
BRANCH   1   5
ATOM      3  N   LIG    1        1.143   1.898   0.001  0.00  0.00    -0.650 N 
ATOM      4  H   LIG    1        1.131   2.866  -0.069  0.00  0.00    +0.420 HD
ATOM      5  C   LIG    1       -0.015   1.209   0.013  0.00  0.00    +0.540 C 
ATOM      6  O   LIG    1        0.002  -0.004  -0.000  0.00  0.00    -0.500 OA
BRANCH   3  13
ATOM      7  C   LIG    1        3.527   1.798  -0.414  0.00  0.00    +0.110 A 
ATOM      8  C   LIG    1        4.732   1.121  -0.322  0.00  0.00    -0.040 A 
ATOM      9  C   LIG    1        4.780  -0.128   0.271  0.00  0.00    +0.060 A 
ATOM     10  C   LIG    1        3.628  -0.704   0.773  0.00  0.00    -0.050 A 
ATOM     11  C   LIG    1        2.422  -0.032   0.690  0.00  0.00    +0.070 A 
ATOM     12 CL   LIG    1        3.696  -2.272   1.515  0.00  0.00    -0.060 Cl
ATOM     13  C   LIG    1        2.365   1.218   0.092  0.00  0.00    +0.130 A 
BRANCH   7  15
ATOM     14  C   LIG    1        4.708   3.558  -1.491  0.00  0.00    +0.250 C 
ATOM     15  O   LIG    1        3.478   3.026  -0.995  0.00  0.00    -0.320 OA
ENDBRANCH   7  15
ENDBRANCH   3  13
ENDBRANCH   1   5
BRANCH   1  16
ATOM     16  S   LIG    1       -2.603   0.883   0.759  0.00  0.00    +0.090 S 
BRANCH  16  17
ATOM     17  C   LIG    1       -3.955   2.011   0.802  0.00  0.00    +0.150 A 
ATOM     18  N   LIG    1       -3.941   3.262   0.401  0.00  0.00    -0.290 NA
ATOM     19  N   LIG    1       -5.101   3.789   0.575  0.00  0.00    -0.280 NA
ATOM     20  C   LIG    1       -5.915   2.917   1.099  0.00  0.00    +0.390 A 
ATOM     21  N   LIG    1       -5.215   1.753   1.262  0.00  0.00    -0.460 N 
BRANCH  21  22
ATOM     22  C   LIG    1       -5.712   0.492   1.817  0.00  0.00    +0.450 C 
BRANCH  22  23
ATOM     23  C   LIG    1       -5.382   0.424   3.286  0.00  0.00    -0.060 A 
ATOM     24  C   LIG    1       -6.159   0.873   4.288  0.00  0.00    -0.020 A 
ATOM     25  C   LIG    1       -5.468   0.607   5.493  0.00  0.00    -0.070 A 
ATOM     26  C   LIG    1       -4.307   0.019   5.154  0.00  0.00    +0.190 A 
ATOM     27  O   LIG    1       -4.260  -0.089   3.816  0.00  0.00    -0.160 OA
ENDBRANCH  22  23
ENDBRANCH  21  22
ENDBRANCH  16  17
ENDBRANCH   1  16
TORSDOF 7
