REMARK  Name = ZINCpk00000y6uBo.1
REMARK                            x       y       z     vdW  Elec       q    Type
REMARK                         _______ _______ _______ _____ _____    ______ ____
ROOT
ATOM      1  C   LIG    1        4.213   0.176  -1.460  0.00  0.00    +0.160 C 
ATOM      2  C   LIG    1        4.341  -0.572  -2.789  0.00  0.00    +0.040 C 
ATOM      3  C   LIG    1        3.665   0.200  -3.908  0.00  0.00    +0.020 C 
ATOM      4  C   LIG    1        4.346   1.514  -4.244  0.00  0.00    +0.020 C 
ATOM      5  C   LIG    1        4.217   2.507  -3.087  0.00  0.00    +0.300 C 
ATOM      6  N   LIG    1        5.322   2.276  -2.143  0.00  0.00    -0.590 N 
ATOM      7  C   LIG    1        5.335   1.189  -1.365  0.00  0.00    +0.530 C 
ATOM      8  O   LIG    1        6.247   1.009  -0.586  0.00  0.00    -0.530 OA
ENDROOT
BRANCH   1   9
ATOM      9  N   LIG    1        2.918   0.868  -1.406  0.00  0.00    -0.670 NA
ATOM     10  H   LIG    1        2.214   0.358  -1.918  0.00  0.00    +0.350 HD
BRANCH   9  11
ATOM     11  C   LIG    1        2.499   1.092  -0.015  0.00  0.00    +0.230 C 
BRANCH  11  15
ATOM     12  C   LIG    1       -1.190   3.156   0.031  0.00  0.00    +0.320 A 
ATOM     13  C   LIG    1       -1.212   1.768   0.017  0.00  0.00    -0.050 A 
ATOM     14  C   LIG    1       -0.013   1.076   0.008  0.00  0.00    +0.110 A 
ATOM     15  C   LIG    1        1.170   1.802   0.001  0.00  0.00    -0.180 A 
ATOM     16  C   LIG    1        1.116   3.182   0.009  0.00  0.00    +0.320 A 
ATOM     17  N   LIG    1       -0.042   3.813   0.024  0.00  0.00    -0.540 NA
BRANCH  12  19
ATOM     18  C   LIG    1       -2.270   5.272   0.054  0.00  0.00    +0.260 C 
ATOM     19  O   LIG    1       -2.359   3.846   0.046  0.00  0.00    -0.310 OA
ENDBRANCH  12  19
ENDBRANCH  11  15
ENDBRANCH   9  11
ENDBRANCH   1   9
BRANCH   6  20
ATOM     20  C   LIG    1        6.416   3.247  -2.052  0.00  0.00    +0.450 C 
BRANCH  20  21
ATOM     21  C   LIG    1        6.080   4.287  -1.015  0.00  0.00    +0.160 A 
ATOM     22  N   LIG    1        6.367   4.236   0.264  0.00  0.00    -0.460 NA
ATOM     23  C   LIG    1        5.876   5.372   0.790  0.00  0.00    +0.160 A 
ATOM     24  N   LIG    1        5.325   6.043  -0.177  0.00  0.00    -0.380 NA
ATOM     25  C   LIG    1        5.951   5.790   2.236  0.00  0.00    +0.210 C 
ATOM     26  O   LIG    1        5.436   5.440  -1.223  0.00  0.00    +0.080 OA
ENDBRANCH  20  21
ENDBRANCH   6  20
TORSDOF 6
