REMARK  Name = ZINCpk00000KfKBT.0
REMARK                            x       y       z     vdW  Elec       q    Type
REMARK                         _______ _______ _______ _____ _____    ______ ____
ROOT
ATOM      1  N   LIG    1       -2.874   3.119  -1.631  0.00  0.00    -0.730 N 
ATOM      2  H   LIG    1       -3.445   3.381  -0.891  0.00  0.00    +0.400 HD
ATOM      3  C   LIG    1       -1.727   2.453  -1.394  0.00  0.00    +0.510 C 
ATOM      4  O   LIG    1       -1.014   2.126  -2.319  0.00  0.00    -0.520 OA
ENDROOT
BRANCH   3   5
ATOM      5  C   LIG    1       -1.329   2.116   0.020  0.00  0.00    +0.070 C 
ATOM      6  C   LIG    1       -1.181   3.404   0.835  0.00  0.00    +0.100 C 
ATOM      7  C   LIG    1        0.049   4.149   0.390  0.00  0.00    +0.520 C 
ATOM      8  N   LIG    1        1.156   3.486   0.009  0.00  0.00    -0.660 N 
ATOM      9  H   LIG    1        1.944   3.980  -0.263  0.00  0.00    +0.420 HD
ATOM     10  C   LIG    1        1.177   2.088   0.002  0.00  0.00    +0.210 A 
ATOM     11  C   LIG    1        2.387   1.408  -0.014  0.00  0.00    -0.050 A 
ATOM     12  C   LIG    1        2.400   0.025  -0.021  0.00  0.00    +0.140 A 
ATOM     13  C   LIG    1        1.208  -0.680  -0.013  0.00  0.00    -0.030 A 
ATOM     14  C   LIG    1        0.002  -0.004   0.002  0.00  0.00    +0.100 A 
ATOM     15  F   LIG    1        3.577  -0.639  -0.036  0.00  0.00    -0.130 F 
ATOM     16  O   LIG    1        0.043   5.362   0.375  0.00  0.00    -0.520 OA
ATOM     17  C   LIG    1       -0.017   1.376   0.010  0.00  0.00    -0.120 A 
ENDBRANCH   3   5
BRANCH   1  18
ATOM     18  C   LIG    1       -3.260   3.447  -3.006  0.00  0.00    +0.270 C 
BRANCH  18  19
ATOM     19  C   LIG    1       -4.593   4.198  -2.995  0.00  0.00    +0.160 C 
BRANCH  19  23
ATOM     20  C   LIG    1       -8.146   5.910  -5.940  0.00  0.00    +0.050 C 
ATOM     21  C   LIG    1       -6.741   5.308  -5.884  0.00  0.00    +0.160 C 
ATOM     22  C   LIG    1       -6.359   5.034  -4.427  0.00  0.00    +0.170 C 
ATOM     23  N   LIG    1       -4.981   4.527  -4.374  0.00  0.00    -0.530 NA
ATOM     24  C   LIG    1       -4.046   5.495  -4.967  0.00  0.00    +0.160 C 
ATOM     25  C   LIG    1       -4.451   5.764  -6.418  0.00  0.00    +0.200 C 
ATOM     26  C   LIG    1       -4.332   4.472  -7.229  0.00  0.00    +0.020 C 
ATOM     27  O   LIG    1       -5.804   6.226  -6.453  0.00  0.00    -0.380 OA
ENDBRANCH  19  23
ENDBRANCH  18  19
ENDBRANCH   1  18
TORSDOF 4
