REMARK  Name = ZINCah0000000159.0
REMARK                            x       y       z     vdW  Elec       q    Type
REMARK                         _______ _______ _______ _____ _____    ______ ____
ROOT
ATOM      1  N   LIG    1        3.379   0.022   1.069  0.00  0.00    -0.720 N 
ATOM      2  H   LIG    1        3.741  -0.075   0.175  0.00  0.00    +0.400 HD
ATOM      3  C   LIG    1        4.010  -0.542   2.118  0.00  0.00    +0.500 C 
ATOM      4  O   LIG    1        3.557  -0.420   3.236  0.00  0.00    -0.510 OA
ENDROOT
BRANCH   1   6
ATOM      5  C   LIG    1        2.492   2.224   1.658  0.00  0.00    +0.030 C 
ATOM      6  C   LIG    1        2.144   0.783   1.280  0.00  0.00    +0.260 C 
BRANCH   6   7
ATOM      7  C   LIG    1        1.317   0.779  -0.006  0.00  0.00    -0.060 C 
ATOM      8  C   LIG    1       -0.019   1.526   0.010  0.00  0.00    +0.030 C 
ATOM      9  C   LIG    1        0.002  -0.004   0.002  0.00  0.00    +0.020 C 
ENDBRANCH   6   7
ENDBRANCH   1   6
BRANCH   3  10
ATOM     10  C   LIG    1        5.280  -1.324   1.901  0.00  0.00    +0.170 C 
ATOM     11 CL   LIG    1        5.879  -1.948   3.483  0.00  0.00    -0.130 Cl
ENDBRANCH   3  10
TORSDOF 3
