REMARK  Name = ZINCqH0000038f11.0
REMARK                            x       y       z     vdW  Elec       q    Type
REMARK                         _______ _______ _______ _____ _____    ______ ____
ROOT
ATOM      1  C   LIG    1       -2.339   1.168   4.522  0.00  0.00    +0.320 C 
ATOM      2  C   LIG    1       -3.815   0.886   4.218  0.00  0.00    +0.220 C 
ATOM      3  O   LIG    1       -4.414   0.247   5.348  0.00  0.00    -0.370 OA
ATOM      4  C   LIG    1       -3.848  -1.026   5.669  0.00  0.00    +0.210 C 
ATOM      5  C   LIG    1       -2.373  -0.842   6.047  0.00  0.00    +0.250 C 
ATOM      6  N   LIG    1       -1.711  -0.083   4.974  0.00  0.00    -0.640 N 
ATOM      7  C   LIG    1       -0.563  -0.522   4.421  0.00  0.00    +0.710 C 
ATOM      8  N   LIG    1       -0.052  -1.715   4.786  0.00  0.00    -0.730 N 
ATOM      9  H   LIG    1       -0.546  -2.289   5.392  0.00  0.00    +0.400 HD
ATOM     10  O   LIG    1        0.012   0.157   3.593  0.00  0.00    -0.550 OA
ENDROOT
BRANCH   1  15
ATOM     11  C   LIG    1       -0.361   1.257  -0.117  0.00  0.00    +0.160 C 
ATOM     12  C   LIG    1       -0.790   1.699   1.258  0.00  0.00    +0.000 A 
ATOM     13  C   LIG    1       -0.594   2.920   1.788  0.00  0.00    -0.070 A 
ATOM     14  C   LIG    1       -1.153   2.896   3.087  0.00  0.00    -0.060 A 
ATOM     15  C   LIG    1       -1.650   1.661   3.275  0.00  0.00    +0.020 A 
ATOM     16  O   LIG    1       -1.427   0.940   2.164  0.00  0.00    -0.150 OA
ENDBRANCH   1  15
BRANCH   8  17
ATOM     17  C   LIG    1        1.250  -2.144   4.268  0.00  0.00    +0.330 C 
BRANCH  17  18
ATOM     18  C   LIG    1        1.327  -3.649   4.289  0.00  0.00    +0.120 A 
ATOM     19  N   LIG    1        1.006  -4.303   5.387  0.00  0.00    -0.470 NA
ATOM     20  C   LIG    1        1.058  -5.620   5.451  0.00  0.00    +0.250 A 
ATOM     21  C   LIG    1        1.456  -6.365   4.358  0.00  0.00    -0.030 A 
ATOM     22  C   LIG    1        1.802  -5.712   3.184  0.00  0.00    +0.060 A 
ATOM     23  C   LIG    1        1.728  -4.328   3.153  0.00  0.00    -0.120 A 
ATOM     24  C   LIG    1        2.087  -3.572   1.899  0.00  0.00    +0.110 C 
ENDBRANCH  17  18
BRANCH  17  25
ATOM     25  C   LIG    1        2.363  -1.565   5.143  0.00  0.00    -0.020 C 
ATOM     26  C   LIG    1        2.284  -0.037   5.123  0.00  0.00    +0.030 C 
ATOM     27  C   LIG    1        3.722  -2.013   4.602  0.00  0.00    +0.030 C 
ENDBRANCH  17  25
ENDBRANCH   8  17
TORSDOF 4
