REMARK  Name = ZINCrD000000C3ZX.0
REMARK                            x       y       z     vdW  Elec       q    Type
REMARK                         _______ _______ _______ _____ _____    ______ ____
ROOT
ATOM      1  O   LIG    1        2.513   4.064  -0.101  0.00  0.00    -0.550 OA
ATOM      2  C   LIG    1        3.572   3.467  -0.114  0.00  0.00    +0.700 C 
ATOM      3  N   LIG    1        4.729   4.149  -0.223  0.00  0.00    -0.610 N 
ATOM      4  N   LIG    1        3.589   2.122  -0.021  0.00  0.00    -0.690 N 
ATOM      5  H   LIG    1        4.434   1.651   0.046  0.00  0.00    +0.400 HD
ENDROOT
BRANCH   4   6
ATOM      6  C   LIG    1        2.385   1.405  -0.019  0.00  0.00    +0.180 A 
ATOM      7  C   LIG    1        2.276   0.235   0.720  0.00  0.00    -0.010 A 
ATOM      8  C   LIG    1        1.089  -0.476   0.724  0.00  0.00    +0.050 A 
ATOM      9  C   LIG    1        0.010  -0.017  -0.012  0.00  0.00    +0.050 A 
ATOM     10  O   LIG    1       -1.166  -0.712  -0.015  0.00  0.00    -0.320 OA
ATOM     11  C   LIG    1       -2.269  -0.077   0.634  0.00  0.00    +0.220 C 
ATOM     12  C   LIG    1       -2.967   0.889  -0.310  0.00  0.00    -0.020 C 
ATOM     13  C   LIG    1       -2.075   2.053  -0.711  0.00  0.00    +0.220 C 
ATOM     14  O   LIG    1       -0.955   1.594  -1.472  0.00  0.00    -0.320 OA
ATOM     15  C   LIG    1        0.116   1.153  -0.751  0.00  0.00    +0.090 A 
ATOM     16  C   LIG    1        1.302   1.866  -0.757  0.00  0.00    +0.030 A 
ENDBRANCH   4   6
BRANCH   3  17
ATOM     17  C   LIG    1        4.711   5.610  -0.325  0.00  0.00    +0.320 C 
ATOM     18  C   LIG    1        4.048   6.226   0.925  0.00  0.00    +0.040 C 
ATOM     19  C   LIG    1        3.321   7.457   0.342  0.00  0.00    +0.080 C 
ATOM     20  C   LIG    1        3.046   7.106  -1.105  0.00  0.00    -0.080 A 
ATOM     21  C   LIG    1        2.167   7.670  -2.013  0.00  0.00    +0.010 A 
ATOM     22  C   LIG    1        2.086   7.176  -3.301  0.00  0.00    +0.000 A 
ATOM     23  C   LIG    1        2.885   6.115  -3.684  0.00  0.00    -0.010 A 
ATOM     24  C   LIG    1        3.763   5.551  -2.779  0.00  0.00    +0.040 A 
ATOM     25  C   LIG    1        3.845   6.045  -1.488  0.00  0.00    -0.090 A 
ENDBRANCH   3  17
BRANCH   3  26
ATOM     26  C   LIG    1        6.005   3.429  -0.240  0.00  0.00    +0.300 C 
BRANCH  26  27
ATOM     27  C   LIG    1        6.374   3.078  -1.682  0.00  0.00    +0.160 C 
BRANCH  27  28
ATOM     28  O   LIG    1        6.608   4.279  -2.421  0.00  0.00    -0.560 OA
ATOM     29  H   LIG    1        6.847   4.131  -3.346  0.00  0.00    +0.380 HD
ENDBRANCH  27  28
ENDBRANCH  26  27
ENDBRANCH   3  26
TORSDOF 5
