REMARK  Name = ZINCpk00001AZir1.0
REMARK                            x       y       z     vdW  Elec       q    Type
REMARK                         _______ _______ _______ _____ _____    ______ ____
ROOT
ATOM      1  C   LIG    1       -1.293   1.792   0.018  0.00  0.00    +0.290 A 
ATOM      2  N   LIG    1       -1.435   3.106   0.032  0.00  0.00    -0.470 NA
ATOM      3  C   LIG    1       -2.728   3.418   0.034  0.00  0.00    +0.310 A 
ATOM      4  C   LIG    1       -3.449   2.224   0.030  0.00  0.00    -0.130 A 
ATOM      5  C   LIG    1       -4.907   2.287   0.037  0.00  0.00    +0.600 A 
ATOM      6  N   LIG    1       -5.501   3.500   0.048  0.00  0.00    -0.650 N 
ATOM      7  H   LIG    1       -6.469   3.558   0.053  0.00  0.00    +0.440 HD
ATOM      8  C   LIG    1       -4.770   4.627   0.050  0.00  0.00    +0.710 A 
ATOM      9  O   LIG    1       -5.346   5.698   0.059  0.00  0.00    -0.530 OA
ATOM     10  O   LIG    1       -5.574   1.268   0.035  0.00  0.00    -0.500 OA
ATOM     11  N   LIG    1       -3.426   4.616   0.043  0.00  0.00    -0.510 N 
ATOM     12  C   LIG    1       -2.691   5.883   0.047  0.00  0.00    +0.350 C 
ATOM     13  N   LIG    1       -2.526   1.207   0.021  0.00  0.00    -0.390 N 
ATOM     14  C   LIG    1       -2.811  -0.230   0.014  0.00  0.00    +0.360 C 
ENDROOT
BRANCH   1  16
ATOM     15  C   LIG    1        1.148   1.767   0.001  0.00  0.00    -0.010 C 
ATOM     16  C   LIG    1       -0.013   1.076   0.008  0.00  0.00    +0.130 C 
BRANCH  15  17
ATOM     17  C   LIG    1        2.427   1.052  -0.015  0.00  0.00    +0.420 C 
ATOM     18  O   LIG    1        2.444  -0.165  -0.022  0.00  0.00    -0.450 OA
BRANCH  17  24
ATOM     19  C   LIG    1        4.856   5.411  -0.017  0.00  0.00    +0.090 C 
ATOM     20  C   LIG    1        4.871   3.905  -0.024  0.00  0.00    -0.090 A 
ATOM     21  C   LIG    1        6.077   3.226  -0.039  0.00  0.00    +0.040 A 
ATOM     22  C   LIG    1        6.099   1.842  -0.047  0.00  0.00    -0.090 A 
ATOM     23  C   LIG    1        4.918   1.130  -0.039  0.00  0.00    +0.060 A 
ATOM     24  C   LIG    1        3.697   1.808  -0.024  0.00  0.00    -0.160 A 
ATOM     25  C   LIG    1        7.417   1.112  -0.063  0.00  0.00    +0.090 C 
ATOM     26  C   LIG    1        3.682   3.205  -0.022  0.00  0.00    +0.050 A 
ENDBRANCH  17  24
ENDBRANCH  15  17
ENDBRANCH   1  16
TORSDOF 3
