REMARK  Name = ZINCrH000004sWYv.0
REMARK                            x       y       z     vdW  Elec       q    Type
REMARK                         _______ _______ _______ _____ _____    ______ ____
ROOT
ATOM      1  N   LIG    1       -2.428   1.033   0.020  0.00  0.00    -0.670 N 
ATOM      2  H   LIG    1       -3.273   1.501   0.103  0.00  0.00    +0.420 HD
ATOM      3  C   LIG    1       -2.409  -0.310  -0.089  0.00  0.00    +0.520 C 
ATOM      4  O   LIG    1       -1.351  -0.903  -0.098  0.00  0.00    -0.490 OA
ENDROOT
BRANCH   1  11
ATOM      5  C   LIG    1        3.018   4.872   0.398  0.00  0.00    +0.360 C 
ATOM      6  N   LIG    1        2.440   3.665  -0.198  0.00  0.00    -0.550 N 
ATOM      7  C   LIG    1        3.060   2.818  -1.043  0.00  0.00    +0.640 A 
ATOM      8  O   LIG    1        2.220   1.827  -1.379  0.00  0.00    -0.230 OA
ATOM      9  C   LIG    1        1.033   2.016  -0.753  0.00  0.00    +0.060 A 
ATOM     10  C   LIG    1       -0.156   1.306  -0.750  0.00  0.00    +0.070 A 
ATOM     11  C   LIG    1       -1.226   1.753   0.012  0.00  0.00    +0.160 A 
ATOM     12  C   LIG    1       -1.111   2.917   0.763  0.00  0.00    +0.030 A 
ATOM     13  C   LIG    1        0.074   3.627   0.762  0.00  0.00    +0.060 A 
ATOM     14  O   LIG    1        4.204   2.933  -1.439  0.00  0.00    -0.480 OA
ATOM     15  C   LIG    1        1.147   3.181   0.007  0.00  0.00    +0.060 A 
ENDBRANCH   1  11
BRANCH   3  16
ATOM     16  C   LIG    1       -3.703  -1.075  -0.200  0.00  0.00    +0.220 C 
BRANCH  16  17
ATOM     17  C   LIG    1       -4.489  -0.920   1.076  0.00  0.00    -0.120 A 
ATOM     18  C   LIG    1       -4.175  -1.690   2.180  0.00  0.00    +0.050 A 
ATOM     19  C   LIG    1       -4.894  -1.544   3.352  0.00  0.00    +0.010 A 
ATOM     20  C   LIG    1       -5.933  -0.634   3.416  0.00  0.00    +0.010 A 
ATOM     21  C   LIG    1       -6.251   0.132   2.311  0.00  0.00    +0.010 A 
ATOM     22  C   LIG    1       -5.529  -0.011   1.140  0.00  0.00    +0.010 A 
ENDBRANCH  16  17
BRANCH  16  23
ATOM     23  O   LIG    1       -3.420  -2.459  -0.420  0.00  0.00    -0.340 OA
BRANCH  23  24
ATOM     24  C   LIG    1       -4.418  -3.142  -1.181  0.00  0.00    +0.150 C 
ATOM     25  C   LIG    1       -5.450  -3.792  -0.236  0.00  0.00    +0.010 C 
ATOM     26  C   LIG    1       -5.804  -5.133  -0.926  0.00  0.00    +0.010 C 
ATOM     27  C   LIG    1       -4.441  -5.591  -1.502  0.00  0.00    +0.020 C 
ATOM     28  C   LIG    1       -3.777  -4.286  -1.986  0.00  0.00    +0.020 C 
ENDBRANCH  23  24
ENDBRANCH  16  23
ENDBRANCH   3  16
TORSDOF 5
