REMARK  Name = ZINCpe00000zbtLN.0
REMARK                            x       y       z     vdW  Elec       q    Type
REMARK                         _______ _______ _______ _____ _____    ______ ____
ROOT
ATOM      1  C   LIG    1        4.335   5.694  -0.549  0.00  0.00    +0.510 C 
ATOM      2  N   LIG    1        3.557   4.756   0.026  0.00  0.00    -0.730 N 
ATOM      3  H   LIG    1        3.657   4.555   0.970  0.00  0.00    +0.400 HD
ATOM      4  O   LIG    1        4.210   5.946  -1.729  0.00  0.00    -0.520 OA
ENDROOT
BRANCH   2   5
ATOM      5  C   LIG    1        2.560   4.040  -0.773  0.00  0.00    +0.260 C 
ATOM      6  C   LIG    1        1.427   3.527   0.133  0.00  0.00    +0.050 C 
ATOM      7  C   LIG    1        1.418   1.990  -0.001  0.00  0.00    -0.020 C 
ATOM      8  C   LIG    1        2.083   1.725  -1.374  0.00  0.00    +0.000 C 
ATOM      9  C   LIG    1        3.199   2.798  -1.426  0.00  0.00    +0.150 C 
BRANCH   9  10
ATOM     10  O   LIG    1        3.562   3.075  -2.780  0.00  0.00    -0.550 OA
ATOM     11  H   LIG    1        3.969   2.328  -3.239  0.00  0.00    +0.380 HD
ENDBRANCH   9  10
BRANCH   7  12
ATOM     12  C   LIG    1       -0.018   1.461   0.010  0.00  0.00    +0.310 C 
BRANCH  12  13
ATOM     13  N   LIG    1        0.002  -0.004   0.002  0.00  0.00    -0.460 N 
ATOM     14  C   LIG    1        0.024  -0.822   1.099  0.00  0.00    +0.110 A 
ATOM     15  C   LIG    1        0.036  -2.088   0.641  0.00  0.00    +0.140 A 
ATOM     16  N   LIG    1        0.023  -2.045  -0.700  0.00  0.00    -0.500 NA
ATOM     17  C   LIG    1       -0.003  -0.799  -1.089  0.00  0.00    +0.380 A 
ENDBRANCH  12  13
ENDBRANCH   7  12
ENDBRANCH   2   5
BRANCH   1  18
ATOM     18  C   LIG    1        5.361   6.430   0.274  0.00  0.00    +0.060 C 
BRANCH  18  19
ATOM     19  C   LIG    1        6.103   7.431  -0.614  0.00  0.00    +0.040 C 
BRANCH  19  20
ATOM     20  C   LIG    1        7.145   8.179   0.221  0.00  0.00    +0.330 C 
BRANCH  20  24
ATOM     21  C   LIG    1        8.424  12.376  -2.211  0.00  0.00    +0.190 C 
ATOM     22  C   LIG    1        8.400  10.966  -1.678  0.00  0.00    +0.220 A 
ATOM     23  N   LIG    1        7.500  10.475  -0.867  0.00  0.00    -0.320 NA
ATOM     24  N   LIG    1        7.856   9.138  -0.628  0.00  0.00    -0.380 N 
ATOM     25  C   LIG    1        8.980   8.914  -1.330  0.00  0.00    +0.280 A 
ATOM     26  C   LIG    1        9.746   7.617  -1.385  0.00  0.00    +0.190 C 
ATOM     27  N   LIG    1        9.293  10.018  -1.959  0.00  0.00    -0.540 NA
ENDBRANCH  20  24
ENDBRANCH  19  20
ENDBRANCH  18  19
ENDBRANCH   1  18
TORSDOF 8
