REMARK  Name = ZINCrH000004om7d.0
REMARK                            x       y       z     vdW  Elec       q    Type
REMARK                         _______ _______ _______ _____ _____    ______ ____
ROOT
ATOM      1  C   LIG    1        3.307  -4.372   2.292  0.00  0.00    -0.080 A 
ATOM      2  C   LIG    1        4.415  -3.563   2.549  0.00  0.00    +0.030 A 
ATOM      3  C   LIG    1        5.420  -4.017   3.377  0.00  0.00    +0.120 A 
ATOM      4  C   LIG    1        5.337  -5.276   3.945  0.00  0.00    -0.660 A 
ATOM      5  C   LIG    1        4.244  -6.085   3.691  0.00  0.00    +0.120 A 
ATOM      6  C   LIG    1        3.229  -5.641   2.868  0.00  0.00    +0.070 A 
ENDROOT
BRANCH   1   9
ATOM      7  N   LIG    1        2.302  -2.664   0.855  0.00  0.00    -0.720 N 
ATOM      8  H   LIG    1        3.069  -2.098   1.035  0.00  0.00    +0.400 HD
ATOM      9  C   LIG    1        2.224  -3.890   1.409  0.00  0.00    +0.560 C 
ATOM     10  O   LIG    1        1.263  -4.598   1.183  0.00  0.00    -0.520 OA
BRANCH   7  12
ATOM     11  C   LIG    1        1.472  -2.686  -1.446  0.00  0.00    +0.040 C 
ATOM     12  C   LIG    1        1.229  -2.186  -0.021  0.00  0.00    +0.280 C 
BRANCH  12  13
ATOM     13  C   LIG    1        1.208  -0.679  -0.013  0.00  0.00    -0.100 A 
ATOM     14  C   LIG    1        0.002  -0.004   0.002  0.00  0.00    +0.020 A 
ATOM     15  C   LIG    1       -0.017   1.378   0.010  0.00  0.00    +0.020 A 
ATOM     16  C   LIG    1        1.171   2.086   0.002  0.00  0.00    +0.000 A 
ATOM     17  C   LIG    1        2.377   1.411  -0.015  0.00  0.00    +0.020 A 
ATOM     18  C   LIG    1        2.396   0.029  -0.021  0.00  0.00    +0.000 A 
ENDBRANCH  12  13
ENDBRANCH   7  12
ENDBRANCH   1   9
BRANCH   4  19
ATOM     19  S   LIG    1        6.629  -5.852   4.996  0.00  0.00    +2.680 S 
ATOM     20  O   LIG    1        6.054  -6.849   5.829  0.00  0.00    -0.950 OA
ATOM     21  O   LIG    1        7.279  -4.695   5.503  0.00  0.00    -0.950 OA
BRANCH  19  22
ATOM     22  N   LIG    1        7.734  -6.626   4.035  0.00  0.00    -0.990 NA
ATOM     23  C   LIG    1        7.577  -8.044   3.804  0.00  0.00    +0.280 C 
ATOM     24  C   LIG    1        8.320  -8.840   4.898  0.00  0.00    +0.010 C 
ATOM     25  C   LIG    1        9.774  -8.723   4.716  0.00  0.00    +0.000 C 
ATOM     26  C   LIG    1       10.312  -7.301   4.850  0.00  0.00    +0.010 C 
ATOM     27  C   LIG    1       10.183  -6.591   3.525  0.00  0.00    +0.020 C 
ATOM     28  C   LIG    1        8.841  -5.840   3.456  0.00  0.00    +0.270 C 
ENDBRANCH  19  22
ENDBRANCH   4  19
TORSDOF 5
