REMARK  Name = ZINCvU0000000GV2.0
REMARK                            x       y       z     vdW  Elec       q    Type
REMARK                         _______ _______ _______ _____ _____    ______ ____
ROOT
ATOM      1  C   LIG    1       -4.940   3.720   0.283  0.00  0.00    +0.310 C 
ATOM      2  N   LIG    1       -3.662   3.020   0.147  0.00  0.00    -0.620 NA
ATOM      3  C   LIG    1       -3.627   1.713   0.133  0.00  0.00    +0.510 C 
ATOM      4  C   LIG    1       -4.902   0.969   0.248  0.00  0.00    -0.350 C 
ATOM      5  C   LIG    1       -6.068   1.639   0.007  0.00  0.00    +0.270 C 
ATOM      6  C   LIG    1       -7.396   0.939   0.103  0.00  0.00    +0.140 C 
ATOM      7  C   LIG    1       -7.308  -0.189   1.134  0.00  0.00    -0.050 C 
ATOM      8  C   LIG    1       -6.197  -1.158   0.721  0.00  0.00    +0.060 C 
ATOM      9  C   LIG    1       -8.644  -0.933   1.193  0.00  0.00    +0.060 C 
ATOM     10  C   LIG    1       -6.989   0.399   2.510  0.00  0.00    +0.040 C 
ATOM     11  C   LIG    1       -4.900  -0.400   0.600  0.00  0.00    +0.420 C 
ATOM     12  O   LIG    1       -3.847  -0.968   0.806  0.00  0.00    -0.470 OA
ATOM     13  O   LIG    1       -6.008   2.942  -0.319  0.00  0.00    -0.310 OA
ENDROOT
BRANCH   1  18
ATOM     14  C   LIG    1       -6.079   4.519   5.891  0.00  0.00    +0.100 C 
ATOM     15  C   LIG    1       -5.782   4.310   4.429  0.00  0.00    -0.060 A 
ATOM     16  C   LIG    1       -4.472   4.248   3.991  0.00  0.00    +0.000 A 
ATOM     17  C   LIG    1       -4.200   4.057   2.650  0.00  0.00    +0.080 A 
ATOM     18  C   LIG    1       -5.237   3.928   1.745  0.00  0.00    -0.160 A 
ATOM     19  C   LIG    1       -6.547   3.995   2.182  0.00  0.00    +0.050 A 
ATOM     20  C   LIG    1       -6.820   4.181   3.525  0.00  0.00    +0.010 A 
ENDBRANCH   1  18
BRANCH   1  21
ATOM     21  C   LIG    1       -4.849   5.079  -0.414  0.00  0.00    +0.490 C 
ATOM     22  F   LIG    1       -4.581   4.889  -1.774  0.00  0.00    -0.170 F 
ATOM     23  F   LIG    1       -3.821   5.832   0.164  0.00  0.00    -0.150 F 
ATOM     24  F   LIG    1       -6.063   5.760  -0.269  0.00  0.00    -0.170 F 
ENDBRANCH   1  21
BRANCH   3  25
ATOM     25  N   LIG    1       -2.427   1.042   0.020  0.00  0.00    -0.630 N 
ATOM     26  H   LIG    1       -2.404   0.074   0.086  0.00  0.00    +0.430 HD
BRANCH  25  27
ATOM     27  C   LIG    1       -1.243   1.756  -0.190  0.00  0.00    +0.150 A 
ATOM     28  C   LIG    1       -1.249   2.893  -0.988  0.00  0.00    +0.020 A 
ATOM     29  C   LIG    1       -0.079   3.599  -1.189  0.00  0.00    +0.020 A 
ATOM     30  C   LIG    1        1.098   3.172  -0.602  0.00  0.00    -0.010 A 
ATOM     31  C   LIG    1        1.108   2.037   0.188  0.00  0.00    +0.030 A 
ATOM     32  C   LIG    1       -0.059   1.327   0.394  0.00  0.00    -0.020 A 
ENDBRANCH  25  27
ENDBRANCH   3  25
TORSDOF 4
