REMARK  Name = ZINCpk00000k1GKL.0
REMARK                            x       y       z     vdW  Elec       q    Type
REMARK                         _______ _______ _______ _____ _____    ______ ____
ROOT
ATOM      1  C   LIG    1        5.064   3.698  -0.995  0.00  0.00    +0.560 C 
ATOM      2  N   LIG    1        3.970   3.279  -0.327  0.00  0.00    -0.710 N 
ATOM      3  H   LIG    1        4.065   2.857   0.541  0.00  0.00    +0.400 HD
ATOM      4  O   LIG    1        4.946   4.227  -2.083  0.00  0.00    -0.520 OA
ENDROOT
BRANCH   1  11
ATOM      5  C   LIG    1       10.209   2.984   1.288  0.00  0.00    +0.470 A 
ATOM      6  N   LIG    1       11.246   3.415   0.584  0.00  0.00    -0.590 NA
ATOM      7  C   LIG    1       11.088   3.988  -0.600  0.00  0.00    +0.550 A 
ATOM      8  N   LIG    1        9.914   4.168  -1.155  0.00  0.00    -0.550 NA
ATOM      9  C   LIG    1        8.796   3.769  -0.528  0.00  0.00    +0.180 A 
ATOM     10  C   LIG    1        7.529   3.942  -1.097  0.00  0.00    +0.120 A 
ATOM     11  C   LIG    1        6.408   3.514  -0.403  0.00  0.00    -0.100 A 
ATOM     12  C   LIG    1        6.537   2.903   0.854  0.00  0.00    +0.020 A 
ATOM     13  C   LIG    1        7.763   2.723   1.417  0.00  0.00    +0.060 A 
ATOM     14  C   LIG    1        8.911   3.150   0.741  0.00  0.00    -0.180 A 
BRANCH   5  16
ATOM     15  C   LIG    1       11.737   2.228   3.065  0.00  0.00    +0.310 C 
ATOM     16  N   LIG    1       10.387   2.390   2.519  0.00  0.00    -0.700 N 
ATOM     17  H   LIG    1        9.619   2.079   3.023  0.00  0.00    +0.410 HD
ENDBRANCH   5  16
ENDBRANCH   1  11
BRANCH   2  18
ATOM     18  C   LIG    1        2.640   3.461  -0.913  0.00  0.00    +0.230 C 
ATOM     19  C   LIG    1        2.003   2.154  -1.413  0.00  0.00    +0.040 C 
ATOM     20  C   LIG    1        1.418   1.990  -0.001  0.00  0.00    -0.030 C 
ATOM     21  C   LIG    1        1.511   3.520   0.129  0.00  0.00    +0.050 C 
BRANCH  20  22
ATOM     22  C   LIG    1       -0.018   1.461   0.010  0.00  0.00    +0.330 C 
BRANCH  22  23
ATOM     23  N   LIG    1        0.002  -0.004   0.002  0.00  0.00    -0.290 N 
ATOM     24  C   LIG    1       -0.603  -0.810   0.905  0.00  0.00    +0.140 A 
ATOM     25  C   LIG    1       -0.331  -2.079   0.519  0.00  0.00    +0.140 A 
ATOM     26  N   LIG    1        0.423  -1.988  -0.582  0.00  0.00    -0.270 NA
ATOM     27  N   LIG    1        0.603  -0.745  -0.862  0.00  0.00    -0.080 NA
ENDBRANCH  22  23
ENDBRANCH  20  22
ENDBRANCH   2  18
TORSDOF 5
