REMARK  Name = ZINCrH000004tMvL.0
REMARK                            x       y       z     vdW  Elec       q    Type
REMARK                         _______ _______ _______ _____ _____    ______ ____
ROOT
ATOM      1  O   LIG    1        4.535   5.152   1.199  0.00  0.00    -0.510 OA
ATOM      2  C   LIG    1        3.446   5.626   1.443  0.00  0.00    +0.520 C 
ATOM      3  N   LIG    1        2.339   5.091   0.892  0.00  0.00    -0.730 N 
ATOM      4  H   LIG    1        1.468   5.470   1.088  0.00  0.00    +0.400 HD
ENDROOT
BRANCH   3   5
ATOM      5  C   LIG    1        2.451   3.936  -0.002  0.00  0.00    +0.390 C 
BRANCH   5   6
ATOM      6  C   LIG    1        1.156   3.166   0.007  0.00  0.00    -0.100 A 
ATOM      7  C   LIG    1        1.175   1.783   0.000  0.00  0.00    +0.070 A 
ATOM      8  C   LIG    1       -0.013   1.076   0.008  0.00  0.00    -0.010 A 
ATOM      9  C   LIG    1       -1.221   1.752   0.017  0.00  0.00    +0.110 A 
ATOM     10  C   LIG    1       -1.238   3.136   0.030  0.00  0.00    -0.010 A 
ATOM     11  F   LIG    1       -2.382   1.062   0.019  0.00  0.00    -0.140 F 
ATOM     12  C   LIG    1       -0.050   3.842   0.022  0.00  0.00    +0.050 A 
ENDBRANCH   5   6
BRANCH   5  13
ATOM     13  C   LIG    1        2.743   4.411  -1.402  0.00  0.00    -0.190 A 
ATOM     14  C   LIG    1        3.590   3.828  -2.252  0.00  0.00    +0.020 A 
ATOM     15  C   LIG    1        3.695   4.444  -3.486  0.00  0.00    +0.010 A 
ATOM     16  C   LIG    1        2.934   5.529  -3.640  0.00  0.00    -0.050 A 
ATOM     17  S   LIG    1        2.013   5.816  -2.169  0.00  0.00    +0.100 S 
ENDBRANCH   5  13
ENDBRANCH   3   5
BRANCH   2  18
ATOM     18  C   LIG    1        3.331   6.814   2.364  0.00  0.00    +0.210 C 
BRANCH  18  19
ATOM     19  N   LIG    1        4.668   7.206   2.828  0.00  0.00    -0.510 NA
ATOM     20  C   LIG    1        5.251   6.167   3.692  0.00  0.00    +0.150 C 
ATOM     21  C   LIG    1        6.660   6.588   4.117  0.00  0.00    +0.230 C 
ATOM     22  O   LIG    1        6.603   7.864   4.761  0.00  0.00    -0.380 OA
ATOM     23  C   LIG    1        6.047   8.892   3.938  0.00  0.00    +0.170 C 
ATOM     24  C   LIG    1        6.001  10.214   4.705  0.00  0.00    +0.040 C 
ATOM     25  C   LIG    1        5.412  11.300   3.802  0.00  0.00    +0.020 C 
ATOM     26  C   LIG    1        3.998  10.903   3.374  0.00  0.00    +0.010 C 
ATOM     27  C   LIG    1        4.042   9.573   2.619  0.00  0.00    +0.040 C 
ATOM     28  C   LIG    1        4.625   8.494   3.532  0.00  0.00    +0.110 C 
ENDBRANCH  18  19
ENDBRANCH   2  18
TORSDOF 5
