REMARK  Name = ZINCqH0000051I2k.0
REMARK                            x       y       z     vdW  Elec       q    Type
REMARK                         _______ _______ _______ _____ _____    ______ ____
ROOT
ATOM      1  O   LIG    1       -3.670  -2.124  -0.519  0.00  0.00    -0.940 OA
ATOM      2  S   LIG    1       -2.680  -2.995   0.012  0.00  0.00    +2.700 S 
ATOM      3  O   LIG    1       -2.391  -4.272  -0.542  0.00  0.00    -0.940 OA
ENDROOT
BRANCH   2   4
ATOM      4  N   LIG    1       -3.087  -3.254   1.596  0.00  0.00    -1.000 NA
ATOM      5  C   LIG    1       -3.917  -2.295   2.339  0.00  0.00    +0.350 C 
ATOM      6  C   LIG    1       -3.336  -2.100   3.712  0.00  0.00    -0.020 C 
ATOM      7  C   LIG    1       -2.389  -2.857   4.210  0.00  0.00    -0.080 C 
ATOM      8  C   LIG    1       -1.746  -4.000   3.481  0.00  0.00    +0.070 C 
ATOM      9  C   LIG    1       -2.636  -4.458   2.316  0.00  0.00    +0.310 C 
BRANCH   7  10
ATOM     10  C   LIG    1       -1.922  -2.565   5.582  0.00  0.00    -0.080 A 
ATOM     11  C   LIG    1       -2.120  -3.487   6.609  0.00  0.00    +0.270 A 
ATOM     12  N   LIG    1       -1.704  -3.228   7.832  0.00  0.00    -0.450 NA
ATOM     13  C   LIG    1       -1.091  -2.101   8.136  0.00  0.00    +0.240 A 
ATOM     14  C   LIG    1       -0.856  -1.133   7.173  0.00  0.00    +0.050 A 
ATOM     15  F   LIG    1       -0.227   0.017   7.499  0.00  0.00    -0.130 F 
ATOM     16  C   LIG    1       -1.269  -1.361   5.869  0.00  0.00    +0.050 A 
ENDBRANCH   7  10
ENDBRANCH   2   4
BRANCH   2  17
ATOM     17  C   LIG    1       -1.167  -2.094   0.002  0.00  0.00    -0.680 A 
ATOM     18  C   LIG    1        0.040  -2.768  -0.012  0.00  0.00    +0.160 A 
ATOM     19  C   LIG    1        1.227  -2.061  -0.020  0.00  0.00    +0.010 A 
ATOM     20  C   LIG    1        1.209  -0.679  -0.013  0.00  0.00    +0.130 A 
ATOM     21  C   LIG    1        0.002  -0.004   0.002  0.00  0.00    -0.200 A 
ATOM     22  C   LIG    1       -1.185  -0.711   0.015  0.00  0.00    +0.180 A 
BRANCH  21  23
ATOM     23  C   LIG    1       -0.018   1.503   0.010  0.00  0.00    +0.510 C 
ATOM     24  F   LIG    1       -0.673   1.954   1.161  0.00  0.00    -0.170 F 
ATOM     25  F   LIG    1       -0.695   1.966  -1.123  0.00  0.00    -0.170 F 
ATOM     26  F   LIG    1        1.294   1.987   0.000  0.00  0.00    -0.170 F 
ENDBRANCH  21  23
ENDBRANCH   2  17
TORSDOF 4
