REMARK  Name = ZINCpk00000y6vP7.0
REMARK                            x       y       z     vdW  Elec       q    Type
REMARK                         _______ _______ _______ _____ _____    ______ ____
ROOT
ATOM      1  C   LIG    1       -0.068   1.127   2.404  0.00  0.00    +0.160 C 
ATOM      2  C   LIG    1       -1.120   1.047   3.534  0.00  0.00    +0.080 C 
ATOM      3  C   LIG    1       -0.350   1.594   4.763  0.00  0.00    +0.130 C 
ATOM      4  N   LIG    1        0.482   2.681   4.186  0.00  0.00    -0.470 N 
ATOM      5  C   LIG    1        0.953   2.177   2.878  0.00  0.00    +0.180 C 
ENDROOT
BRANCH   4   6
ATOM      6  C   LIG    1        1.550   2.982   5.016  0.00  0.00    +0.340 A 
ATOM      7  C   LIG    1        2.465   1.992   5.382  0.00  0.00    -0.120 A 
ATOM      8  C   LIG    1        3.514   2.344   6.208  0.00  0.00    +0.330 A 
ATOM      9  N   LIG    1        3.613   3.596   6.631  0.00  0.00    -0.500 NA
ATOM     10  C   LIG    1        2.731   4.506   6.271  0.00  0.00    +0.520 A 
ATOM     11  N   LIG    1        1.717   4.216   5.482  0.00  0.00    -0.500 NA
ENDBRANCH   4   6
BRANCH   1  13
ATOM     12  C   LIG    1       -0.013   1.086   0.008  0.00  0.00    +0.200 C 
ATOM     13  O   LIG    1       -0.682   1.547   1.184  0.00  0.00    -0.370 OA
ENDBRANCH   1  13
BRANCH   3  14
ATOM     14  C   LIG    1       -1.322   2.152   5.804  0.00  0.00    +0.320 C 
BRANCH  14  15
ATOM     15  N   LIG    1       -0.571   2.867   6.839  0.00  0.00    -0.700 N 
ATOM     16  H   LIG    1        0.396   2.923   6.786  0.00  0.00    +0.400 HD
BRANCH  15  17
ATOM     17  C   LIG    1       -1.242   3.462   7.895  0.00  0.00    +0.380 A 
ATOM     18  N   LIG    1       -2.563   3.389   7.973  0.00  0.00    -0.290 NA
ATOM     19  N   LIG    1       -3.221   3.926   8.934  0.00  0.00    -0.170 NA
ATOM     20  C   LIG    1       -2.638   4.590   9.913  0.00  0.00    +0.010 A 
ATOM     21  C   LIG    1       -1.260   4.731   9.935  0.00  0.00    +0.020 A 
ATOM     22  C   LIG    1       -0.573   5.485  11.044  0.00  0.00    +0.130 C 
ATOM     23  C   LIG    1       -3.472   5.197  11.011  0.00  0.00    +0.140 C 
ATOM     24  C   LIG    1       -0.525   4.145   8.896  0.00  0.00    -0.100 A 
BRANCH  24  25
ATOM     25  C   LIG    1        0.903   4.242   8.851  0.00  0.00    +0.240 C 
ATOM     26  N   LIG    1        2.036   4.319   8.816  0.00  0.00    -0.380 NA
ENDBRANCH  24  25
ENDBRANCH  15  17
ENDBRANCH  14  15
ENDBRANCH   3  14
TORSDOF 6
