REMARK  Name = ZINCqH0000038eRc.0
REMARK                            x       y       z     vdW  Elec       q    Type
REMARK                         _______ _______ _______ _____ _____    ______ ____
ROOT
ATOM      1  C   LIG    1        1.041  -0.401   4.096  0.00  0.00    +0.270 C 
ATOM      2  C   LIG    1        1.010  -1.943   4.141  0.00  0.00    +0.050 C 
ATOM      3  C   LIG    1        0.761  -2.329   2.659  0.00  0.00    +0.040 C 
ATOM      4  C   LIG    1       -0.184  -1.189   2.197  0.00  0.00    +0.250 C 
ATOM      5  N   LIG    1        0.318   0.015   2.885  0.00  0.00    -0.610 N 
ATOM      6  C   LIG    1        0.139   1.286   2.475  0.00  0.00    +0.540 C 
ATOM      7  O   LIG    1        0.666   2.198   3.077  0.00  0.00    -0.490 OA
ENDROOT
BRANCH   6   8
ATOM      8  C   LIG    1       -0.717   1.575   1.268  0.00  0.00    +0.190 C 
ATOM      9  C   LIG    1        0.061   1.233  -0.003  0.00  0.00    +0.110 C 
ATOM     10  C   LIG    1       -0.675   1.740  -1.215  0.00  0.00    -0.040 A 
ATOM     11  C   LIG    1       -0.422   1.190  -2.455  0.00  0.00    +0.020 A 
ATOM     12  C   LIG    1       -1.092   1.655  -3.572  0.00  0.00    +0.050 A 
ATOM     13  C   LIG    1       -2.021   2.675  -3.459  0.00  0.00    +0.010 A 
ATOM     14  C   LIG    1       -2.286   3.234  -2.225  0.00  0.00    +0.090 A 
ATOM     15  C   LIG    1       -1.614   2.767  -1.097  0.00  0.00    -0.170 A 
ATOM     16  C   LIG    1       -1.892   3.349   0.236  0.00  0.00    +0.530 C 
ATOM     17  O   LIG    1       -2.818   4.115   0.412  0.00  0.00    -0.440 OA
ATOM     18  O   LIG    1       -1.068   2.989   1.253  0.00  0.00    -0.330 OA
ENDBRANCH   6   8
BRANCH   1  23
ATOM     19  C   LIG    1       -1.567   1.756   8.780  0.00  0.00    +0.090 C 
ATOM     20  C   LIG    1       -0.887   1.193   7.558  0.00  0.00    -0.080 A 
ATOM     21  C   LIG    1       -1.643   0.704   6.510  0.00  0.00    +0.000 A 
ATOM     22  C   LIG    1       -1.019   0.193   5.387  0.00  0.00    +0.000 A 
ATOM     23  C   LIG    1        0.361   0.161   5.317  0.00  0.00    -0.090 A 
ATOM     24  C   LIG    1        1.117   0.650   6.366  0.00  0.00    +0.020 A 
ATOM     25  C   LIG    1        0.494   1.166   7.487  0.00  0.00    -0.080 A 
ATOM     26  C   LIG    1        1.318   1.699   8.630  0.00  0.00    +0.090 C 
ENDBRANCH   1  23
TORSDOF 2
