REMARK  Name = ZINCvU0000000AAk.0
REMARK                            x       y       z     vdW  Elec       q    Type
REMARK                         _______ _______ _______ _____ _____    ______ ____
ROOT
ATOM      1  C   LIG    1        4.186  -0.743  -0.065  0.00  0.00    +0.200 C 
ENDROOT
BRANCH   1   4
ATOM      2  C   LIG    1        7.567  -1.698   0.907  0.00  0.00    +0.300 A 
ATOM      3  N   LIG    1        6.300  -1.448   1.031  0.00  0.00    -0.530 NA
ATOM      4  C   LIG    1        5.657  -1.067  -0.059  0.00  0.00    +0.110 A 
ATOM      5  C   LIG    1        6.415  -0.999  -1.154  0.00  0.00    -0.100 A 
ATOM      6  S   LIG    1        8.059  -1.451  -0.712  0.00  0.00    +0.150 S 
BRANCH   2   7
ATOM      7  N   LIG    1        8.400  -2.107   1.937  0.00  0.00    -0.630 N 
ATOM      8  H   LIG    1        8.068  -2.135   2.848  0.00  0.00    +0.420 HD
BRANCH   7  12
ATOM      9  C   LIG    1       12.336  -3.210   1.120  0.00  0.00    +0.110 A 
ATOM     10  C   LIG    1       12.035  -2.537   2.295  0.00  0.00    +0.020 A 
ATOM     11  C   LIG    1       10.731  -2.171   2.566  0.00  0.00    +0.040 A 
ATOM     12  C   LIG    1        9.722  -2.477   1.663  0.00  0.00    +0.120 A 
ATOM     13  C   LIG    1       10.024  -3.157   0.490  0.00  0.00    +0.010 A 
ATOM     14  C   LIG    1       11.329  -3.517   0.217  0.00  0.00    -0.030 A 
BRANCH   9  16
ATOM     15  C   LIG    1       13.859  -4.261  -0.375  0.00  0.00    +0.240 C 
ATOM     16  O   LIG    1       13.620  -3.570   0.853  0.00  0.00    -0.320 OA
ENDBRANCH   9  16
ENDBRANCH   7  12
ENDBRANCH   2   7
ENDBRANCH   1   4
BRANCH   1  17
ATOM     17  S   LIG    1        3.954   1.016   0.290  0.00  0.00    +0.080 S 
BRANCH  17  18
ATOM     18  C   LIG    1        2.196   1.113   0.223  0.00  0.00    +0.120 A 
ATOM     19  N   LIG    1        1.373   0.122  -0.025  0.00  0.00    -0.280 NA
ATOM     20  N   LIG    1        0.161   0.554   0.004  0.00  0.00    -0.250 NA
ATOM     21  C   LIG    1        0.162   1.838   0.271  0.00  0.00    +0.230 A 
ATOM     22  O   LIG    1        1.451   2.219   0.415  0.00  0.00    -0.210 OA
BRANCH  21  23
ATOM     23  C   LIG    1       -1.025   2.707   0.387  0.00  0.00    -0.100 A 
ATOM     24  C   LIG    1       -0.874   4.063   0.682  0.00  0.00    +0.140 A 
ATOM     25  C   LIG    1       -1.985   4.873   0.785  0.00  0.00    -0.110 A 
ATOM     26  C   LIG    1       -3.256   4.343   0.605  0.00  0.00    +0.200 A 
ATOM     27  C   LIG    1       -3.416   2.995   0.316  0.00  0.00    -0.100 A 
ATOM     28  C   LIG    1       -2.308   2.174   0.206  0.00  0.00    +0.220 A 
BRANCH  26  29
ATOM     29  O   LIG    1       -4.346   5.146   0.713  0.00  0.00    -0.310 OA
ATOM     30  C   LIG    1       -4.110   6.523   1.012  0.00  0.00    +0.250 C 
ENDBRANCH  26  29
BRANCH  28  31
ATOM     31  O   LIG    1       -2.464   0.854  -0.077  0.00  0.00    -0.280 OA
ATOM     32  C   LIG    1       -3.801   0.381  -0.248  0.00  0.00    +0.250 C 
ENDBRANCH  28  31
ENDBRANCH  21  23
ENDBRANCH  17  18
ENDBRANCH   1  17
TORSDOF 9
