REMARK  Name = ZINCpk00000y6vUx.0
REMARK                            x       y       z     vdW  Elec       q    Type
REMARK                         _______ _______ _______ _____ _____    ______ ____
ROOT
ATOM      1  N   LIG    1        3.655   2.274  -3.510  0.00  0.00    -0.530 NA
ATOM      2  C   LIG    1        2.473   1.417  -3.667  0.00  0.00    +0.170 C 
ATOM      3  C   LIG    1        1.515   1.649  -2.496  0.00  0.00    +0.030 C 
ATOM      4  C   LIG    1        2.233   1.323  -1.184  0.00  0.00    -0.030 C 
ATOM      5  C   LIG    1        3.487   2.194  -1.068  0.00  0.00    +0.040 C 
ATOM      6  C   LIG    1        4.388   1.947  -2.280  0.00  0.00    +0.160 C 
ENDROOT
BRANCH   1   7
ATOM      7  C   LIG    1        4.532   2.181  -4.685  0.00  0.00    +0.280 C 
BRANCH   7  13
ATOM      8  C   LIG    1       10.529   6.389  -3.710  0.00  0.00    +0.110 C 
ATOM      9  C   LIG    1        9.137   5.957  -4.093  0.00  0.00    -0.110 A 
ATOM     10  C   LIG    1        8.743   4.686  -3.872  0.00  0.00    +0.210 A 
ATOM     11  N   LIG    1        7.486   4.278  -4.213  0.00  0.00    -0.360 N 
ATOM     12  C   LIG    1        6.841   3.076  -4.103  0.00  0.00    +0.080 A 
ATOM     13  C   LIG    1        5.597   3.244  -4.603  0.00  0.00    +0.070 A 
ATOM     14  N   LIG    1        5.471   4.507  -5.017  0.00  0.00    -0.470 NA
ATOM     15  C   LIG    1        6.603   5.156  -4.785  0.00  0.00    +0.220 A 
ATOM     16  C   LIG    1        6.999   6.488  -5.023  0.00  0.00    +0.080 A 
ATOM     17  C   LIG    1        8.255   6.881  -4.678  0.00  0.00    +0.040 A 
ENDBRANCH   7  13
ENDBRANCH   1   7
BRANCH   4  18
ATOM     18  C   LIG    1        1.301   1.610  -0.005  0.00  0.00    +0.220 C 
BRANCH  18  19
ATOM     19  C   LIG    1        0.081   0.731  -0.104  0.00  0.00    +0.490 C 
ATOM     20  N   LIG    1        0.202  -0.606   0.018  0.00  0.00    -0.700 N 
ATOM     21  H   LIG    1        1.061  -0.997   0.242  0.00  0.00    +0.400 HD
ATOM     22  O   LIG    1       -1.010   1.226  -0.294  0.00  0.00    -0.530 OA
BRANCH  20  23
ATOM     23  C   LIG    1       -0.964  -1.469  -0.187  0.00  0.00    +0.220 C 
ATOM     24  C   LIG    1       -1.182  -2.610   0.809  0.00  0.00    +0.010 C 
ATOM     25  C   LIG    1       -0.706  -2.916  -0.613  0.00  0.00    +0.010 C 
ENDBRANCH  20  23
ENDBRANCH  18  19
BRANCH  18  26
ATOM     26  O   LIG    1        0.902   2.982  -0.036  0.00  0.00    -0.530 OA
ATOM     27  H   LIG    1        0.432   3.237  -0.842  0.00  0.00    +0.380 HD
ENDBRANCH  18  26
ENDBRANCH   4  18
TORSDOF 6
