REMARK  Name = ZINCpk00000y6vF3.0
REMARK                            x       y       z     vdW  Elec       q    Type
REMARK                         _______ _______ _______ _____ _____    ______ ____
ROOT
ATOM      1  C   LIG    1       -3.145   4.483  -4.416  0.00  0.00    +0.150 C 
ATOM      2  C   LIG    1       -3.055   3.419  -3.592  0.00  0.00    -0.040 C 
ENDROOT
BRANCH   1   7
ATOM      3  C   LIG    1       -2.871   5.181  -8.099  0.00  0.00    -0.190 A 
ATOM      4  C   LIG    1       -2.606   3.885  -8.545  0.00  0.00    +0.310 A 
ATOM      5  N   LIG    1       -2.527   2.879  -7.697  0.00  0.00    -0.480 NA
ATOM      6  C   LIG    1       -2.692   3.043  -6.401  0.00  0.00    +0.320 A 
ATOM      7  C   LIG    1       -2.961   4.308  -5.866  0.00  0.00    -0.140 A 
ATOM      8  C   LIG    1       -3.058   5.403  -6.732  0.00  0.00    +0.170 A 
BRANCH   3  12
ATOM      9  C   LIG    1       -2.866   7.186 -11.328  0.00  0.00    +0.290 C 
ATOM     10  N   LIG    1       -2.780   6.076 -10.377  0.00  0.00    -0.730 N 
ATOM     11  H   LIG    1       -2.596   5.178 -10.694  0.00  0.00    +0.400 HD
ATOM     12  C   LIG    1       -2.957   6.302  -9.060  0.00  0.00    +0.560 C 
ATOM     13  O   LIG    1       -3.188   7.427  -8.662  0.00  0.00    -0.530 OA
ENDBRANCH   3  12
ENDBRANCH   1   7
BRANCH   2  14
ATOM     14  C   LIG    1       -3.237   3.593  -2.151  0.00  0.00    +0.500 C 
ATOM     15  O   LIG    1       -3.470   4.697  -1.697  0.00  0.00    -0.500 OA
BRANCH  14  16
ATOM     16  O   LIG    1       -3.147   2.529  -1.327  0.00  0.00    -0.330 OA
BRANCH  16  17
ATOM     17  C   LIG    1       -3.337   2.772   0.069  0.00  0.00    +0.350 C 
BRANCH  17  18
ATOM     18  C   LIG    1       -3.201   1.476   0.827  0.00  0.00    +0.270 A 
ATOM     19  N   LIG    1       -4.170   0.641   1.100  0.00  0.00    -0.520 NA
ATOM     20  C   LIG    1       -3.692  -0.395   1.788  0.00  0.00    +0.420 A 
ATOM     21  N   LIG    1       -2.406  -0.235   1.959  0.00  0.00    -0.310 NA
ATOM     22  N   LIG    1       -2.062   0.977   1.338  0.00  0.00    -0.360 N 
BRANCH  22  23
ATOM     23  C   LIG    1       -0.729   1.579   1.267  0.00  0.00    +0.330 C 
BRANCH  23  24
ATOM     24  C   LIG    1       -0.013   1.086   0.008  0.00  0.00    -0.030 C 
ATOM     25  C   LIG    1       -0.753   1.593  -1.232  0.00  0.00    +0.030 C 
ATOM     26  C   LIG    1        1.423   1.615  -0.003  0.00  0.00    +0.040 C 
ENDBRANCH  23  24
ENDBRANCH  22  23
ENDBRANCH  17  18
ENDBRANCH  16  17
ENDBRANCH  14  16
ENDBRANCH   2  14
TORSDOF 8
