REMARK  Name = ZINCqH0000035Zjl.0
REMARK                            x       y       z     vdW  Elec       q    Type
REMARK                         _______ _______ _______ _____ _____    ______ ____
ROOT
ATOM      1  C   LIG    1        4.296   4.684   1.276  0.00  0.00    +0.160 C 
ATOM      2  C   LIG    1        4.971   4.056   0.053  0.00  0.00    +0.020 C 
ATOM      3  C   LIG    1        5.401   2.627   0.394  0.00  0.00    +0.220 C 
ATOM      4  O   LIG    1        6.276   2.651   1.523  0.00  0.00    -0.380 OA
ATOM      5  C   LIG    1        5.683   3.183   2.709  0.00  0.00    +0.220 C 
ATOM      6  C   LIG    1        5.265   4.635   2.462  0.00  0.00    +0.010 C 
ENDROOT
BRANCH   1   7
ATOM      7  C   LIG    1        3.937   6.116   0.977  0.00  0.00    -0.110 A 
ATOM      8  C   LIG    1        2.610   6.495   0.899  0.00  0.00    +0.000 A 
ATOM      9  C   LIG    1        2.277   7.809   0.630  0.00  0.00    +0.050 A 
ATOM     10  C   LIG    1        3.271   8.748   0.426  0.00  0.00    -0.040 A 
ATOM     11  C   LIG    1        4.604   8.371   0.497  0.00  0.00    +0.100 A 
ATOM     12  C   LIG    1        4.936   7.051   0.773  0.00  0.00    +0.080 A 
ATOM     13  F   LIG    1        6.234   6.681   0.843  0.00  0.00    -0.120 F 
BRANCH  11  14
ATOM     14  O   LIG    1        5.583   9.293   0.297  0.00  0.00    -0.310 OA
ATOM     15  C   LIG    1        5.168  10.631   0.018  0.00  0.00    +0.260 C 
ENDBRANCH  11  14
ENDBRANCH   1   7
BRANCH   1  16
ATOM     16  N   LIG    1        3.078   3.931   1.605  0.00  0.00    -0.660 NA
ATOM     17  H   LIG    1        2.403   3.991   0.858  0.00  0.00    +0.350 HD
BRANCH  16  18
ATOM     18  C   LIG    1        2.501   4.392   2.875  0.00  0.00    +0.240 C 
BRANCH  18  23
ATOM     19  C   LIG    1        0.145   1.883   4.436  0.00  0.00    +0.120 A 
ATOM     20  C   LIG    1       -1.029   2.139   3.743  0.00  0.00    -0.040 A 
ATOM     21  C   LIG    1       -1.054   3.116   2.766  0.00  0.00    +0.030 A 
ATOM     22  C   LIG    1        0.088   3.846   2.486  0.00  0.00    +0.060 A 
ATOM     23  C   LIG    1        1.259   3.596   3.181  0.00  0.00    -0.070 A 
ATOM     24  F   LIG    1        0.060   4.804   1.534  0.00  0.00    -0.140 F 
ATOM     25  C   LIG    1        1.289   2.616   4.154  0.00  0.00    +0.030 A 
BRANCH  19  27
ATOM     26  C   LIG    1       -1.041   0.204   5.630  0.00  0.00    +0.240 C 
ATOM     27  O   LIG    1        0.174   0.919   5.393  0.00  0.00    -0.310 OA
ENDBRANCH  19  27
ENDBRANCH  18  23
ENDBRANCH  16  18
ENDBRANCH   1  16
TORSDOF 6
