REMARK  Name = ZINCkj000005kxqa.0
REMARK                            x       y       z     vdW  Elec       q    Type
REMARK                         _______ _______ _______ _____ _____    ______ ____
ROOT
ATOM      1  N   LIG    1       -0.730   2.015  -1.208  0.00  0.00    -0.490 N 
ATOM      2  H   LIG    1       -0.246   1.615  -1.998  0.00  0.00    +0.440 HD
ATOM      3  H   LIG    1       -0.745   3.020  -1.296  0.00  0.00    +0.440 HD
ENDROOT
BRANCH   1   9
ATOM      4  C   LIG    1        4.781   1.515   3.646  0.00  0.00    +0.140 C 
ATOM      5  C   LIG    1        3.500   1.645   2.863  0.00  0.00    +0.020 A 
ATOM      6  C   LIG    1        3.400   1.794   1.527  0.00  0.00    +0.140 A 
ATOM      7  N   LIG    1        2.070   1.871   1.240  0.00  0.00    -0.470 N 
ATOM      8  C   LIG    1        1.443   2.034  -0.074  0.00  0.00    +0.320 C 
ATOM      9  C   LIG    1       -0.035   1.643   0.031  0.00  0.00    +0.170 C 
ATOM     10  C   LIG    1       -0.674   2.375   1.215  0.00  0.00    +0.060 C 
ATOM     11  C   LIG    1       -0.110   1.809   2.524  0.00  0.00    +0.190 C 
ATOM     12  C   LIG    1        1.396   1.768   2.410  0.00  0.00    +0.190 A 
ATOM     13  N   LIG    1        2.258   1.632   3.375  0.00  0.00    -0.460 NA
ENDBRANCH   1   9
BRANCH   1  14
ATOM     14  C   LIG    1       -2.107   1.506  -1.169  0.00  0.00    +0.170 C 
ATOM     15  C   LIG    1       -2.087  -0.023  -1.177  0.00  0.00    +0.120 C 
BRANCH  14  16
ATOM     16  C   LIG    1       -2.862   2.005  -2.375  0.00  0.00    +0.510 C 
ATOM     17  N   LIG    1       -4.153   1.663  -2.551  0.00  0.00    -0.690 N 
ATOM     18  H   LIG    1       -4.598   1.096  -1.901  0.00  0.00    +0.410 HD
ATOM     19  O   LIG    1       -2.306   2.714  -3.187  0.00  0.00    -0.520 OA
BRANCH  17  20
ATOM     20  C   LIG    1       -4.886   2.148  -3.723  0.00  0.00    +0.170 C 
ATOM     21  C   LIG    1       -4.907   3.678  -3.714  0.00  0.00    +0.050 C 
ATOM     22  C   LIG    1       -6.321   1.618  -3.682  0.00  0.00    +0.070 C 
ATOM     23  C   LIG    1       -4.196   1.654  -4.996  0.00  0.00    +0.050 C 
ENDBRANCH  17  20
ENDBRANCH  14  16
ENDBRANCH   1  14
TORSDOF 4
