REMARK  Name = ZINCnE000001HJAW.0
REMARK                            x       y       z     vdW  Elec       q    Type
REMARK                         _______ _______ _______ _____ _____    ______ ____
ROOT
ATOM      1  C   LIG    1        6.133  -0.131  -3.008  0.00  0.00    +0.070 A 
ATOM      2  N   LIG    1        6.362  -0.222  -1.730  0.00  0.00    -0.250 NA
ATOM      3  N   LIG    1        5.332   0.189  -1.078  0.00  0.00    -0.430 NA
ATOM      4  C   LIG    1        4.399   0.551  -1.925  0.00  0.00    +0.490 A 
ATOM      5  O   LIG    1        4.888   0.360  -3.164  0.00  0.00    -0.250 OA
ENDROOT
BRANCH   1   6
ATOM      6  C   LIG    1        7.088  -0.505  -4.112  0.00  0.00    +0.170 C 
BRANCH   6   7
ATOM      7  C   LIG    1        8.341   0.325  -3.995  0.00  0.00    -0.080 A 
ATOM      8  C   LIG    1        9.108   0.259  -2.847  0.00  0.00    +0.050 A 
ATOM      9  C   LIG    1       10.260   1.016  -2.741  0.00  0.00    +0.000 A 
ATOM     10  C   LIG    1       10.639   1.846  -3.780  0.00  0.00    +0.000 A 
ATOM     11  C   LIG    1        9.869   1.915  -4.926  0.00  0.00    -0.010 A 
ATOM     12  C   LIG    1        8.720   1.155  -5.033  0.00  0.00    +0.010 A 
ENDBRANCH   6   7
BRANCH   6  14
ATOM     13  C   LIG    1        6.194  -2.834  -4.240  0.00  0.00    +0.020 C 
ATOM     14  C   LIG    1        7.445  -1.988  -3.997  0.00  0.00    +0.040 C 
ENDBRANCH   6  14
ENDBRANCH   1   6
BRANCH   4  15
ATOM     15  N   LIG    1        3.147   1.043  -1.604  0.00  0.00    -1.060 NA
BRANCH  15  16
ATOM     16  S   LIG    1        2.706   1.214  -0.017  0.00  0.00    +2.680 S 
ATOM     17  O   LIG    1        2.627  -0.098   0.521  0.00  0.00    -1.010 OA
ATOM     18  O   LIG    1        3.543   2.228   0.524  0.00  0.00    -1.000 OA
BRANCH  16  19
ATOM     19  C   LIG    1        1.067   1.859   0.002  0.00  0.00    -0.640 A 
ATOM     20  C   LIG    1       -0.013   1.076   0.008  0.00  0.00    +0.090 A 
ATOM     21  S   LIG    1       -1.463   2.070   0.019  0.00  0.00    +0.100 S 
ATOM     22  C   LIG    1       -0.494   3.538   0.025  0.00  0.00    -0.060 A 
ATOM     23  C   LIG    1        0.801   3.218   0.011  0.00  0.00    +0.090 A 
ENDBRANCH  16  19
ENDBRANCH  15  16
ENDBRANCH   4  15
TORSDOF 6
