REMARK  Name = ZINCtj00001UqOsp.1
REMARK                            x       y       z     vdW  Elec       q    Type
REMARK                         _______ _______ _______ _____ _____    ______ ____
ROOT
ATOM      1  N   LIG    1        0.442   3.611   0.664  0.00  0.00    -0.370 N 
ATOM      2  C   LIG    1       -0.374   3.436   1.872  0.00  0.00    +0.250 C 
ATOM      3  C   LIG    1       -0.787   1.968   2.004  0.00  0.00    +0.070 C 
ATOM      4  C   LIG    1       -1.601   1.558   0.772  0.00  0.00    +0.060 C 
ATOM      5  C   LIG    1       -0.766   1.817  -0.486  0.00  0.00    -0.100 C 
ATOM      6  C   LIG    1       -1.597   1.485  -1.727  0.00  0.00    +0.110 C 
ATOM      7  C   LIG    1       -0.355   3.290  -0.526  0.00  0.00    +0.300 C 
ATOM      8  H   LIG    1        1.242   2.999   0.708  0.00  0.00    +0.440 HD
ENDROOT
BRANCH   5   9
ATOM      9  C   LIG    1        0.466   0.950  -0.460  0.00  0.00    +0.520 C 
ATOM     10  N   LIG    1        0.347  -0.392  -0.456  0.00  0.00    -0.590 N 
ATOM     11  C   LIG    1       -0.976  -1.026  -0.362  0.00  0.00    +0.260 C 
ATOM     12  C   LIG    1       -1.130  -2.011  -1.530  0.00  0.00    +0.050 C 
ATOM     13  C   LIG    1        0.041  -2.996  -1.518  0.00  0.00    -0.060 C 
ATOM     14  C   LIG    1        1.354  -2.233  -1.702  0.00  0.00    +0.040 C 
ATOM     15  C   LIG    1        1.536  -1.250  -0.541  0.00  0.00    +0.290 C 
ATOM     16  O   LIG    1        1.566   1.461  -0.446  0.00  0.00    -0.560 OA
BRANCH  13  17
ATOM     17  C   LIG    1        0.066  -3.739  -0.180  0.00  0.00    +0.160 C 
BRANCH  17  18
ATOM     18  O   LIG    1       -1.160  -4.452  -0.008  0.00  0.00    -0.540 OA
ATOM     19  H   LIG    1       -1.214  -4.947   0.821  0.00  0.00    +0.370 HD
ENDBRANCH  17  18
ENDBRANCH  13  17
BRANCH  13  20
ATOM     20  C   LIG    1       -0.128  -4.003  -2.657  0.00  0.00    +0.170 C 
BRANCH  20  21
ATOM     21  O   LIG    1       -1.355  -4.716  -2.485  0.00  0.00    -0.550 OA
ATOM     22  H   LIG    1       -1.527  -5.373  -3.173  0.00  0.00    +0.380 HD
ENDBRANCH  20  21
ENDBRANCH  13  20
ENDBRANCH   5   9
BRANCH   1  23
ATOM     23  C   LIG    1        0.900   5.005   0.583  0.00  0.00    +0.280 C 
BRANCH  23  25
ATOM     24  N   LIG    1        2.264   6.556   1.945  0.00  0.00    -0.580 N 
ATOM     25  C   LIG    1        1.817   5.300   1.741  0.00  0.00    +0.510 C 
ATOM     26  O   LIG    1        2.155   4.408   2.490  0.00  0.00    -0.530 OA
BRANCH  24  28
ATOM     27  C   LIG    1        1.851   7.290  -0.351  0.00  0.00    +0.040 C 
ATOM     28  C   LIG    1        1.746   7.658   1.130  0.00  0.00    +0.230 C 
ATOM     29  C   LIG    1        0.281   7.913   1.490  0.00  0.00    +0.030 C 
ENDBRANCH  24  28
BRANCH  24  30
ATOM     30  C   LIG    1        3.266   6.818   2.981  0.00  0.00    +0.240 C 
ATOM     31  C   LIG    1        2.654   7.701   4.070  0.00  0.00    +0.040 C 
ATOM     32  C   LIG    1        4.467   7.533   2.359  0.00  0.00    +0.030 C 
ENDBRANCH  24  30
ENDBRANCH  23  25
ENDBRANCH   1  23
TORSDOF 9
