REMARK  Name = ZINCtj00001UqOsp.0
REMARK                            x       y       z     vdW  Elec       q    Type
REMARK                         _______ _______ _______ _____ _____    ______ ____
ROOT
ATOM      1  N   LIG    1       -4.529   1.905  -0.625  0.00  0.00    -0.370 N 
ATOM      2  C   LIG    1       -4.963   2.386  -1.942  0.00  0.00    +0.260 C 
ATOM      3  C   LIG    1       -4.223   3.681  -2.285  0.00  0.00    +0.070 C 
ATOM      4  C   LIG    1       -2.716   3.410  -2.309  0.00  0.00    +0.060 C 
ATOM      5  C   LIG    1       -2.288   2.838  -0.954  0.00  0.00    -0.100 C 
ATOM      6  C   LIG    1       -2.542   3.875   0.142  0.00  0.00    +0.070 C 
ATOM      7  C   LIG    1       -3.099   1.575  -0.661  0.00  0.00    +0.300 C 
ATOM      8  H   LIG    1       -4.690   2.623   0.065  0.00  0.00    +0.420 HD
ENDROOT
BRANCH   5   9
ATOM      9  C   LIG    1       -0.820   2.497  -0.994  0.00  0.00    +0.530 C 
ATOM     10  N   LIG    1        0.099   3.479  -1.079  0.00  0.00    -0.600 N 
ATOM     11  C   LIG    1        1.532   3.174  -0.980  0.00  0.00    +0.290 C 
ATOM     12  C   LIG    1        2.243   3.763  -2.207  0.00  0.00    +0.050 C 
ATOM     13  C   LIG    1        1.925   5.257  -2.306  0.00  0.00    -0.060 C 
ATOM     14  C   LIG    1        0.417   5.447  -2.485  0.00  0.00    +0.040 C 
ATOM     15  C   LIG    1       -0.315   4.876  -1.266  0.00  0.00    +0.270 C 
ATOM     16  O   LIG    1       -0.467   1.337  -0.953  0.00  0.00    -0.530 OA
BRANCH  13  17
ATOM     17  C   LIG    1        2.378   5.960  -1.025  0.00  0.00    +0.170 C 
BRANCH  17  18
ATOM     18  O   LIG    1        3.786   5.782  -0.857  0.00  0.00    -0.540 OA
ATOM     19  H   LIG    1        4.144   6.203  -0.064  0.00  0.00    +0.370 HD
ENDBRANCH  17  18
ENDBRANCH  13  17
BRANCH  13  20
ATOM     20  C   LIG    1        2.661   5.857  -3.505  0.00  0.00    +0.170 C 
BRANCH  20  21
ATOM     21  O   LIG    1        4.069   5.679  -3.338  0.00  0.00    -0.550 OA
ATOM     22  H   LIG    1        4.599   6.036  -4.063  0.00  0.00    +0.380 HD
ENDBRANCH  20  21
ENDBRANCH  13  20
ENDBRANCH   5   9
BRANCH   1  23
ATOM     23  C   LIG    1       -5.298   0.705  -0.266  0.00  0.00    +0.270 C 
BRANCH  23  25
ATOM     24  N   LIG    1       -7.647   0.127   0.249  0.00  0.00    -0.580 N 
ATOM     25  C   LIG    1       -6.751   1.069  -0.108  0.00  0.00    +0.510 C 
ATOM     26  O   LIG    1       -7.116   2.209  -0.303  0.00  0.00    -0.530 OA
BRANCH  24  28
ATOM     27  C   LIG    1       -6.273  -1.761  -0.477  0.00  0.00    +0.040 C 
ATOM     28  C   LIG    1       -7.190  -1.215   0.619  0.00  0.00    +0.220 C 
ATOM     29  C   LIG    1       -6.422  -1.147   1.940  0.00  0.00    +0.030 C 
ENDBRANCH  24  28
BRANCH  24  30
ATOM     30  C   LIG    1       -9.077   0.446   0.268  0.00  0.00    +0.240 C 
ATOM     31  C   LIG    1       -9.601   0.353   1.703  0.00  0.00    +0.030 C 
ATOM     32  C   LIG    1       -9.832  -0.548  -0.616  0.00  0.00    +0.030 C 
ENDBRANCH  24  30
ENDBRANCH  23  25
ENDBRANCH   1  23
TORSDOF 9
