REMARK  Name = ZINCpe000000VLY9.0
REMARK                            x       y       z     vdW  Elec       q    Type
REMARK                         _______ _______ _______ _____ _____    ______ ____
ROOT
ATOM      1  N   LIG    1       -2.753  -0.930   3.888  0.00  0.00    -0.600 N 
ATOM      2  C   LIG    1       -2.042  -0.619   2.787  0.00  0.00    +0.580 C 
ATOM      3  O   LIG    1       -2.601  -0.149   1.815  0.00  0.00    -0.500 OA
ATOM      4  C   LIG    1       -2.067  -1.395   5.097  0.00  0.00    +0.290 C 
ENDROOT
BRANCH   2   5
ATOM      5  C   LIG    1       -0.586  -0.850   2.760  0.00  0.00    -0.110 A 
ATOM      6  C   LIG    1        0.227  -0.330   3.770  0.00  0.00    +0.150 A 
ATOM      7  C   LIG    1        1.587  -0.549   3.740  0.00  0.00    -0.050 A 
ATOM      8  C   LIG    1        2.155  -1.284   2.712  0.00  0.00    +0.140 A 
ATOM      9  C   LIG    1        1.365  -1.810   1.709  0.00  0.00    +0.000 A 
ATOM     10  C   LIG    1       -0.007  -1.594   1.720  0.00  0.00    +0.200 A 
BRANCH   7  11
ATOM     11  N   LIG    1        2.446   0.003   4.811  0.00  0.00    +0.030 N 
ATOM     12  O   LIG    1        3.648  -0.189   4.787  0.00  0.00    -0.150 OA
ATOM     13  O   LIG    1        1.950   0.650   5.716  0.00  0.00    -0.150 OA
ENDBRANCH   7  11
BRANCH  10  14
ATOM     14  N   LIG    1       -0.804  -2.117   0.709  0.00  0.00    -0.510 N 
ATOM     15  C   LIG    1       -0.466  -1.520  -0.590  0.00  0.00    +0.230 C 
ATOM     16  C   LIG    1       -0.697  -3.581   0.659  0.00  0.00    +0.230 C 
ENDBRANCH  10  14
ENDBRANCH   2   5
BRANCH   1  17
ATOM     17  C   LIG    1       -4.213  -0.803   3.878  0.00  0.00    +0.330 C 
BRANCH  17  20
ATOM     18  N   LIG    1       -6.166  -2.220   3.335  0.00  0.00    -0.730 N 
ATOM     19  H   LIG    1       -6.735  -1.469   3.565  0.00  0.00    +0.400 HD
ATOM     20  C   LIG    1       -4.826  -2.102   3.422  0.00  0.00    +0.500 C 
ATOM     21  O   LIG    1       -4.115  -3.041   3.135  0.00  0.00    -0.520 OA
BRANCH  18  22
ATOM     22  C   LIG    1       -6.763  -3.483   2.892  0.00  0.00    +0.260 C 
BRANCH  22  23
ATOM     23  C   LIG    1       -8.287  -3.351   2.881  0.00  0.00    +0.030 C 
BRANCH  23  24
ATOM     24  C   LIG    1       -8.910  -4.669   2.419  0.00  0.00    +0.160 C 
BRANCH  24  26
ATOM     25  C   LIG    1      -11.017  -5.729   1.989  0.00  0.00    +0.200 C 
ATOM     26  O   LIG    1      -10.334  -4.546   2.408  0.00  0.00    -0.390 OA
ENDBRANCH  24  26
ENDBRANCH  23  24
ENDBRANCH  22  23
ENDBRANCH  18  22
ENDBRANCH  17  20
ENDBRANCH   1  17
TORSDOF 9
