REMARK  Name = ZINCqH0000008w9h.0
REMARK                            x       y       z     vdW  Elec       q    Type
REMARK                         _______ _______ _______ _____ _____    ______ ____
ROOT
ATOM      1  C   LIG    1        3.134   4.834  -0.559  0.00  0.00    +0.100 C 
ATOM      2  C   LIG    1        2.330   5.181   0.695  0.00  0.00    +0.020 C 
ENDROOT
BRANCH   2   3
ATOM      3  C   LIG    1        1.069   5.904   0.299  0.00  0.00    +0.540 C 
ATOM      4  N   LIG    1       -0.034   5.203  -0.031  0.00  0.00    -0.540 N 
ATOM      5  C   LIG    1        0.017   3.739  -0.140  0.00  0.00    +0.270 C 
ATOM      6  C   LIG    1       -0.733   3.338  -1.418  0.00  0.00    +0.030 C 
ATOM      7  C   LIG    1       -2.199   3.747  -1.280  0.00  0.00    +0.080 C 
ATOM      8  C   LIG    1       -2.307   5.194  -0.876  0.00  0.00    -0.110 A 
ATOM      9  C   LIG    1       -3.495   5.867  -1.105  0.00  0.00    +0.030 A 
ATOM     10  C   LIG    1       -3.624   7.194  -0.746  0.00  0.00    -0.020 A 
ATOM     11  C   LIG    1       -2.571   7.858  -0.145  0.00  0.00    +0.030 A 
ATOM     12  C   LIG    1       -1.383   7.193   0.090  0.00  0.00    +0.010 A 
ATOM     13  C   LIG    1       -1.249   5.859  -0.275  0.00  0.00    +0.150 A 
ATOM     14  O   LIG    1        1.045   7.117   0.277  0.00  0.00    -0.500 OA
ENDBRANCH   2   3
BRANCH   2  15
ATOM     15  S   LIG    1        3.322   6.246   1.772  0.00  0.00    +0.090 S 
BRANCH  15  16
ATOM     16  C   LIG    1        4.619   5.130   2.194  0.00  0.00    +0.150 A 
ATOM     17  N   LIG    1        4.741   3.886   1.792  0.00  0.00    -0.290 NA
ATOM     18  N   LIG    1        5.807   3.369   2.288  0.00  0.00    -0.280 NA
ATOM     19  C   LIG    1        6.422   4.239   3.039  0.00  0.00    +0.400 A 
ATOM     20  N   LIG    1        5.688   5.395   3.006  0.00  0.00    -0.420 N 
BRANCH  20  21
ATOM     21  C   LIG    1        5.971   6.598   3.669  0.00  0.00    +0.100 A 
ATOM     22  C   LIG    1        5.962   7.796   2.969  0.00  0.00    +0.030 A 
ATOM     23  C   LIG    1        6.237   8.980   3.625  0.00  0.00    +0.040 A 
ATOM     24  C   LIG    1        6.532   8.971   4.976  0.00  0.00    +0.030 A 
ATOM     25  C   LIG    1        6.546   7.778   5.675  0.00  0.00    +0.040 A 
ATOM     26  C   LIG    1        6.267   6.592   5.025  0.00  0.00    +0.020 A 
ENDBRANCH  20  21
ENDBRANCH  15  16
ENDBRANCH   2  15
TORSDOF 4
