REMARK  Name = ZINCkj000005htoU.0
REMARK                            x       y       z     vdW  Elec       q    Type
REMARK                         _______ _______ _______ _____ _____    ______ ____
ROOT
ATOM      1  N   LIG    1       -3.394  -5.065   0.007  0.00  0.00    -0.390 N 
ATOM      2  C   LIG    1       -4.101  -4.837   1.286  0.00  0.00    +0.260 C 
ATOM      3  C   LIG    1       -4.772  -6.194   1.614  0.00  0.00    +0.080 C 
ATOM      4  C   LIG    1       -3.698  -7.201   1.124  0.00  0.00    +0.050 C 
ATOM      5  C   LIG    1       -3.114  -6.506  -0.124  0.00  0.00    +0.270 C 
ATOM      6  H   LIG    1       -3.976  -4.761  -0.759  0.00  0.00    +0.430 HD
ENDROOT
BRANCH   4   7
ATOM      7  C   LIG    1       -4.328  -8.519   0.753  0.00  0.00    -0.100 A 
ATOM      8  C   LIG    1       -5.380  -8.555  -0.143  0.00  0.00    +0.000 A 
ATOM      9  C   LIG    1       -5.955  -9.764  -0.486  0.00  0.00    +0.020 A 
ATOM     10  C   LIG    1       -5.484 -10.937   0.075  0.00  0.00    +0.030 A 
ATOM     11  C   LIG    1       -4.437 -10.901   0.976  0.00  0.00    +0.020 A 
ATOM     12  C   LIG    1       -3.859  -9.692   1.315  0.00  0.00    +0.030 A 
ENDBRANCH   4   7
BRANCH   1  13
ATOM     13  C   LIG    1       -2.132  -4.313  -0.001  0.00  0.00    +0.290 C 
BRANCH  13  14
ATOM     14  C   LIG    1       -2.432  -2.813   0.010  0.00  0.00    +0.070 C 
BRANCH  14  21
ATOM     15  C   LIG    1        1.242   2.093   0.001  0.00  0.00    +0.330 C 
ATOM     16  N   LIG    1       -0.016   1.344   0.009  0.00  0.00    -0.740 N 
ATOM     17  H   LIG    1       -0.863   1.817   0.016  0.00  0.00    +0.400 HD
ATOM     18  C   LIG    1        0.002  -0.004   0.002  0.00  0.00    +0.690 C 
ATOM     19  N   LIG    1       -1.156  -0.694   0.009  0.00  0.00    -0.690 N 
ATOM     20  H   LIG    1       -2.002  -0.220   0.020  0.00  0.00    +0.410 HD
ATOM     21  C   LIG    1       -1.137  -2.041   0.002  0.00  0.00    +0.530 C 
ATOM     22  O   LIG    1       -0.080  -2.633  -0.011  0.00  0.00    -0.460 OA
ATOM     23  O   LIG    1        1.063  -0.597  -0.011  0.00  0.00    -0.520 OA
ENDBRANCH  14  21
ENDBRANCH  13  14
ENDBRANCH   1  13
TORSDOF 4
