REMARK  Name = ZINCkj000005htoU.1
REMARK                            x       y       z     vdW  Elec       q    Type
REMARK                         _______ _______ _______ _____ _____    ______ ____
ROOT
ATOM      1  N   LIG    1       -1.960   2.365  -0.676  0.00  0.00    -0.390 N 
ATOM      2  C   LIG    1       -0.799   1.616  -1.205  0.00  0.00    +0.260 C 
ATOM      3  C   LIG    1       -0.013   1.086   0.008  0.00  0.00    +0.080 C 
ATOM      4  C   LIG    1       -0.778   1.605   1.246  0.00  0.00    +0.050 C 
ATOM      5  C   LIG    1       -1.565   2.817   0.682  0.00  0.00    +0.280 C 
ATOM      6  H   LIG    1       -2.767   1.762  -0.623  0.00  0.00    +0.430 HD
ENDROOT
BRANCH   4   7
ATOM      7  C   LIG    1        0.182   2.045   2.322  0.00  0.00    -0.100 A 
ATOM      8  C   LIG    1        1.114   3.030   2.055  0.00  0.00    +0.000 A 
ATOM      9  C   LIG    1        1.992   3.436   3.043  0.00  0.00    +0.020 A 
ATOM     10  C   LIG    1        1.944   2.850   4.294  0.00  0.00    +0.030 A 
ATOM     11  C   LIG    1        1.015   1.861   4.559  0.00  0.00    +0.020 A 
ATOM     12  C   LIG    1        0.134   1.458   3.573  0.00  0.00    +0.030 A 
ENDBRANCH   4   7
BRANCH   1  13
ATOM     13  C   LIG    1       -2.248   3.523  -1.532  0.00  0.00    +0.290 C 
BRANCH  13  14
ATOM     14  C   LIG    1       -2.719   3.039  -2.905  0.00  0.00    +0.070 C 
BRANCH  14  21
ATOM     15  C   LIG    1       -4.432   6.075  -7.947  0.00  0.00    +0.330 C 
ATOM     16  N   LIG    1       -4.144   4.919  -7.093  0.00  0.00    -0.740 N 
ATOM     17  H   LIG    1       -4.265   4.021  -7.437  0.00  0.00    +0.400 HD
ATOM     18  C   LIG    1       -3.712   5.105  -5.831  0.00  0.00    +0.690 C 
ATOM     19  N   LIG    1       -3.447   4.042  -5.046  0.00  0.00    -0.690 N 
ATOM     20  H   LIG    1       -3.568   3.143  -5.389  0.00  0.00    +0.410 HD
ATOM     21  C   LIG    1       -3.015   4.228  -3.783  0.00  0.00    +0.530 C 
ATOM     22  O   LIG    1       -2.864   5.351  -3.353  0.00  0.00    -0.460 OA
ATOM     23  O   LIG    1       -3.560   6.231  -5.400  0.00  0.00    -0.520 OA
ENDBRANCH  14  21
ENDBRANCH  13  14
ENDBRANCH   1  13
TORSDOF 4
