REMARK  Name = ZINCrD000000CxtR.0
REMARK                            x       y       z     vdW  Elec       q    Type
REMARK                         _______ _______ _______ _____ _____    ______ ____
ROOT
ATOM      1  O   LIG    1       -0.849   1.611  -0.836  0.00  0.00    -0.530 OA
ATOM      2  C   LIG    1       -0.016   1.344   0.009  0.00  0.00    +0.600 C 
ATOM      3  N   LIG    1       -0.248   0.355   0.895  0.00  0.00    -0.610 N 
ATOM      4  C   LIG    1        0.791  -0.055   1.850  0.00  0.00    +0.260 C 
ATOM      5  C   LIG    1        0.203   0.002   3.268  0.00  0.00    +0.030 C 
ATOM      6  C   LIG    1       -1.069  -0.849   3.320  0.00  0.00    +0.000 C 
ATOM      7  C   LIG    1       -2.104  -0.282   2.346  0.00  0.00    +0.040 C 
ATOM      8  C   LIG    1       -1.544  -0.338   0.922  0.00  0.00    +0.290 C 
ENDROOT
BRANCH   7   9
ATOM      9  C   LIG    1       -3.367  -1.100   2.422  0.00  0.00    -0.080 A 
ATOM     10  C   LIG    1       -3.336  -2.450   2.124  0.00  0.00    +0.010 A 
ATOM     11  C   LIG    1       -4.494  -3.201   2.198  0.00  0.00    +0.000 A 
ATOM     12  C   LIG    1       -5.685  -2.601   2.561  0.00  0.00    +0.000 A 
ATOM     13  C   LIG    1       -5.718  -1.251   2.854  0.00  0.00    +0.000 A 
ATOM     14  C   LIG    1       -4.559  -0.500   2.785  0.00  0.00    +0.010 A 
ENDBRANCH   7   9
BRANCH   2  15
ATOM     15  C   LIG    1        1.249   2.097   0.061  0.00  0.00    -0.280 A 
ATOM     16  C   LIG    1        2.524   1.578  -0.034  0.00  0.00    +0.290 A 
ATOM     17  N   LIG    1        3.391   2.598   0.056  0.00  0.00    -0.460 N 
ATOM     18  H   LIG    1        4.356   2.515   0.016  0.00  0.00    +0.450 HD
ATOM     19  N   LIG    1        2.692   3.797   0.220  0.00  0.00    -0.280 NA
ATOM     20  C   LIG    1        1.402   3.545   0.229  0.00  0.00    +0.170 A 
BRANCH  20  21
ATOM     21  C   LIG    1        0.310   4.536   0.381  0.00  0.00    -0.030 A 
ATOM     22  C   LIG    1       -0.891   4.364  -0.305  0.00  0.00    +0.070 A 
ATOM     23  C   LIG    1       -1.906   5.287  -0.156  0.00  0.00    +0.010 A 
ATOM     24  C   LIG    1       -1.729   6.388   0.663  0.00  0.00    +0.010 A 
ATOM     25  C   LIG    1       -0.537   6.567   1.341  0.00  0.00    +0.000 A 
ATOM     26  C   LIG    1        0.483   5.647   1.204  0.00  0.00    +0.040 A 
ENDBRANCH  20  21
ENDBRANCH   2  15
BRANCH   6  27
ATOM     27  C   LIG    1       -1.638  -0.826   4.740  0.00  0.00    +0.170 C 
BRANCH  27  28
ATOM     28  O   LIG    1       -0.720  -1.461   5.632  0.00  0.00    -0.570 OA
ATOM     29  H   LIG    1       -1.016  -1.483   6.552  0.00  0.00    +0.380 HD
ENDBRANCH  27  28
ENDBRANCH   6  27
TORSDOF 5
