REMARK  Name = ZINCpk00000xI85C.0
REMARK                            x       y       z     vdW  Elec       q    Type
REMARK                         _______ _______ _______ _____ _____    ______ ____
ROOT
ATOM      1  C   LIG    1        0.551   3.758  -1.443  0.00  0.00    +0.340 C 
ENDROOT
BRANCH   1  11
ATOM      2  N   LIG    1       -0.721   1.571  -1.179  0.00  0.00    -0.480 N 
ATOM      3  C   LIG    1       -1.743   0.923  -1.844  0.00  0.00    +0.080 A 
ATOM      4  C   LIG    1       -2.401  -0.286  -1.659  0.00  0.00    +0.010 A 
ATOM      5  C   LIG    1       -3.408  -0.658  -2.524  0.00  0.00    +0.070 A 
ATOM      6  C   LIG    1       -3.771   0.166  -3.579  0.00  0.00    -0.030 A 
ATOM      7  C   LIG    1       -3.134   1.373  -3.775  0.00  0.00    +0.160 A 
ATOM      8  F   LIG    1       -3.491   2.169  -4.806  0.00  0.00    -0.130 F 
ATOM      9  C   LIG    1       -2.106   1.764  -2.909  0.00  0.00    +0.010 A 
ATOM     10  N   LIG    1       -1.300   2.855  -2.845  0.00  0.00    -0.470 NA
ATOM     11  C   LIG    1       -0.491   2.742  -1.833  0.00  0.00    +0.250 A 
BRANCH   2  13
ATOM     12  C   LIG    1       -0.729   1.579   1.267  0.00  0.00    +0.040 C 
ATOM     13  C   LIG    1       -0.013   1.086   0.008  0.00  0.00    +0.290 C 
ENDBRANCH   2  13
ENDBRANCH   1  11
BRANCH   1  14
ATOM     14  N   LIG    1        1.814   3.453  -2.128  0.00  0.00    -0.490 NA
ATOM     15  C   LIG    1        1.707   3.717  -3.580  0.00  0.00    +0.180 C 
ATOM     16  C   LIG    1        2.576   2.666  -4.295  0.00  0.00    +0.030 C 
ATOM     17  C   LIG    1        3.149   1.779  -3.166  0.00  0.00    +0.120 C 
ATOM     18  C   LIG    1        2.153   2.012  -2.003  0.00  0.00    +0.210 C 
BRANCH  17  19
ATOM     19  O   LIG    1        4.463   2.209  -2.804  0.00  0.00    -0.530 OA
ATOM     20  H   LIG    1        5.107   2.154  -3.524  0.00  0.00    +0.380 HD
ENDBRANCH  17  19
BRANCH  17  21
ATOM     21  C   LIG    1        3.159   0.308  -3.585  0.00  0.00    +0.320 C 
BRANCH  21  22
ATOM     22  N   LIG    1        4.017   0.140  -4.761  0.00  0.00    -0.300 N 
ATOM     23  C   LIG    1        5.060  -0.715  -4.865  0.00  0.00    +0.140 A 
ATOM     24  C   LIG    1        5.565  -0.542  -6.109  0.00  0.00    +0.140 A 
ATOM     25  N   LIG    1        4.816   0.397  -6.697  0.00  0.00    -0.270 NA
ATOM     26  N   LIG    1        3.903   0.777  -5.874  0.00  0.00    -0.080 NA
ENDBRANCH  21  22
ENDBRANCH  17  21
ENDBRANCH   1  14
TORSDOF 6
