REMARK  Name = ZINCrH000004rIr4.0
REMARK                            x       y       z     vdW  Elec       q    Type
REMARK                         _______ _______ _______ _____ _____    ______ ____
ROOT
ATOM      1  N   LIG    1       -0.454   1.228   2.438  0.00  0.00    -0.720 N 
ATOM      2  H   LIG    1        0.290   0.623   2.577  0.00  0.00    +0.400 HD
ATOM      3  C   LIG    1       -0.792   1.605   1.189  0.00  0.00    +0.500 C 
ATOM      4  O   LIG    1       -1.723   2.363   1.015  0.00  0.00    -0.510 OA
ENDROOT
BRANCH   3   5
ATOM      5  C   LIG    1       -0.013   1.086   0.008  0.00  0.00    +0.180 C 
ATOM      6  C   LIG    1        1.424   1.659  -0.003  0.00  0.00    +0.100 C 
ATOM      7  C   LIG    1        1.288   2.875  -0.899  0.00  0.00    +0.100 C 
ATOM      8  N   LIG    1        0.174   2.778  -1.545  0.00  0.00    -0.240 NA
ATOM      9  O   LIG    1       -0.544   1.602  -1.229  0.00  0.00    -0.160 OA
BRANCH   7  10
ATOM     10  C   LIG    1        2.260   3.979  -1.014  0.00  0.00    -0.030 A 
ATOM     11  C   LIG    1        3.432   3.962  -0.255  0.00  0.00    +0.090 A 
ATOM     12  C   LIG    1        4.338   4.996  -0.367  0.00  0.00    +0.040 A 
ATOM     13  C   LIG    1        4.088   6.050  -1.230  0.00  0.00    -0.010 A 
ATOM     14  C   LIG    1        2.927   6.074  -1.985  0.00  0.00    +0.050 A 
ATOM     15 CL   LIG    1        5.233   7.348  -1.365  0.00  0.00    -0.050 Cl
ATOM     16  C   LIG    1        2.015   5.043  -1.887  0.00  0.00    +0.000 A 
ATOM     17 CL   LIG    1        0.565   5.070  -2.840  0.00  0.00    -0.010 Cl
ENDBRANCH   7  10
ENDBRANCH   3   5
BRANCH   1  18
ATOM     18  C   LIG    1       -1.212   1.734   3.585  0.00  0.00    +0.390 C 
BRANCH  18  24
ATOM     19  C   LIG    1        2.337   0.131   9.867  0.00  0.00    +0.120 C 
ATOM     20  C   LIG    1        1.419   0.012   8.677  0.00  0.00    -0.100 A 
ATOM     21  C   LIG    1        1.358   1.013   7.774  0.00  0.00    +0.210 A 
ATOM     22  N   LIG    1        0.532   0.922   6.691  0.00  0.00    -0.360 N 
ATOM     23  C   LIG    1        0.283   1.766   5.643  0.00  0.00    +0.120 A 
ATOM     24  C   LIG    1       -0.636   1.165   4.857  0.00  0.00    +0.040 A 
ATOM     25  N   LIG    1       -0.946  -0.019   5.391  0.00  0.00    -0.480 NA
ATOM     26  C   LIG    1       -0.249  -0.189   6.505  0.00  0.00    +0.220 A 
ATOM     27  C   LIG    1       -0.196  -1.243   7.440  0.00  0.00    +0.080 A 
ATOM     28  C   LIG    1        0.631  -1.139   8.514  0.00  0.00    +0.050 A 
ENDBRANCH  18  24
ENDBRANCH   1  18
TORSDOF 4
