REMARK  Name = ZINCpe000000T285.0
REMARK                            x       y       z     vdW  Elec       q    Type
REMARK                         _______ _______ _______ _____ _____    ______ ____
ROOT
ATOM      1  C   LIG    1       -1.816   1.908   0.540  0.00  0.00    +0.260 C 
ENDROOT
BRANCH   1   2
ATOM      2  N   LIG    1       -0.449   1.514   0.193  0.00  0.00    -0.730 N 
ATOM      3  H   LIG    1       -0.240   0.581   0.027  0.00  0.00    +0.410 HD
ATOM      4  C   LIG    1        0.519   2.447   0.099  0.00  0.00    +0.710 C 
ATOM      5  N   LIG    1        1.776   2.085  -0.226  0.00  0.00    -0.740 N 
ATOM      6  H   LIG    1        1.984   1.152  -0.392  0.00  0.00    +0.400 HD
ATOM      7  O   LIG    1        0.258   3.616   0.307  0.00  0.00    -0.580 OA
BRANCH   5   8
ATOM      8  C   LIG    1        2.827   3.100  -0.328  0.00  0.00    +0.340 C 
BRANCH   8   9
ATOM      9  C   LIG    1        4.129   2.438  -0.701  0.00  0.00    -0.110 A 
ATOM     10  C   LIG    1        4.985   1.991   0.287  0.00  0.00    +0.020 A 
ATOM     11  C   LIG    1        6.177   1.380  -0.055  0.00  0.00    +0.000 A 
ATOM     12  C   LIG    1        6.517   1.225  -1.386  0.00  0.00    +0.010 A 
ATOM     13  C   LIG    1        5.663   1.677  -2.374  0.00  0.00    +0.000 A 
ATOM     14  C   LIG    1        4.470   2.284  -2.032  0.00  0.00    +0.020 A 
ENDBRANCH   8   9
ENDBRANCH   5   8
ENDBRANCH   1   2
BRANCH   1  15
ATOM     15  C   LIG    1       -2.786   0.890  -0.002  0.00  0.00    +0.520 C 
ATOM     16  N   LIG    1       -4.090   1.202  -0.129  0.00  0.00    -0.720 N 
ATOM     17  H   LIG    1       -4.418   2.056   0.195  0.00  0.00    +0.410 HD
ATOM     18  O   LIG    1       -2.392  -0.211  -0.323  0.00  0.00    -0.520 OA
BRANCH  16  19
ATOM     19  C   LIG    1       -5.013   0.254  -0.757  0.00  0.00    +0.270 C 
ATOM     20  C   LIG    1       -6.216   1.013  -1.344  0.00  0.00    +0.080 C 
ATOM     21  C   LIG    1       -7.289  -0.052  -1.686  0.00  0.00    -0.300 C 
ATOM     22  S   LIG    1       -7.229  -1.162  -0.228  0.00  0.00    +2.390 S 
ATOM     23  O   LIG    1       -7.269  -2.514  -0.663  0.00  0.00    -0.930 OA
ATOM     24  O   LIG    1       -8.150  -0.703   0.751  0.00  0.00    -0.930 OA
ATOM     25  C   LIG    1       -5.527  -0.746   0.298  0.00  0.00    -0.320 C 
ENDBRANCH  16  19
ENDBRANCH   1  15
BRANCH   1  27
ATOM     26  C   LIG    1       -1.533   0.651   2.680  0.00  0.00    +0.020 C 
ATOM     27  C   LIG    1       -1.954   1.985   2.062  0.00  0.00    -0.020 C 
ATOM     28  C   LIG    1       -1.058   3.102   2.599  0.00  0.00    +0.040 C 
ENDBRANCH   1  27
TORSDOF 6
