REMARK  Name = ZINCtV000002PQPM.0
REMARK                            x       y       z     vdW  Elec       q    Type
REMARK                         _______ _______ _______ _____ _____    ______ ____
ROOT
ATOM      1  C   LIG    1        1.045   6.298  -0.059  0.00  0.00    +0.080 A 
ATOM      2  C   LIG    1        2.041   5.707   0.753  0.00  0.00    -0.060 A 
ATOM      3  C   LIG    1        2.946   6.460   1.508  0.00  0.00    +0.050 A 
ATOM      4  C   LIG    1        3.881   5.819   2.268  0.00  0.00    +0.050 A 
ATOM      5  C   LIG    1        3.946   4.429   2.303  0.00  0.00    +0.050 A 
ATOM      6  C   LIG    1        3.076   3.666   1.580  0.00  0.00    +0.050 A 
ATOM      7  C   LIG    1        2.107   4.291   0.790  0.00  0.00    -0.050 A 
ATOM      8  C   LIG    1        1.171   3.567   0.011  0.00  0.00    +0.150 A 
ATOM      9  N   LIG    1        0.289   4.235  -0.713  0.00  0.00    -0.240 NA
ATOM     10  N   LIG    1        0.227   5.514  -0.742  0.00  0.00    -0.270 NA
ENDROOT
BRANCH   8  11
ATOM     11  C   LIG    1        1.184   2.087   0.002  0.00  0.00    -0.050 A 
ATOM     12  C   LIG    1        1.322   1.380   1.197  0.00  0.00    +0.030 A 
ATOM     13  C   LIG    1        1.334   0.001   1.182  0.00  0.00    +0.010 A 
ATOM     14  C   LIG    1        1.209  -0.682  -0.014  0.00  0.00    +0.030 A 
ATOM     15  C   LIG    1        1.071   0.012  -1.203  0.00  0.00    +0.010 A 
ATOM     16  C   LIG    1        1.058   1.392  -1.201  0.00  0.00    +0.050 A 
ENDBRANCH   8  11
BRANCH   1  17
ATOM     17  S   LIG    1        0.896   8.051  -0.159  0.00  0.00    -0.000 S 
BRANCH  17  18
ATOM     18  C   LIG    1       -0.498   8.183  -1.305  0.00  0.00    +0.200 C 
BRANCH  18  21
ATOM     19  C   LIG    1       -0.599  11.571  -2.636  0.00  0.00    +0.120 A 
ATOM     20  N   LIG    1       -0.254  10.321  -2.517  0.00  0.00    -0.450 NA
ATOM     21  C   LIG    1       -0.814   9.637  -1.546  0.00  0.00    +0.080 A 
ATOM     22  C   LIG    1       -1.687  10.309  -0.788  0.00  0.00    -0.040 A 
ATOM     23  S   LIG    1       -1.774  11.965  -1.385  0.00  0.00    +0.110 S 
BRANCH  19  27
ATOM     24  C   LIG    1        0.875  14.264  -5.572  0.00  0.00    +0.030 A 
ATOM     25  C   LIG    1       -0.051  14.700  -4.640  0.00  0.00    +0.010 A 
ATOM     26  C   LIG    1       -0.533  13.830  -3.684  0.00  0.00    +0.030 A 
ATOM     27  C   LIG    1       -0.086  12.508  -3.658  0.00  0.00    -0.030 A 
ATOM     28  C   LIG    1        0.852  12.077  -4.597  0.00  0.00    +0.070 A 
ATOM     29  C   LIG    1        1.323  12.956  -5.551  0.00  0.00    +0.010 A 
ENDBRANCH  19  27
ENDBRANCH  18  21
ENDBRANCH  17  18
ENDBRANCH   1  17
TORSDOF 5
