REMARK  Name = ZINCrD000000Bm0E.0
REMARK                            x       y       z     vdW  Elec       q    Type
REMARK                         _______ _______ _______ _____ _____    ______ ____
ROOT
ATOM      1  C   LIG    1       -5.421   4.961  -3.748  0.00  0.00    -0.130 A 
ATOM      2  C   LIG    1       -5.615   3.746  -3.084  0.00  0.00    +0.070 A 
ATOM      3  C   LIG    1       -4.607   3.212  -2.313  0.00  0.00    +0.030 A 
ATOM      4  C   LIG    1       -3.394   3.879  -2.193  0.00  0.00    +0.120 A 
ATOM      5  C   LIG    1       -3.195   5.095  -2.855  0.00  0.00    +0.080 A 
ATOM      6  N   LIG    1       -1.902   5.514  -2.546  0.00  0.00    -0.640 N 
ATOM      7  H   LIG    1       -1.476   6.327  -2.861  0.00  0.00    +0.440 HD
ATOM      8  C   LIG    1       -1.346   4.598  -1.730  0.00  0.00    +0.680 A 
ATOM      9  O   LIG    1       -0.222   4.661  -1.269  0.00  0.00    -0.540 OA
ATOM     10  N   LIG    1       -2.221   3.600  -1.505  0.00  0.00    -0.530 N 
ATOM     11  C   LIG    1       -4.204   5.635  -3.630  0.00  0.00    +0.110 A 
ENDROOT
BRANCH  10  12
ATOM     12  C   LIG    1       -1.978   2.421  -0.670  0.00  0.00    +0.260 C 
ATOM     13  C   LIG    1       -0.784   1.609  -1.216  0.00  0.00    +0.010 C 
ATOM     14  C   LIG    1       -0.013   1.086   0.008  0.00  0.00    +0.020 C 
ATOM     15  C   LIG    1       -0.763   1.597   1.255  0.00  0.00    +0.020 C 
ATOM     16  C   LIG    1       -1.531   2.845   0.750  0.00  0.00    +0.020 C 
ENDBRANCH  10  12
BRANCH   1  18
ATOM     17  O   LIG    1       -6.335   6.588  -5.152  0.00  0.00    -0.530 OA
ATOM     18  C   LIG    1       -6.504   5.532  -4.575  0.00  0.00    +0.570 C 
ATOM     19  N   LIG    1       -7.679   4.881  -4.689  0.00  0.00    -0.730 N 
ATOM     20  H   LIG    1       -7.813   4.038  -4.228  0.00  0.00    +0.410 HD
BRANCH  19  21
ATOM     21  C   LIG    1       -8.753   5.447  -5.509  0.00  0.00    +0.410 C 
BRANCH  21  22
ATOM     22  C   LIG    1       -9.950   4.532  -5.470  0.00  0.00    -0.050 A 
ATOM     23  C   LIG    1      -10.970   4.570  -4.580  0.00  0.00    +0.020 A 
ATOM     24  C   LIG    1      -11.817   3.512  -4.986  0.00  0.00    -0.070 A 
ATOM     25  N   LIG    1      -11.249   2.964  -6.021  0.00  0.00    -0.310 NA
ATOM     26  O   LIG    1      -10.211   3.516  -6.305  0.00  0.00    +0.130 OA
BRANCH  24  27
ATOM     27  C   LIG    1      -13.116   3.099  -4.345  0.00  0.00    +0.500 C 
ATOM     28  F   LIG    1      -13.076   3.395  -2.978  0.00  0.00    -0.190 F 
ATOM     29  F   LIG    1      -13.305   1.723  -4.518  0.00  0.00    -0.190 F 
ENDBRANCH  24  27
ENDBRANCH  21  22
ENDBRANCH  19  21
ENDBRANCH   1  18
TORSDOF 5
