REMARK  Name = ZINCpk00000y6wPu.1
REMARK                            x       y       z     vdW  Elec       q    Type
REMARK                         _______ _______ _______ _____ _____    ______ ____
ROOT
ATOM      1  C   LIG    1       -0.062   1.117  -2.413  0.00  0.00    +0.170 C 
ATOM      2  C   LIG    1       -0.495   2.000  -3.586  0.00  0.00    +0.040 C 
ATOM      3  C   LIG    1       -1.946   2.426  -3.427  0.00  0.00    +0.040 C 
ATOM      4  C   LIG    1       -2.939   1.284  -3.531  0.00  0.00    +0.000 C 
ATOM      5  C   LIG    1       -2.790   0.323  -2.350  0.00  0.00    +0.290 C 
ATOM      6  N   LIG    1       -1.751  -0.667  -2.677  0.00  0.00    -0.590 N 
ATOM      7  C   LIG    1       -0.466  -0.312  -2.707  0.00  0.00    +0.520 C 
ATOM      8  O   LIG    1        0.383  -1.137  -2.973  0.00  0.00    -0.530 OA
ENDROOT
BRANCH   1   9
ATOM      9  N   LIG    1       -0.723   1.572  -1.182  0.00  0.00    -0.660 NA
ATOM     10  H   LIG    1       -0.835   0.812  -0.529  0.00  0.00    +0.340 HD
BRANCH   9  11
ATOM     11  C   LIG    1        0.012   2.688  -0.571  0.00  0.00    +0.260 C 
BRANCH  11  16
ATOM     12  C   LIG    1       -2.338   4.402   1.683  0.00  0.00    +0.320 A 
ATOM     13  C   LIG    1       -1.987   3.935   2.942  0.00  0.00    -0.050 A 
ATOM     14  C   LIG    1       -0.946   3.029   3.059  0.00  0.00    +0.100 A 
ATOM     15  C   LIG    1       -0.294   2.618   1.905  0.00  0.00    -0.080 A 
ATOM     16  C   LIG    1       -0.694   3.127   0.685  0.00  0.00    +0.170 A 
ATOM     17  N   LIG    1       -1.689   3.989   0.606  0.00  0.00    -0.520 NA
BRANCH  12  19
ATOM     18  C   LIG    1       -3.669   5.731   0.232  0.00  0.00    +0.260 C 
ATOM     19  O   LIG    1       -3.356   5.289   1.555  0.00  0.00    -0.310 OA
ENDBRANCH  12  19
ENDBRANCH  11  16
ENDBRANCH   9  11
ENDBRANCH   1   9
BRANCH   6  20
ATOM     20  C   LIG    1       -2.131  -2.051  -2.970  0.00  0.00    +0.450 C 
BRANCH  20  21
ATOM     21  C   LIG    1       -2.138  -2.852  -1.694  0.00  0.00    +0.160 A 
ATOM     22  N   LIG    1       -3.155  -3.020  -0.883  0.00  0.00    -0.470 NA
ATOM     23  C   LIG    1       -2.699  -3.800   0.113  0.00  0.00    +0.170 A 
ATOM     24  N   LIG    1       -1.451  -4.061  -0.138  0.00  0.00    -0.380 NA
ATOM     25  C   LIG    1       -3.490  -4.282   1.301  0.00  0.00    +0.210 C 
ATOM     26  O   LIG    1       -1.111  -3.531  -1.174  0.00  0.00    +0.090 OA
ENDBRANCH  20  21
ENDBRANCH   6  20
TORSDOF 6
