REMARK  Name = ZINCrD0000075Qex.0
REMARK                            x       y       z     vdW  Elec       q    Type
REMARK                         _______ _______ _______ _____ _____    ______ ____
ROOT
ATOM      1  C   LIG    1       -4.880   0.812   0.029  0.00  0.00    +0.320 C 
ENDROOT
BRANCH   1   2
ATOM      2  C   LIG    1       -6.098   1.700   0.040  0.00  0.00    -0.120 A 
ATOM      3  C   LIG    1       -5.952   3.073   0.047  0.00  0.00    +0.180 A 
ATOM      4  C   LIG    1       -7.069   3.888   0.057  0.00  0.00    -0.070 A 
ATOM      5  C   LIG    1       -8.334   3.330   0.062  0.00  0.00    +0.150 A 
ATOM      6  C   LIG    1       -8.486   1.956   0.056  0.00  0.00    -0.200 A 
ATOM      7  C   LIG    1       -9.870   1.358   0.065  0.00  0.00    +0.320 C 
ATOM      8  O   LIG    1       -9.793  -0.019  -0.316  0.00  0.00    -0.380 OA
ATOM      9  C   LIG    1       -8.781  -0.742   0.395  0.00  0.00    +0.440 C 
ATOM     10  O   LIG    1       -7.502  -0.216   0.029  0.00  0.00    -0.320 OA
ATOM     11  C   LIG    1       -7.368   1.137   0.037  0.00  0.00    +0.200 A 
BRANCH   4  12
ATOM     12  N   LIG    1       -6.910   5.359   0.063  0.00  0.00    +0.030 N 
ATOM     13  O   LIG    1       -7.894   6.078   0.072  0.00  0.00    -0.160 OA
ATOM     14  O   LIG    1       -5.796   5.852   0.059  0.00  0.00    -0.150 OA
ENDBRANCH   4  12
ENDBRANCH   1   2
BRANCH   1  15
ATOM     15  O   LIG    1       -3.683   1.633   0.028  0.00  0.00    -0.330 OA
BRANCH  15  17
ATOM     16  O   LIG    1       -2.470  -0.224   0.012  0.00  0.00    -0.490 OA
ATOM     17  C   LIG    1       -2.500   0.990   0.019  0.00  0.00    +0.530 C 
BRANCH  17  18
ATOM     18  C   LIG    1       -1.236   1.763   0.018  0.00  0.00    +0.120 A 
ATOM     19  N   LIG    1       -1.287   3.081   0.031  0.00  0.00    -0.410 NA
ATOM     20  C   LIG    1       -0.176   3.816   0.024  0.00  0.00    +0.120 A 
ATOM     21  C   LIG    1       -0.237   5.223   0.032  0.00  0.00    +0.060 A 
ATOM     22  C   LIG    1        0.913   5.949   0.025  0.00  0.00    +0.040 A 
ATOM     23  C   LIG    1        2.159   5.323   0.010  0.00  0.00    +0.030 A 
ATOM     24  C   LIG    1        2.260   3.965   0.001  0.00  0.00    +0.030 A 
ATOM     25  C   LIG    1        1.095   3.182   0.009  0.00  0.00    -0.080 A 
ATOM     26  C   LIG    1        1.159   1.776   0.001  0.00  0.00    +0.090 A 
ATOM     27  C   LIG    1       -0.013   1.076   0.008  0.00  0.00    +0.030 A 
ENDBRANCH  17  18
ENDBRANCH  15  17
ENDBRANCH   1  15
TORSDOF 5
