REMARK  Name = ZINCvU0000000GiB.0
REMARK                            x       y       z     vdW  Elec       q    Type
REMARK                         _______ _______ _______ _____ _____    ______ ____
ROOT
ATOM      1  C   LIG    1        0.128  -4.080   7.207  0.00  0.00    +0.020 C 
ATOM      2  C   LIG    1        1.445  -4.848   7.077  0.00  0.00    +0.080 C 
ENDROOT
BRANCH   1   3
ATOM      3  C   LIG    1        0.010  -3.518   8.601  0.00  0.00    +0.490 C 
ATOM      4  O   LIG    1        0.275  -2.357   8.808  0.00  0.00    -0.470 OA
BRANCH   3   5
ATOM      5  O   LIG    1       -0.389  -4.306   9.611  0.00  0.00    -0.350 OA
BRANCH   5   6
ATOM      6  C   LIG    1       -0.479  -3.697  10.926  0.00  0.00    +0.350 C 
BRANCH   6   7
ATOM      7  C   LIG    1       -0.939  -4.726  11.926  0.00  0.00    +0.060 A 
ATOM      8  C   LIG    1       -1.208  -5.988  11.573  0.00  0.00    -0.040 A 
ATOM      9  S   LIG    1       -1.707  -6.869  13.016  0.00  0.00    +0.100 S 
ATOM     10  C   LIG    1       -1.507  -5.404  13.974  0.00  0.00    +0.120 A 
ATOM     11  N   LIG    1       -1.106  -4.439  13.196  0.00  0.00    -0.460 NA
BRANCH  10  12
ATOM     12  C   LIG    1       -1.753  -5.288  15.427  0.00  0.00    -0.030 A 
ATOM     13  C   LIG    1       -1.552  -4.070  16.077  0.00  0.00    +0.070 A 
ATOM     14  C   LIG    1       -1.789  -3.967  17.433  0.00  0.00    +0.010 A 
ATOM     15  C   LIG    1       -2.215  -5.072  18.149  0.00  0.00    +0.030 A 
ATOM     16  C   LIG    1       -2.411  -6.284  17.511  0.00  0.00    +0.010 A 
ATOM     17  C   LIG    1       -2.182  -6.398  16.156  0.00  0.00    +0.030 A 
ENDBRANCH  10  12
ENDBRANCH   6   7
ENDBRANCH   5   6
ENDBRANCH   3   5
ENDBRANCH   1   3
BRANCH   1  18
ATOM     18  S   LIG    1        0.098  -2.724   6.003  0.00  0.00    -0.050 S 
BRANCH  18  19
ATOM     19  C   LIG    1        0.094  -3.592   4.411  0.00  0.00    +0.150 C 
BRANCH  19  27
ATOM     20  C   LIG    1       -0.033  -0.115  -2.498  0.00  0.00    +0.160 C 
ATOM     21  C   LIG    1       -0.004  -0.710  -1.114  0.00  0.00    -0.200 A 
ATOM     22  C   LIG    1        0.002  -0.004   0.002  0.00  0.00    -0.030 A 
ATOM     23  C   LIG    1        0.024  -0.792   1.218  0.00  0.00    -0.220 A 
ATOM     24  C   LIG    1        0.041  -2.153   0.961  0.00  0.00    +0.050 A 
ATOM     25  N   LIG    1        0.062  -3.030   2.024  0.00  0.00    -0.580 N 
ATOM     26  H   LIG    1        0.074  -3.985   1.854  0.00  0.00    +0.420 HD
ATOM     27  C   LIG    1        0.069  -2.585   3.289  0.00  0.00    +0.460 A 
ATOM     28  N   LIG    1        0.054  -1.316   3.588  0.00  0.00    -0.560 NA
ATOM     29  C   LIG    1        0.032  -0.371   2.634  0.00  0.00    +0.550 A 
ATOM     30  O   LIG    1        0.019   0.812   2.931  0.00  0.00    -0.470 OA
ATOM     31  C   LIG    1       -0.018   1.503   0.010  0.00  0.00    +0.130 C 
ATOM     32  S   LIG    1        0.028  -2.430  -0.774  0.00  0.00    +0.170 S 
ENDBRANCH  19  27
ENDBRANCH  18  19
ENDBRANCH   1  18
TORSDOF 8
