REMARK  Name = ZINCvU00000004TD.0
REMARK                            x       y       z     vdW  Elec       q    Type
REMARK                         _______ _______ _______ _____ _____    ______ ____
ROOT
ATOM      1  C   LIG    1        3.398  -1.125  -0.038  0.00  0.00    +0.530 C 
ATOM      2  O   LIG    1        3.190  -2.320   0.017  0.00  0.00    -0.520 OA
ENDROOT
BRANCH   1   3
ATOM      3  C   LIG    1        2.267  -0.178  -0.025  0.00  0.00    -0.170 A 
ATOM      4  C   LIG    1        2.502   1.196   0.040  0.00  0.00    +0.130 A 
ATOM      5  C   LIG    1        1.441   2.077   0.052  0.00  0.00    -0.010 A 
ATOM      6  C   LIG    1        0.140   1.605  -0.001  0.00  0.00    +0.100 A 
ATOM      7  C   LIG    1       -0.110   0.248  -0.066  0.00  0.00    +0.000 A 
ATOM      8  C   LIG    1        0.947  -0.654  -0.079  0.00  0.00    +0.230 A 
BRANCH   8   9
ATOM      9  N   LIG    1        0.699  -2.019  -0.144  0.00  0.00    -0.470 N 
ATOM     10  H   LIG    1        1.437  -2.642  -0.234  0.00  0.00    +0.410 HD
BRANCH   9  11
ATOM     11  N   LIG    1       -0.513  -2.458  -0.085  0.00  0.00    -0.140 NA
ATOM     12  C   LIG    1       -0.745  -3.767  -0.043  0.00  0.00    +0.020 C 
ATOM     13  C   LIG    1        0.337  -4.676   0.049  0.00  0.00    +0.040 C 
ATOM     14  C   LIG    1        0.097  -6.008   0.098  0.00  0.00    -0.050 C 
ATOM     15  C   LIG    1       -1.227  -6.491   0.046  0.00  0.00    +0.390 C 
ATOM     16  C   LIG    1       -2.306  -5.588  -0.051  0.00  0.00    -0.070 C 
ATOM     17  O   LIG    1       -1.440  -7.695   0.085  0.00  0.00    -0.470 OA
ATOM     18  C   LIG    1       -2.073  -4.254  -0.095  0.00  0.00    +0.140 C 
ENDBRANCH   9  11
ENDBRANCH   8   9
ENDBRANCH   1   3
BRANCH   1  19
ATOM     19  O   LIG    1        4.662  -0.663  -0.111  0.00  0.00    -0.310 OA
BRANCH  19  21
ATOM     20  C   LIG    1        6.036  -2.055  -1.562  0.00  0.00    +0.080 C 
ATOM     21  C   LIG    1        5.725  -1.652  -0.119  0.00  0.00    +0.190 C 
BRANCH  21  22
ATOM     22  C   LIG    1        6.960  -1.067   0.516  0.00  0.00    +0.510 C 
ATOM     23  N   LIG    1        8.081  -1.809   0.619  0.00  0.00    -0.650 N 
ATOM     24  H   LIG    1        8.092  -2.719   0.284  0.00  0.00    +0.420 HD
ATOM     25  O   LIG    1        6.946   0.071   0.934  0.00  0.00    -0.440 OA
BRANCH  23  26
ATOM     26  C   LIG    1        9.224  -1.267   1.207  0.00  0.00    +0.380 A 
ATOM     27  N   LIG    1        9.203  -0.023   1.656  0.00  0.00    -0.450 NA
ATOM     28  C   LIG    1       10.260   0.526   2.224  0.00  0.00    +0.340 A 
ATOM     29  C   LIG    1       11.440  -0.181   2.360  0.00  0.00    -0.110 A 
ATOM     30  C   LIG    1       11.505  -1.489   1.895  0.00  0.00    +0.130 A 
ATOM     31 CL   LIG    1       12.824   0.556   3.103  0.00  0.00    -0.040 Cl
ATOM     32  C   LIG    1       10.377  -2.039   1.310  0.00  0.00    -0.120 A 
ATOM     33 CL   LIG    1       10.402  -3.668   0.711  0.00  0.00    -0.040 Cl
ENDBRANCH  23  26
ENDBRANCH  21  22
ENDBRANCH  19  21
ENDBRANCH   1  19
TORSDOF 7
