REMARK  Name = ZINCqH0000067a9a.0
REMARK                            x       y       z     vdW  Elec       q    Type
REMARK                         _______ _______ _______ _____ _____    ______ ____
ROOT
ATOM      1  C   LIG    1       -3.375   3.481   0.052  0.00  0.00    +0.520 C 
ATOM      2  N   LIG    1       -2.111   3.948   0.042  0.00  0.00    -0.630 N 
ATOM      3  H   LIG    1       -1.947   4.904   0.046  0.00  0.00    +0.420 HD
ATOM      4  O   LIG    1       -3.581   2.286   0.047  0.00  0.00    -0.430 OA
ENDROOT
BRANCH   2   5
ATOM      5  C   LIG    1       -1.041   3.058   0.028  0.00  0.00    +0.310 A 
ATOM      6  N   LIG    1       -1.140   1.765   0.017  0.00  0.00    -0.450 NA
ATOM      7  C   LIG    1       -0.013   1.076   0.008  0.00  0.00    +0.270 A 
ATOM      8  C   LIG    1        1.112   1.806   0.001  0.00  0.00    -0.250 A 
ATOM      9  S   LIG    1        0.662   3.510   0.014  0.00  0.00    +0.080 S 
BRANCH   8  10
ATOM     10  S   LIG    1        2.755   1.171  -0.017  0.00  0.00    -0.020 S 
BRANCH  10  11
ATOM     11  C   LIG    1        3.772   2.673  -0.019  0.00  0.00    +0.120 C 
BRANCH  11  12
ATOM     12  C   LIG    1        5.231   2.292  -0.034  0.00  0.00    -0.080 A 
ATOM     13  C   LIG    1        5.912   2.118   1.156  0.00  0.00    +0.030 A 
ATOM     14  C   LIG    1        7.248   1.764   1.142  0.00  0.00    +0.010 A 
ATOM     15  C   LIG    1        7.905   1.594  -0.062  0.00  0.00    +0.020 A 
ATOM     16  C   LIG    1        7.226   1.774  -1.252  0.00  0.00    +0.010 A 
ATOM     17  C   LIG    1        5.888   2.123  -1.238  0.00  0.00    +0.030 A 
ENDBRANCH  11  12
ENDBRANCH  10  11
ENDBRANCH   8  10
ENDBRANCH   2   5
BRANCH   1  20
ATOM     18  C   LIG    1       -5.945   3.853   0.076  0.00  0.00    +0.080 C 
ATOM     19  C   LIG    1       -5.403   4.525  -1.188  0.00  0.00    +0.120 C 
ATOM     20  C   LIG    1       -4.534   4.445   0.068  0.00  0.00    -0.030 C 
BRANCH  18  25
ATOM     21  N   LIG    1       -6.667   1.590   1.015  0.00  0.00    -0.470 N 
ATOM     22  C   LIG    1       -6.545   0.307   0.596  0.00  0.00    +0.360 A 
ATOM     23  N   LIG    1       -5.900   0.329  -0.538  0.00  0.00    -0.290 NA
ATOM     24  N   LIG    1       -5.617   1.543  -0.852  0.00  0.00    -0.250 NA
ATOM     25  C   LIG    1       -6.070   2.351   0.067  0.00  0.00    +0.200 A 
BRANCH  21  27
ATOM     26  C   LIG    1       -8.764   2.447   1.937  0.00  0.00    +0.040 C 
ATOM     27  C   LIG    1       -7.316   2.058   2.242  0.00  0.00    +0.290 C 
ENDBRANCH  21  27
ENDBRANCH  18  25
ENDBRANCH   1  20
TORSDOF 7
