REMARK  Name = ZINCqH0000036odY.0
REMARK                            x       y       z     vdW  Elec       q    Type
REMARK                         _______ _______ _______ _____ _____    ______ ____
ROOT
ATOM      1  N   LIG    1        4.755   0.133   0.458  0.00  0.00    -0.530 NA
ATOM      2  C   LIG    1        4.814   1.414  -0.258  0.00  0.00    +0.180 C 
ATOM      3  C   LIG    1        5.612   2.424   0.574  0.00  0.00    +0.270 C 
ATOM      4  N   LIG    1        6.919   1.832   0.899  0.00  0.00    -0.610 N 
ATOM      5  C   LIG    1        6.945   0.488   1.494  0.00  0.00    +0.300 C 
ATOM      6  C   LIG    1        8.062   2.504   0.657  0.00  0.00    +0.540 C 
ATOM      7  O   LIG    1        9.133   1.967   0.845  0.00  0.00    -0.520 OA
ATOM      8  C   LIG    1        6.095  -0.446   0.626  0.00  0.00    +0.170 C 
ENDROOT
BRANCH   6   9
ATOM      9  C   LIG    1        8.009   3.924   0.154  0.00  0.00    -0.140 C 
ATOM     10  C   LIG    1        7.418   3.970  -1.277  0.00  0.00    +0.050 C 
ATOM     11  C   LIG    1        8.631   3.587  -2.160  0.00  0.00    +0.030 C 
ATOM     12  C   LIG    1        9.830   4.279  -1.478  0.00  0.00    +0.020 C 
ATOM     13  C   LIG    1        9.434   4.493  -0.006  0.00  0.00    +0.060 C 
BRANCH   9  14
ATOM     14  C   LIG    1        7.188   4.797   1.105  0.00  0.00    +0.390 C 
ATOM     15  F   LIG    1        7.054   6.080   0.561  0.00  0.00    -0.190 F 
ATOM     16  F   LIG    1        7.837   4.880   2.341  0.00  0.00    -0.190 F 
ENDBRANCH   9  14
ENDBRANCH   6   9
BRANCH   1  17
ATOM     17  C   LIG    1        3.857  -0.810  -0.223  0.00  0.00    +0.190 C 
ATOM     18  C   LIG    1        2.521  -0.122  -0.511  0.00  0.00    +0.050 C 
BRANCH  17  24
ATOM     19  C   LIG    1        3.314  -3.237   0.095  0.00  0.00    +0.130 A 
ATOM     20  C   LIG    1        3.100  -4.339   0.911  0.00  0.00    -0.080 A 
ATOM     21  C   LIG    1        3.196  -4.210   2.283  0.00  0.00    +0.040 A 
ATOM     22  C   LIG    1        3.505  -2.985   2.844  0.00  0.00    -0.040 A 
ATOM     23  C   LIG    1        3.719  -1.885   2.033  0.00  0.00    +0.080 A 
ATOM     24  C   LIG    1        3.624  -2.009   0.660  0.00  0.00    -0.110 A 
BRANCH  19  26
ATOM     25  C   LIG    1        2.897  -4.656  -1.766  0.00  0.00    +0.250 C 
ATOM     26  O   LIG    1        3.220  -3.361  -1.255  0.00  0.00    -0.320 OA
ENDBRANCH  19  26
ENDBRANCH  17  24
ENDBRANCH   1  17
TORSDOF 5
