REMARK  Name = ZINCpe000000XpBR.0
REMARK                            x       y       z     vdW  Elec       q    Type
REMARK                         _______ _______ _______ _____ _____    ______ ____
ROOT
ATOM      1  C   LIG    1       -0.583  -2.203  -0.898  0.00  0.00    -0.020 C 
ATOM      2  C   LIG    1        0.891  -2.570  -1.097  0.00  0.00    +0.050 C 
ATOM      3  C   LIG    1        1.027  -4.092  -1.168  0.00  0.00    +0.160 C 
ATOM      4  N   LIG    1        0.221  -4.606  -2.283  0.00  0.00    -0.530 NA
ATOM      5  C   LIG    1       -1.204  -4.306  -2.090  0.00  0.00    +0.190 C 
ATOM      6  C   LIG    1       -1.407  -2.790  -2.046  0.00  0.00    +0.070 C 
ENDROOT
BRANCH   1  14
ATOM      7  C   LIG    1        1.123  -0.670   3.590  0.00  0.00    +0.060 C 
ATOM      8  C   LIG    1        0.951  -0.100   2.180  0.00  0.00    +0.130 C 
ATOM      9  C   LIG    1       -0.293  -0.713   1.528  0.00  0.00    +0.250 C 
ATOM     10  N   LIG    1       -0.542  -0.015   0.256  0.00  0.00    -0.620 N 
ATOM     11  C   LIG    1       -0.578   1.456   0.270  0.00  0.00    +0.260 C 
ATOM     12  C   LIG    1        0.680   1.963   0.984  0.00  0.00    +0.140 C 
ATOM     13  C   LIG    1        0.578   3.477   1.186  0.00  0.00    +0.080 C 
ATOM     14  C   LIG    1       -0.731  -0.703  -0.887  0.00  0.00    +0.520 C 
ATOM     15  O   LIG    1       -1.021  -0.115  -1.907  0.00  0.00    -0.530 OA
ATOM     16  O   LIG    1        0.792   1.319   2.255  0.00  0.00    -0.370 OA
ENDBRANCH   1  14
BRANCH   4  17
ATOM     17  C   LIG    1        0.435  -6.047  -2.468  0.00  0.00    +0.330 C 
BRANCH  17  18
ATOM     18  C   LIG    1        1.912  -6.345  -2.417  0.00  0.00    +0.190 A 
ATOM     19  N   LIG    1        2.742  -6.363  -3.431  0.00  0.00    -0.280 NA
ATOM     20  N   LIG    1        3.913  -6.656  -2.982  0.00  0.00    -0.070 NA
ATOM     21  N   LIG    1        3.850  -6.834  -1.708  0.00  0.00    -0.090 NA
ATOM     22  N   LIG    1        2.632  -6.652  -1.323  0.00  0.00    -0.280 N 
BRANCH  22  23
ATOM     23  C   LIG    1        2.129  -6.758   0.049  0.00  0.00    +0.200 C 
ATOM     24  C   LIG    1        3.159  -6.916   1.169  0.00  0.00    +0.090 C 
ATOM     25  C   LIG    1        2.287  -8.105   0.757  0.00  0.00    +0.070 C 
ENDBRANCH  22  23
ENDBRANCH  17  18
ENDBRANCH   4  17
TORSDOF 4
