REMARK  Name = ZINCpk00000KfL4G.0
REMARK                            x       y       z     vdW  Elec       q    Type
REMARK                         _______ _______ _______ _____ _____    ______ ____
ROOT
ATOM      1  C   LIG    1        6.619   0.009  -2.422  0.00  0.00    +0.210 C 
ENDROOT
BRANCH   1   2
ATOM      2  N   LIG    1        7.622  -0.946  -2.912  0.00  0.00    -0.520 NA
ATOM      3  C   LIG    1        8.477  -1.420  -1.815  0.00  0.00    +0.190 C 
ATOM      4  C   LIG    1        9.454  -2.470  -2.350  0.00  0.00    +0.190 C 
ATOM      5  N   LIG    1       10.262  -1.879  -3.427  0.00  0.00    -0.540 NA
ATOM      6  C   LIG    1        9.407  -1.405  -4.524  0.00  0.00    +0.190 C 
ATOM      7  C   LIG    1        8.430  -0.355  -3.988  0.00  0.00    +0.180 C 
BRANCH   5   8
ATOM      8  C   LIG    1       11.265  -2.834  -3.917  0.00  0.00    +0.300 C 
BRANCH   8   9
ATOM      9  C   LIG    1       11.957  -3.481  -2.744  0.00  0.00    +0.210 A 
ATOM     10  N   LIG    1       11.577  -4.577  -2.147  0.00  0.00    -0.480 NA
ATOM     11  C   LIG    1       12.429  -4.855  -1.149  0.00  0.00    +0.140 A 
ATOM     12  C   LIG    1       13.372  -3.894  -1.126  0.00  0.00    +0.110 A 
ATOM     13  N   LIG    1       13.077  -3.025  -2.142  0.00  0.00    -0.450 N 
ATOM     14  C   LIG    1       13.832  -1.823  -2.505  0.00  0.00    +0.320 C 
ENDBRANCH   8   9
ENDBRANCH   5   8
ENDBRANCH   1   2
BRANCH   1  17
ATOM     15  N   LIG    1        4.646  -0.018  -0.930  0.00  0.00    -0.730 N 
ATOM     16  H   LIG    1        4.536   0.929  -1.110  0.00  0.00    +0.400 HD
ATOM     17  C   LIG    1        5.658  -0.700  -1.502  0.00  0.00    +0.510 C 
ATOM     18  O   LIG    1        5.795  -1.884  -1.278  0.00  0.00    -0.520 OA
BRANCH  15  20
ATOM     19  C   LIG    1        4.292  -0.744   1.378  0.00  0.00    +0.040 C 
ATOM     20  C   LIG    1        3.711  -0.707  -0.037  0.00  0.00    +0.290 C 
BRANCH  20  21
ATOM     21  C   LIG    1        2.396   0.029  -0.021  0.00  0.00    -0.090 A 
ATOM     22  C   LIG    1        1.208  -0.679  -0.013  0.00  0.00    +0.020 A 
ATOM     23  C   LIG    1        0.002  -0.004   0.002  0.00  0.00    +0.020 A 
ATOM     24  C   LIG    1       -0.017   1.378   0.010  0.00  0.00    +0.000 A 
ATOM     25  C   LIG    1        1.171   2.086   0.002  0.00  0.00    +0.000 A 
ATOM     26  C   LIG    1        2.377   1.411  -0.015  0.00  0.00    +0.000 A 
ENDBRANCH  20  21
ENDBRANCH  15  20
ENDBRANCH   1  17
TORSDOF 6
