REMARK  Name = ZINCqH0000034U1k.0
REMARK                            x       y       z     vdW  Elec       q    Type
REMARK                         _______ _______ _______ _____ _____    ______ ____
ROOT
ATOM      1  N   LIG    1       -0.146   0.943   2.459  0.00  0.00    -0.750 N 
ATOM      2  H   LIG    1        0.714   0.502   2.369  0.00  0.00    +0.400 HD
ATOM      3  C   LIG    1       -0.691   1.113   3.680  0.00  0.00    +0.700 C 
ATOM      4  N   LIG    1       -0.041   0.671   4.776  0.00  0.00    -0.750 N 
ATOM      5  H   LIG    1        0.819   0.231   4.685  0.00  0.00    +0.400 HD
ATOM      6  O   LIG    1       -1.768   1.665   3.794  0.00  0.00    -0.590 OA
ENDROOT
BRANCH   1   7
ATOM      7  C   LIG    1       -0.852   1.423   1.269  0.00  0.00    +0.280 C 
BRANCH   7   8
ATOM      8  C   LIG    1       -0.023   1.107   0.022  0.00  0.00    +0.070 C 
BRANCH   8  12
ATOM      9  C   LIG    1       -2.083   2.507  -3.451  0.00  0.00    +0.160 A 
ATOM     10  C   LIG    1       -1.193   3.341  -2.786  0.00  0.00    +0.020 A 
ATOM     11  C   LIG    1       -0.529   2.885  -1.664  0.00  0.00    +0.040 A 
ATOM     12  C   LIG    1       -0.749   1.600  -1.202  0.00  0.00    -0.100 A 
ATOM     13  C   LIG    1       -1.630   0.766  -1.865  0.00  0.00    +0.040 A 
ATOM     14  C   LIG    1       -2.301   1.217  -2.985  0.00  0.00    -0.010 A 
BRANCH   9  16
ATOM     15  C   LIG    1       -2.155   3.834  -5.424  0.00  0.00    +0.650 C 
ATOM     16  N   LIG    1       -2.757   2.965  -4.588  0.00  0.00    -0.650 N 
ATOM     17  H   LIG    1       -3.658   2.658  -4.774  0.00  0.00    +0.420 HD
ATOM     18  O   LIG    1       -0.994   4.145  -5.245  0.00  0.00    -0.550 OA
BRANCH  15  20
ATOM     19  C   LIG    1       -2.127   5.287  -7.318  0.00  0.00    +0.310 C 
ATOM     20  O   LIG    1       -2.840   4.358  -6.458  0.00  0.00    -0.370 OA
ENDBRANCH  15  20
ENDBRANCH   9  16
ENDBRANCH   8  12
ENDBRANCH   7   8
ENDBRANCH   1   7
BRANCH   4  21
ATOM     21  C   LIG    1       -0.633   0.856   6.103  0.00  0.00    +0.280 C 
BRANCH  21  22
ATOM     22  C   LIG    1        0.302   0.268   7.166  0.00  0.00    -0.020 C 
ATOM     23  C   LIG    1       -0.372   0.365   8.534  0.00  0.00    +0.040 C 
ATOM     24  C   LIG    1        0.526  -0.214   9.619  0.00  0.00    -0.020 C 
ATOM     25  C   LIG    1        1.923   0.376   9.608  0.00  0.00    +0.010 C 
ATOM     26  C   LIG    1        2.558   0.521   8.238  0.00  0.00    -0.030 C 
ATOM     27  C   LIG    1        3.170  -0.796   7.761  0.00  0.00    +0.010 C 
ATOM     28  C   LIG    1        0.559  -1.739   9.534  0.00  0.00    +0.010 C 
ATOM     29  C   LIG    1        1.598   1.076   7.194  0.00  0.00    +0.010 C 
ENDBRANCH  21  22
ENDBRANCH   4  21
TORSDOF 7
