REMARK  Name = ZINCrD000000D8hb.1
REMARK                            x       y       z     vdW  Elec       q    Type
REMARK                         _______ _______ _______ _____ _____    ______ ____
ROOT
ATOM      1  C   LIG    1        5.018   5.910  -0.116  0.00  0.00    +0.130 A 
ATOM      2  C   LIG    1        4.906   5.108  -1.243  0.00  0.00    +0.060 A 
ATOM      3  C   LIG    1        3.657   4.742  -1.708  0.00  0.00    +0.010 A 
ATOM      4  C   LIG    1        2.519   5.172  -1.051  0.00  0.00    -0.040 A 
ATOM      5  C   LIG    1        2.625   5.976   0.069  0.00  0.00    +0.020 A 
ATOM      6  C   LIG    1        3.871   6.343   0.543  0.00  0.00    +0.110 A 
ATOM      7  F   LIG    1        3.975   7.123   1.640  0.00  0.00    -0.120 F 
ENDROOT
BRANCH   1  14
ATOM      8  O   LIG    1        6.345   5.598   2.717  0.00  0.00    -0.940 OA
ATOM      9  S   LIG    1        7.155   5.513   1.553  0.00  0.00    +2.560 S 
ATOM     10  C   LIG    1        8.589   6.652   1.655  0.00  0.00    -0.320 C 
ATOM     11  C   LIG    1        7.980   7.941   1.031  0.00  0.00    +0.090 C 
ATOM     12  C   LIG    1        7.085   7.421  -0.113  0.00  0.00    +0.260 C 
ATOM     13  O   LIG    1        7.527   4.261   0.993  0.00  0.00    -0.950 OA
ATOM     14  N   LIG    1        6.280   6.283   0.356  0.00  0.00    -0.950 N 
ENDBRANCH   1  14
BRANCH   4  15
ATOM     15  C   LIG    1        1.159   4.770  -1.562  0.00  0.00    +0.220 C 
BRANCH  15  16
ATOM     16  N   LIG    1        0.751   3.510  -0.927  0.00  0.00    -0.660 NA
ATOM     17  H   LIG    1        1.439   2.788  -1.082  0.00  0.00    +0.350 HD
BRANCH  16  18
ATOM     18  C   LIG    1       -0.573   3.086  -1.402  0.00  0.00    +0.190 C 
ATOM     19  C   LIG    1       -0.710   1.571  -1.254  0.00  0.00    +0.020 C 
ATOM     20  C   LIG    1       -0.013   1.086   0.008  0.00  0.00    +0.000 C 
ATOM     21  C   LIG    1       -0.683   1.555   1.282  0.00  0.00    +0.220 C 
ATOM     22  O   LIG    1       -0.593   2.978   1.413  0.00  0.00    -0.310 OA
ATOM     23  C   LIG    1       -1.584   3.686   0.807  0.00  0.00    +0.130 A 
ATOM     24  C   LIG    1       -2.552   4.317   1.577  0.00  0.00    -0.010 A 
ATOM     25  C   LIG    1       -3.584   4.997   0.957  0.00  0.00    +0.030 A 
ATOM     26  C   LIG    1       -3.652   5.051  -0.422  0.00  0.00    -0.010 A 
ATOM     27  C   LIG    1       -2.682   4.429  -1.190  0.00  0.00    +0.020 A 
ATOM     28  C   LIG    1       -1.650   3.755  -0.570  0.00  0.00    -0.110 A 
ENDBRANCH  16  18
ENDBRANCH  15  16
ENDBRANCH   4  15
TORSDOF 4
