REMARK  Name = ZINCkj000005lkGq.0
REMARK                            x       y       z     vdW  Elec       q    Type
REMARK                         _______ _______ _______ _____ _____    ______ ____
ROOT
ATOM      1  C   LIG    1        1.735   0.926   4.107  0.00  0.00    -0.010 C 
ATOM      2  C   LIG    1        1.770   2.033   5.163  0.00  0.00    +0.060 C 
ATOM      3  C   LIG    1        2.477   1.520   6.420  0.00  0.00    +0.030 C 
ATOM      4  C   LIG    1        1.696   0.332   6.990  0.00  0.00    +0.260 C 
ATOM      5  N   LIG    1        1.532  -0.677   5.935  0.00  0.00    -0.610 N 
ATOM      6  C   LIG    1        1.913  -1.954   6.141  0.00  0.00    +0.600 C 
ATOM      7  O   LIG    1        1.712  -2.795   5.284  0.00  0.00    -0.520 OA
ATOM      8  C   LIG    1        0.946  -0.269   4.652  0.00  0.00    +0.310 C 
ENDROOT
BRANCH   6   9
ATOM      9  C   LIG    1        2.568  -2.329   7.396  0.00  0.00    -0.270 A 
ATOM     10  C   LIG    1        3.685  -3.110   7.505  0.00  0.00    +0.110 A 
ATOM     11  C   LIG    1        4.088  -3.304   8.804  0.00  0.00    +0.030 A 
ATOM     12  C   LIG    1        3.329  -2.704   9.730  0.00  0.00    -0.170 A 
ATOM     13 CL   LIG    1        3.614  -2.786  11.441  0.00  0.00    +0.000 Cl
ATOM     14  S   LIG    1        2.048  -1.842   9.004  0.00  0.00    +0.270 S 
ENDBRANCH   6   9
BRANCH   1  17
ATOM     15  N   LIG    1        0.921   0.635   1.789  0.00  0.00    -0.740 N 
ATOM     16  H   LIG    1        1.246  -0.279   1.823  0.00  0.00    +0.410 HD
ATOM     17  C   LIG    1        1.068   1.442   2.858  0.00  0.00    +0.530 C 
ATOM     18  O   LIG    1        0.663   2.585   2.815  0.00  0.00    -0.510 OA
BRANCH  15  19
ATOM     19  C   LIG    1        0.273   1.137   0.575  0.00  0.00    +0.270 C 
BRANCH  19  20
ATOM     20  C   LIG    1        0.235   0.028  -0.478  0.00  0.00    +0.260 C 
BRANCH  20  21
ATOM     21  N   LIG    1       -0.416   0.532  -1.696  0.00  0.00    -0.630 N 
ATOM     22  H   LIG    1       -1.357   0.822  -1.478  0.00  0.00    +0.440 HD
ATOM     23  H   LIG    1       -0.441  -0.199  -2.390  0.00  0.00    +0.440 HD
ATOM     24  H   LIG    1        0.104   1.319  -2.054  0.00  0.00    +0.440 HD
ENDBRANCH  20  21
ENDBRANCH  19  20
ENDBRANCH  15  19
ENDBRANCH   1  17
TORSDOF 5
