REMARK  Name = ZINCqH0000034FBp.0
REMARK                            x       y       z     vdW  Elec       q    Type
REMARK                         _______ _______ _______ _____ _____    ______ ____
ROOT
ATOM      1  C   LIG    1       -2.453   1.411   0.021  0.00  0.00    +0.280 C 
ATOM      2  N   LIG    1       -1.195   2.161   0.019  0.00  0.00    -0.610 N 
ATOM      3  C   LIG    1       -0.018   1.503   0.010  0.00  0.00    +0.520 C 
ATOM      4  O   LIG    1        1.024   2.123   0.004  0.00  0.00    -0.510 OA
ENDROOT
BRANCH   3   5
ATOM      5  C   LIG    1        0.002  -0.004   0.002  0.00  0.00    +0.230 C 
BRANCH   5   6
ATOM      6  O   LIG    1        1.356  -0.462  -0.013  0.00  0.00    -0.290 OA
BRANCH   6   7
ATOM      7  C   LIG    1        1.552  -1.807  -0.022  0.00  0.00    +0.150 A 
ATOM      8  C   LIG    1        0.464  -2.668  -0.011  0.00  0.00    -0.070 A 
ATOM      9  C   LIG    1        0.666  -4.034  -0.025  0.00  0.00    +0.090 A 
ATOM     10  C   LIG    1        1.952  -4.545  -0.040  0.00  0.00    -0.130 A 
ATOM     11  C   LIG    1        3.038  -3.688  -0.046  0.00  0.00    +0.090 A 
ATOM     12 BR   LIG    1        2.225  -6.416  -0.052  0.00  0.00    -0.050 Br
ATOM     13  C   LIG    1        2.841  -2.321  -0.037  0.00  0.00    +0.000 A 
ENDBRANCH   6   7
ENDBRANCH   5   6
ENDBRANCH   3   5
BRANCH   2  14
ATOM     14  C   LIG    1       -1.214   3.626   0.028  0.00  0.00    +0.380 C 
BRANCH  14  15
ATOM     15  C   LIG    1       -1.228   4.136  -1.391  0.00  0.00    -0.270 A 
ATOM     16  C   LIG    1       -0.141   4.425  -2.143  0.00  0.00    +0.250 A 
ATOM     17  N   LIG    1       -0.576   4.848  -3.348  0.00  0.00    -0.370 N 
ATOM     18  N   LIG    1       -1.977   4.826  -3.333  0.00  0.00    -0.290 NA
ATOM     19  C   LIG    1       -2.366   4.399  -2.159  0.00  0.00    +0.240 A 
BRANCH  17  20
ATOM     20  C   LIG    1        0.267   5.263  -4.472  0.00  0.00    +0.370 C 
BRANCH  20  21
ATOM     21  C   LIG    1       -0.097   4.463  -5.696  0.00  0.00    -0.110 A 
ATOM     22  C   LIG    1        0.548   3.269  -5.959  0.00  0.00    +0.020 A 
ATOM     23  C   LIG    1        0.210   2.532  -7.079  0.00  0.00    +0.000 A 
ATOM     24  C   LIG    1       -0.766   2.995  -7.941  0.00  0.00    +0.010 A 
ATOM     25  C   LIG    1       -1.408   4.191  -7.681  0.00  0.00    +0.010 A 
ATOM     26  C   LIG    1       -1.074   4.925  -6.558  0.00  0.00    +0.040 A 
ENDBRANCH  20  21
ENDBRANCH  17  20
ENDBRANCH  14  15
ENDBRANCH   2  14
TORSDOF 7
