REMARK  Name = ZINCrg000000ozN9.0
REMARK                            x       y       z     vdW  Elec       q    Type
REMARK                         _______ _______ _______ _____ _____    ______ ____
ROOT
ATOM      1  C   LIG    1        0.399  10.646   2.024  0.00  0.00    +0.500 C 
ENDROOT
BRANCH   1   2
ATOM      2  N   LIG    1        1.303  11.075   0.954  0.00  0.00    -0.420 N 
ATOM      3  C   LIG    1        2.622  10.815   0.866  0.00  0.00    +0.530 A 
ATOM      4  N   LIG    1        3.106  11.351  -0.225  0.00  0.00    -0.490 NA
ATOM      5  C   LIG    1        2.135  11.988  -0.885  0.00  0.00    +0.330 A 
ATOM      6  N   LIG    1        2.092  12.713  -2.065  0.00  0.00    -0.510 N 
ATOM      7  C   LIG    1        3.311  12.896  -2.856  0.00  0.00    +0.340 C 
ATOM      8  C   LIG    1        0.931  13.250  -2.485  0.00  0.00    +0.710 A 
ATOM      9  O   LIG    1        0.912  13.883  -3.523  0.00  0.00    -0.530 OA
ATOM     10  N   LIG    1       -0.208  13.103  -1.786  0.00  0.00    -0.550 N 
ATOM     11  C   LIG    1       -1.445  13.707  -2.288  0.00  0.00    +0.360 C 
ATOM     12  C   LIG    1       -0.229  12.408  -0.630  0.00  0.00    +0.590 A 
ATOM     13  O   LIG    1       -1.268  12.282  -0.006  0.00  0.00    -0.500 OA
ATOM     14  C   LIG    1        0.966  11.828  -0.153  0.00  0.00    -0.150 A 
ENDBRANCH   1   2
BRANCH   1  18
ATOM     15  C   LIG    1       -0.807   7.338   1.299  0.00  0.00    +0.220 A 
ATOM     16  N   LIG    1       -1.731   8.105   0.781  0.00  0.00    -0.370 NA
ATOM     17  O   LIG    1       -1.453   9.272   0.960  0.00  0.00    +0.110 OA
ATOM     18  C   LIG    1       -0.293   9.370   1.616  0.00  0.00    +0.150 A 
ATOM     19  N   LIG    1        0.129   8.151   1.839  0.00  0.00    -0.450 NA
BRANCH  15  23
ATOM     20  C   LIG    1       -0.749   3.086   1.275  0.00  0.00    -0.060 A 
ATOM     21  C   LIG    1        0.283   3.786   1.874  0.00  0.00    +0.010 A 
ATOM     22  C   LIG    1        0.272   5.166   1.879  0.00  0.00    +0.070 A 
ATOM     23  C   LIG    1       -0.787   5.854   1.290  0.00  0.00    -0.040 A 
ATOM     24  C   LIG    1       -1.827   5.144   0.694  0.00  0.00    +0.050 A 
ATOM     25  C   LIG    1       -1.803   3.764   0.689  0.00  0.00    +0.010 A 
BRANCH  20  27
ATOM     26  C   LIG    1       -0.013   1.086   0.008  0.00  0.00    +0.030 C 
ATOM     27  C   LIG    1       -0.729   1.579   1.267  0.00  0.00    +0.070 C 
ENDBRANCH  20  27
ENDBRANCH  15  23
ENDBRANCH   1  18
TORSDOF 4
