REMARK  Name = ZINCpk00000y6uei.0
REMARK                            x       y       z     vdW  Elec       q    Type
REMARK                         _______ _______ _______ _____ _____    ______ ____
ROOT
ATOM      1  C   LIG    1       -4.496   5.410   5.607  0.00  0.00    +0.210 C 
ATOM      2  C   LIG    1       -4.946   5.912   6.995  0.00  0.00    +0.050 C 
ATOM      3  C   LIG    1       -4.210   7.272   7.127  0.00  0.00    +0.040 C 
ATOM      4  C   LIG    1       -4.246   7.788   5.667  0.00  0.00    +0.250 C 
ATOM      5  N   LIG    1       -4.063   6.584   4.836  0.00  0.00    -0.610 N 
ATOM      6  C   LIG    1       -3.579   6.564   3.579  0.00  0.00    +0.520 C 
ATOM      7  O   LIG    1       -3.555   5.524   2.955  0.00  0.00    -0.520 OA
ENDROOT
BRANCH   6   8
ATOM      8  C   LIG    1       -3.066   7.833   2.948  0.00  0.00    +0.240 C 
ATOM      9  C   LIG    1       -4.257   8.684   2.510  0.00  0.00    +0.130 C 
ATOM     10  S   LIG    1       -3.625  10.100   1.556  0.00  0.00    -0.210 S 
ATOM     11  C   LIG    1       -2.817   9.257   0.163  0.00  0.00    +0.170 C 
ATOM     12  C   LIG    1       -2.025   8.094   0.686  0.00  0.00    +0.530 C 
ATOM     13  O   LIG    1       -1.140   7.669  -0.026  0.00  0.00    -0.540 OA
ATOM     14  N   LIG    1       -2.198   7.489   1.844  0.00  0.00    -0.700 N 
ATOM     15  H   LIG    1       -1.660   6.692   1.976  0.00  0.00    +0.410 HD
ENDBRANCH   6   8
BRANCH   1  16
ATOM     16  C   LIG    1       -5.666   4.724   4.898  0.00  0.00    +0.280 C 
BRANCH  16  18
ATOM     17  C   LIG    1       -7.002   3.493   6.522  0.00  0.00    +0.550 C 
ATOM     18  N   LIG    1       -6.012   3.490   5.607  0.00  0.00    -0.610 N 
ATOM     19  C   LIG    1       -5.282   2.252   5.322  0.00  0.00    +0.280 C 
ATOM     20  O   LIG    1       -7.608   4.521   6.758  0.00  0.00    -0.540 OA
BRANCH  17  22
ATOM     21  C   LIG    1       -8.398   2.228   8.051  0.00  0.00    -0.020 C 
ATOM     22  C   LIG    1       -7.349   2.254   7.234  0.00  0.00    -0.110 C 
ATOM     23  C   LIG    1       -9.310   3.424   8.144  0.00  0.00    +0.100 C 
BRANCH  21  24
ATOM     24  C   LIG    1       -8.674   1.003   8.884  0.00  0.00    +0.050 C 
BRANCH  24  26
ATOM     25  C   LIG    1       -8.338  -0.062  11.119  0.00  0.00    +0.030 C 
ATOM     26  C   LIG    1       -8.057   1.181  10.273  0.00  0.00    +0.010 C 
ENDBRANCH  24  26
ENDBRANCH  21  24
ENDBRANCH  17  22
ENDBRANCH  16  18
ENDBRANCH   1  16
TORSDOF 6
