REMARK  Name = ZINCrH00000tj199.0
REMARK                            x       y       z     vdW  Elec       q    Type
REMARK                         _______ _______ _______ _____ _____    ______ ____
ROOT
ATOM      1  N   LIG    1        4.789   4.492  -1.605  0.00  0.00    -0.520 NA
ATOM      2  C   LIG    1        4.342   4.138  -2.959  0.00  0.00    +0.190 C 
ATOM      3  C   LIG    1        3.144   5.014  -3.343  0.00  0.00    +0.290 C 
ATOM      4  N   LIG    1        3.519   6.425  -3.160  0.00  0.00    -0.610 N 
ATOM      5  C   LIG    1        4.104   6.828  -1.872  0.00  0.00    +0.300 C 
ATOM      6  C   LIG    1        3.332   7.324  -4.146  0.00  0.00    +0.600 C 
ATOM      7  O   LIG    1        3.577   8.500  -3.951  0.00  0.00    -0.520 OA
ATOM      8  C   LIG    1        5.264   5.880  -1.546  0.00  0.00    +0.190 C 
ENDROOT
BRANCH   6   9
ATOM      9  C   LIG    1        2.834   6.885  -5.453  0.00  0.00    -0.280 A 
ATOM     10  C   LIG    1        3.366   7.235  -6.662  0.00  0.00    -0.030 A 
ATOM     11  C   LIG    1        2.704   6.677  -7.729  0.00  0.00    +0.010 A 
ATOM     12  C   LIG    1        1.659   5.904  -7.408  0.00  0.00    -0.060 A 
ATOM     13  C   LIG    1        4.562   8.140  -6.810  0.00  0.00    +0.110 C 
ATOM     14  S   LIG    1        1.453   5.830  -5.716  0.00  0.00    +0.210 S 
ENDBRANCH   6   9
BRANCH   1  15
ATOM     15  C   LIG    1        5.823   3.561  -1.133  0.00  0.00    +0.230 C 
BRANCH  15  16
ATOM     16  C   LIG    1        5.300   2.149  -1.208  0.00  0.00    -0.090 A 
ATOM     17  C   LIG    1        6.130   1.127  -1.631  0.00  0.00    +0.060 A 
ATOM     18  C   LIG    1        5.651  -0.168  -1.700  0.00  0.00    +0.030 A 
ATOM     19  C   LIG    1        4.340  -0.440  -1.350  0.00  0.00    -0.020 A 
ATOM     20  C   LIG    1        3.512   0.583  -0.922  0.00  0.00    +0.030 A 
ATOM     21 CL   LIG    1        3.736  -2.065  -1.443  0.00  0.00    -0.070 Cl
ATOM     22  C   LIG    1        3.992   1.877  -0.854  0.00  0.00    +0.060 A 
ENDBRANCH  15  16
BRANCH  15  23
ATOM     23  C   LIG    1        6.180   3.889   0.294  0.00  0.00    +0.470 C 
ATOM     24  O   LIG    1        5.630   4.804   0.859  0.00  0.00    -0.480 OA
BRANCH  23  25
ATOM     25  O   LIG    1        7.110   3.164   0.936  0.00  0.00    -0.350 OA
BRANCH  25  27
ATOM     26  C   LIG    1        8.479   2.606   2.871  0.00  0.00    +0.070 C 
ATOM     27  C   LIG    1        7.403   3.537   2.308  0.00  0.00    +0.200 C 
ENDBRANCH  25  27
ENDBRANCH  23  25
ENDBRANCH  15  23
ENDBRANCH   1  15
TORSDOF 6
