REMARK  Name = ZINCpk000000ozyq.0
REMARK                            x       y       z     vdW  Elec       q    Type
REMARK                         _______ _______ _______ _____ _____    ______ ____
ROOT
ATOM      1  N   LIG    1        0.392  -0.970  -0.373  0.00  0.00    -0.540 NA
ATOM      2  C   LIG    1        1.820  -0.856  -0.668  0.00  0.00    +0.180 C 
ATOM      3  C   LIG    1        2.020   0.186  -1.747  0.00  0.00    +0.030 C 
ATOM      4  C   LIG    1        2.276   1.558  -1.099  0.00  0.00    +0.250 C 
ATOM      5  N   LIG    1        1.410   1.765   0.078  0.00  0.00    -0.590 N 
ATOM      6  C   LIG    1        0.013   1.381   0.094  0.00  0.00    +0.300 C 
ATOM      7  C   LIG    1        1.939   2.332   1.180  0.00  0.00    +0.580 C 
ATOM      8  O   LIG    1        1.242   2.532   2.156  0.00  0.00    -0.540 OA
ATOM      9  C   LIG    1       -0.122  -0.077   0.595  0.00  0.00    +0.180 C 
ENDROOT
BRANCH   7  10
ATOM     10  C   LIG    1        3.361   2.710   1.202  0.00  0.00    -0.040 A 
ATOM     11  C   LIG    1        4.165   2.987   0.110  0.00  0.00    -0.030 A 
ATOM     12  C   LIG    1        5.420   3.291   0.641  0.00  0.00    +0.190 A 
ATOM     13  N   LIG    1        5.339   3.195   1.944  0.00  0.00    -0.270 NA
ATOM     14  N   LIG    1        4.152   2.864   2.306  0.00  0.00    -0.250 N 
BRANCH  14  15
ATOM     15  C   LIG    1        3.713   2.675   3.691  0.00  0.00    +0.250 C 
ATOM     16  C   LIG    1        3.753   4.017   4.426  0.00  0.00    +0.050 C 
ATOM     17  C   LIG    1        4.645   1.683   4.390  0.00  0.00    +0.050 C 
ENDBRANCH  14  15
ENDBRANCH   7  10
BRANCH   1  18
ATOM     18  C   LIG    1        0.030  -2.358  -0.054  0.00  0.00    +0.200 C 
BRANCH  18  20
ATOM     19  N   LIG    1       -2.026  -3.725   0.081  0.00  0.00    -0.620 N 
ATOM     20  C   LIG    1       -1.463  -2.526  -0.168  0.00  0.00    +0.510 C 
ATOM     21  O   LIG    1       -2.157  -1.584  -0.484  0.00  0.00    -0.520 OA
BRANCH  19  23
ATOM     22  C   LIG    1       -3.837  -4.304  -1.458  0.00  0.00    +0.010 C 
ATOM     23  C   LIG    1       -3.478  -3.889  -0.030  0.00  0.00    +0.270 C 
ENDBRANCH  19  23
BRANCH  19  24
ATOM     24  C   LIG    1       -1.188  -4.864   0.463  0.00  0.00    +0.260 C 
ATOM     25  C   LIG    1       -1.042  -4.903   1.985  0.00  0.00    +0.020 C 
ENDBRANCH  19  24
ENDBRANCH  18  20
ENDBRANCH   1  18
TORSDOF 6
