REMARK  Name = ZINCpk00000e1xcu.0
REMARK                            x       y       z     vdW  Elec       q    Type
REMARK                         _______ _______ _______ _____ _____    ______ ____
ROOT
ATOM      1  N   LIG    1        4.777   0.004  -2.285  0.00  0.00    -0.720 N 
ATOM      2  H   LIG    1        4.210   0.185  -3.051  0.00  0.00    +0.410 HD
ATOM      3  C   LIG    1        4.348   0.306  -1.044  0.00  0.00    +0.530 C 
ATOM      4  O   LIG    1        5.013  -0.008  -0.079  0.00  0.00    -0.530 OA
ENDROOT
BRANCH   1   5
ATOM      5  C   LIG    1        6.099  -0.596  -2.478  0.00  0.00    +0.280 C 
BRANCH   5   6
ATOM      6  C   LIG    1        6.132  -1.328  -3.794  0.00  0.00    +0.460 C 
ATOM      7  O   LIG    1        5.151  -1.347  -4.500  0.00  0.00    -0.500 OA
BRANCH   6   9
ATOM      8  C   LIG    1        7.210  -2.644  -5.464  0.00  0.00    +0.280 C 
ATOM      9  O   LIG    1        7.251  -1.960  -4.184  0.00  0.00    -0.340 OA
ENDBRANCH   6   9
ENDBRANCH   5   6
BRANCH   5  10
ATOM     10  C   LIG    1        7.163   0.503  -2.479  0.00  0.00    +0.040 C 
BRANCH  10  11
ATOM     11  C   LIG    1        8.555  -0.133  -2.508  0.00  0.00    -0.020 C 
ATOM     12  C   LIG    1        8.765  -0.956  -1.236  0.00  0.00    +0.020 C 
ATOM     13  C   LIG    1        9.617   0.966  -2.586  0.00  0.00    +0.020 C 
ENDBRANCH  10  11
ENDBRANCH   5  10
ENDBRANCH   1   5
BRANCH   3  14
ATOM     14  C   LIG    1        3.042   1.033  -0.854  0.00  0.00    +0.050 C 
BRANCH  14  15
ATOM     15  C   LIG    1        2.792   1.250   0.640  0.00  0.00    +0.330 C 
BRANCH  15  16
ATOM     16  N   LIG    1        1.522   1.957   0.825  0.00  0.00    -0.550 N 
ATOM     17  C   LIG    1        1.506   3.315   0.855  0.00  0.00    +0.570 A 
ATOM     18  N   LIG    1        0.423   4.013   1.014  0.00  0.00    -0.520 NA
ATOM     19  C   LIG    1       -0.789   3.422   1.165  0.00  0.00    +0.150 A 
ATOM     20  C   LIG    1       -1.954   4.172   1.336  0.00  0.00    +0.030 A 
ATOM     21  C   LIG    1       -3.163   3.530   1.485  0.00  0.00    +0.070 A 
ATOM     22  C   LIG    1       -3.238   2.143   1.467  0.00  0.00    -0.010 A 
ATOM     23  C   LIG    1       -2.103   1.381   1.299  0.00  0.00    +0.100 A 
ATOM     24  C   LIG    1       -0.871   2.012   1.140  0.00  0.00    -0.200 A 
ATOM     25  C   LIG    1        0.376   1.251   0.964  0.00  0.00    +0.550 A 
ATOM     26  O   LIG    1        0.375   0.034   0.939  0.00  0.00    -0.510 OA
ENDBRANCH  15  16
ENDBRANCH  14  15
ENDBRANCH   3  14
TORSDOF 8
