REMARK  Name = ZINCvU00000009lN.0
REMARK                            x       y       z     vdW  Elec       q    Type
REMARK                         _______ _______ _______ _____ _____    ______ ____
ROOT
ATOM      1  C   LIG    1       -4.852   0.486  -0.164  0.00  0.00    +0.160 A 
ATOM      2  N   LIG    1       -4.144  -0.600   0.058  0.00  0.00    -0.280 NA
ATOM      3  N   LIG    1       -2.894  -0.308   0.118  0.00  0.00    -0.250 NA
ATOM      4  C   LIG    1       -2.725   0.982  -0.062  0.00  0.00    +0.230 A 
ATOM      5  N   LIG    1       -3.976   1.532  -0.242  0.00  0.00    -0.410 N 
ENDROOT
BRANCH   5   6
ATOM      6  C   LIG    1       -4.285   2.882  -0.463  0.00  0.00    +0.110 A 
ATOM      7  C   LIG    1       -4.120   3.809   0.557  0.00  0.00    +0.050 A 
ATOM      8  C   LIG    1       -4.421   5.138   0.336  0.00  0.00    +0.080 A 
ATOM      9  C   LIG    1       -4.895   5.545  -0.899  0.00  0.00    -0.070 A 
ATOM     10  C   LIG    1       -5.065   4.622  -1.916  0.00  0.00    +0.080 A 
ATOM     11 BR   LIG    1       -5.313   7.365  -1.196  0.00  0.00    -0.030 Br
ATOM     12  C   LIG    1       -4.761   3.292  -1.701  0.00  0.00    +0.050 A 
ENDBRANCH   5   6
BRANCH   4  13
ATOM     13  C   LIG    1       -1.438   1.708  -0.064  0.00  0.00    +0.030 A 
ATOM     14  C   LIG    1       -1.331   2.983  -0.634  0.00  0.00    -0.020 A 
ATOM     15  C   LIG    1       -0.112   3.626  -0.608  0.00  0.00    +0.270 A 
ATOM     16  N   LIG    1        0.945   3.054  -0.062  0.00  0.00    -0.470 NA
ATOM     17  C   LIG    1        0.889   1.853   0.481  0.00  0.00    +0.280 A 
ATOM     18  C   LIG    1       -0.289   1.138   0.499  0.00  0.00    +0.020 A 
ENDBRANCH   4  13
BRANCH   1  19
ATOM     19  S   LIG    1       -6.605   0.576  -0.323  0.00  0.00    +0.100 S 
BRANCH  19  20
ATOM     20  C   LIG    1       -7.031  -1.168  -0.096  0.00  0.00    +0.110 C 
BRANCH  20  23
ATOM     21  N   LIG    1       -9.076  -2.559  -0.057  0.00  0.00    -0.660 N 
ATOM     22  H   LIG    1       -8.521  -3.317   0.188  0.00  0.00    +0.420 HD
ATOM     23  C   LIG    1       -8.525  -1.337  -0.195  0.00  0.00    +0.540 C 
ATOM     24  O   LIG    1       -9.233  -0.373  -0.398  0.00  0.00    -0.500 OA
BRANCH  21  28
ATOM     25  C   LIG    1      -13.161  -3.087  -0.682  0.00  0.00    -0.090 A 
ATOM     26  C   LIG    1      -12.461  -2.164  -1.437  0.00  0.00    +0.030 A 
ATOM     27  C   LIG    1      -11.107  -1.987  -1.232  0.00  0.00    +0.020 A 
ATOM     28  C   LIG    1      -10.448  -2.736  -0.267  0.00  0.00    +0.140 A 
ATOM     29  C   LIG    1      -11.153  -3.666   0.487  0.00  0.00    -0.010 A 
ATOM     30  C   LIG    1      -12.508  -3.835   0.281  0.00  0.00    +0.030 A 
BRANCH  25  32
ATOM     31  C   LIG    1      -14.856  -4.362  -1.968  0.00  0.00    +0.030 C 
ATOM     32  C   LIG    1      -14.639  -3.279  -0.908  0.00  0.00    +0.050 C 
ENDBRANCH  25  32
ENDBRANCH  21  28
ENDBRANCH  20  23
ENDBRANCH  19  20
ENDBRANCH   1  19
TORSDOF 7
