REMARK  Name = ZINCvU00000004M4.0
REMARK                            x       y       z     vdW  Elec       q    Type
REMARK                         _______ _______ _______ _____ _____    ______ ____
ROOT
ATOM      1  C   LIG    1        0.705   5.625   3.777  0.00  0.00    +0.530 C 
ATOM      2  N   LIG    1        1.045   6.623   4.616  0.00  0.00    -0.580 N 
ATOM      3  O   LIG    1        0.184   5.879   2.712  0.00  0.00    -0.500 OA
ENDROOT
BRANCH   2   4
ATOM      4  C   LIG    1        1.778   6.325   5.850  0.00  0.00    +0.190 C 
ATOM      5  C   LIG    1        1.874   7.435   6.899  0.00  0.00    +0.050 C 
ATOM      6  C   LIG    1        3.106   7.051   6.075  0.00  0.00    +0.020 C 
ENDBRANCH   2   4
BRANCH   1   7
ATOM      7  C   LIG    1        0.971   4.192   4.163  0.00  0.00    +0.240 C 
BRANCH   7   8
ATOM      8  O   LIG    1        0.423   3.322   3.171  0.00  0.00    -0.290 OA
BRANCH   8  14
ATOM      9  C   LIG    1        2.121  -0.340   5.916  0.00  0.00    +0.090 C 
ATOM     10  C   LIG    1        1.398   0.165   4.693  0.00  0.00    -0.050 A 
ATOM     11  C   LIG    1        0.892  -0.733   3.771  0.00  0.00    -0.030 A 
ATOM     12  C   LIG    1        0.224  -0.273   2.651  0.00  0.00    +0.060 A 
ATOM     13  C   LIG    1        0.070   1.084   2.445  0.00  0.00    -0.100 A 
ATOM     14  C   LIG    1        0.578   1.986   3.369  0.00  0.00    +0.130 A 
ATOM     15  C   LIG    1        1.243   1.523   4.494  0.00  0.00    -0.080 A 
BRANCH  13  16
ATOM     16  C   LIG    1       -0.653   1.584   1.221  0.00  0.00    +0.040 C 
ATOM     17  C   LIG    1       -2.083   1.040   1.216  0.00  0.00    +0.030 C 
ATOM     18  C   LIG    1        0.078   1.105  -0.035  0.00  0.00    +0.020 C 
ENDBRANCH  13  16
ENDBRANCH   8  14
ENDBRANCH   7   8
ENDBRANCH   1   7
BRANCH   2  19
ATOM     19  C   LIG    1        0.682   8.005   4.295  0.00  0.00    +0.470 C 
BRANCH  19  20
ATOM     20  C   LIG    1       -0.672   8.317   4.877  0.00  0.00    +0.140 A 
ATOM     21  N   LIG    1       -0.908   8.798   6.066  0.00  0.00    -0.260 NA
ATOM     22  N   LIG    1       -2.176   8.944   6.227  0.00  0.00    -0.270 NA
ATOM     23  C   LIG    1       -2.799   8.550   5.142  0.00  0.00    +0.210 A 
ATOM     24  O   LIG    1       -1.857   8.145   4.266  0.00  0.00    -0.210 OA
BRANCH  23  25
ATOM     25  C   LIG    1       -4.260   8.548   4.921  0.00  0.00    -0.030 A 
ATOM     26  C   LIG    1       -4.785   8.102   3.707  0.00  0.00    +0.070 A 
ATOM     27  C   LIG    1       -6.150   8.098   3.509  0.00  0.00    +0.040 A 
ATOM     28  C   LIG    1       -6.999   8.546   4.507  0.00  0.00    -0.010 A 
ATOM     29  C   LIG    1       -6.484   8.995   5.712  0.00  0.00    +0.040 A 
ATOM     30 CL   LIG    1       -8.715   8.545   4.248  0.00  0.00    -0.050 Cl
ATOM     31  C   LIG    1       -5.121   8.998   5.924  0.00  0.00    +0.100 A 
ENDBRANCH  23  25
ENDBRANCH  19  20
ENDBRANCH   2  19
TORSDOF 8
