REMARK  Name = ZINCrg00001JduXv.0
REMARK                            x       y       z     vdW  Elec       q    Type
REMARK                         _______ _______ _______ _____ _____    ______ ____
ROOT
ATOM      1  C   LIG    1       -2.449   1.117   0.020  0.00  0.00    +0.240 C 
ATOM      2  C   LIG    1       -2.816   0.740   1.456  0.00  0.00    +0.030 C 
ENDROOT
BRANCH   1   3
ATOM      3  N   LIG    1       -1.191   1.867   0.018  0.00  0.00    -0.710 N 
ATOM      4  H   LIG    1       -1.204   2.837   0.023  0.00  0.00    +0.410 HD
ATOM      5  C   LIG    1       -0.014   1.209   0.009  0.00  0.00    +0.530 C 
ATOM      6  O   LIG    1        0.002  -0.004   0.002  0.00  0.00    -0.520 OA
BRANCH   5   7
ATOM      7  C   LIG    1        1.280   1.980   0.001  0.00  0.00    +0.000 C 
ATOM      8  C   LIG    1        2.456   1.000  -0.016  0.00  0.00    +0.060 C 
ATOM      9  C   LIG    1        2.542   0.322   1.357  0.00  0.00    +0.040 C 
ATOM     10  C   LIG    1        2.947   1.369   2.395  0.00  0.00    +0.220 C 
ATOM     11  N   LIG    1        2.089   2.544   2.296  0.00  0.00    -0.700 N 
ATOM     12  H   LIG    1        2.052   3.144   3.057  0.00  0.00    +0.400 HD
ATOM     13  C   LIG    1        1.353   2.845   1.226  0.00  0.00    +0.530 C 
ATOM     14  O   LIG    1        0.709   3.872   1.243  0.00  0.00    -0.550 OA
BRANCH  10  15
ATOM     15  C   LIG    1        2.816   0.769   3.796  0.00  0.00    -0.020 C 
ATOM     16  C   LIG    1        1.366   0.345   4.036  0.00  0.00    +0.020 C 
ATOM     17  C   LIG    1        3.220   1.814   4.838  0.00  0.00    +0.020 C 
ENDBRANCH  10  15
ENDBRANCH   5   7
ENDBRANCH   1   3
BRANCH   1  18
ATOM     18  C   LIG    1       -3.559   1.982  -0.580  0.00  0.00    +0.240 C 
ATOM     19  C   LIG    1       -3.192   2.359  -2.017  0.00  0.00    +0.040 C 
BRANCH  18  21
ATOM     20  C   LIG    1       -5.994   1.891  -0.569  0.00  0.00    +0.610 C 
ATOM     21  N   LIG    1       -4.818   1.233  -0.578  0.00  0.00    -0.710 N 
ATOM     22  H   LIG    1       -4.805   0.263  -0.583  0.00  0.00    +0.410 HD
ATOM     23  O   LIG    1       -6.011   3.107  -0.562  0.00  0.00    -0.540 OA
BRANCH  20  27
ATOM     24  N   LIG    1       -9.383   0.630  -0.560  0.00  0.00    -0.460 N 
ATOM     25  C   LIG    1       -8.655  -0.516  -0.571  0.00  0.00    +0.400 A 
ATOM     26  N   LIG    1       -7.389  -0.214  -0.580  0.00  0.00    -0.460 NA
ATOM     27  C   LIG    1       -7.260   1.137  -0.567  0.00  0.00    -0.070 A 
ATOM     28  C   LIG    1       -8.516   1.669  -0.558  0.00  0.00    +0.230 A 
BRANCH  24  30
ATOM     29  C   LIG    1      -11.361   0.768  -1.993  0.00  0.00    +0.040 C 
ATOM     30  C   LIG    1      -10.845   0.725  -0.553  0.00  0.00    +0.300 C 
ENDBRANCH  24  30
ENDBRANCH  20  27
ENDBRANCH  18  21
ENDBRANCH   1  18
TORSDOF 7
