REMARK  Name = ZINCrg00000fR7ZA.0
REMARK                            x       y       z     vdW  Elec       q    Type
REMARK                         _______ _______ _______ _____ _____    ______ ____
ROOT
ATOM      1  N   LIG    1       -3.957  -4.534  -0.093  0.00  0.00    -1.120 NA
ATOM      2  H   LIG    1       -4.638  -3.890   0.155  0.00  0.00    +0.420 HD
ENDROOT
BRANCH   1   3
ATOM      3  S   LIG    1       -4.368  -6.118  -0.344  0.00  0.00    +2.700 S 
ATOM      4  O   LIG    1       -3.776  -6.495  -1.580  0.00  0.00    -0.950 OA
ATOM      5  O   LIG    1       -5.762  -6.217  -0.089  0.00  0.00    -0.950 OA
BRANCH   3   9
ATOM      6  C   LIG    1       -2.305  -8.564   2.860  0.00  0.00    +0.210 A 
ATOM      7  C   LIG    1       -3.576  -8.054   3.085  0.00  0.00    -0.010 A 
ATOM      8  C   LIG    1       -4.203  -7.309   2.106  0.00  0.00    +0.150 A 
ATOM      9  C   LIG    1       -3.565  -7.070   0.902  0.00  0.00    -0.700 A 
ATOM     10  C   LIG    1       -2.301  -7.581   0.673  0.00  0.00    +0.150 A 
ATOM     11  C   LIG    1       -1.667  -8.323   1.651  0.00  0.00    -0.030 A 
BRANCH   6  14
ATOM     12  C   LIG    1       -1.723 -10.832   5.807  0.00  0.00    +0.110 C 
ATOM     13  C   LIG    1       -2.393 -10.110   4.667  0.00  0.00    +0.510 C 
ATOM     14  N   LIG    1       -1.667  -9.321   3.850  0.00  0.00    -0.680 N 
ATOM     15  H   LIG    1       -0.703  -9.277   3.949  0.00  0.00    +0.420 HD
ATOM     16  O   LIG    1       -3.585 -10.240   4.483  0.00  0.00    -0.520 OA
ENDBRANCH   6  14
ENDBRANCH   3   9
ENDBRANCH   1   3
BRANCH   1  17
ATOM     17  C   LIG    1       -2.564  -4.106  -0.245  0.00  0.00    +0.300 C 
BRANCH  17  18
ATOM     18  C   LIG    1       -2.507  -2.579  -0.331  0.00  0.00    +0.120 C 
BRANCH  18  19
ATOM     19  C   LIG    1       -1.075  -2.138  -0.488  0.00  0.00    +0.470 C 
ATOM     20  O   LIG    1       -0.190  -2.961  -0.527  0.00  0.00    -0.500 OA
BRANCH  19  21
ATOM     21  O   LIG    1       -0.781  -0.832  -0.585  0.00  0.00    -0.350 OA
BRANCH  21  22
ATOM     22  C   LIG    1        0.620  -0.480  -0.734  0.00  0.00    +0.220 C 
BRANCH  22  23
ATOM     23  C   LIG    1        0.757   1.041  -0.827  0.00  0.00    +0.080 C 
BRANCH  23  24
ATOM     24  C   LIG    1        2.233   1.411  -0.984  0.00  0.00    +0.310 C 
ATOM     25  O   LIG    1        2.946   1.039   0.198  0.00  0.00    -0.390 OA
ATOM     26  C   LIG    1        4.338   1.370   0.160  0.00  0.00    +0.220 C 
ATOM     27  C   LIG    1        4.484   2.880  -0.061  0.00  0.00    -0.020 C 
ATOM     28  C   LIG    1        3.703   3.274  -1.319  0.00  0.00    +0.220 C 
ATOM     29  O   LIG    1        2.351   2.821  -1.187  0.00  0.00    -0.390 OA
ENDBRANCH  23  24
ENDBRANCH  22  23
ENDBRANCH  21  22
ENDBRANCH  19  21
ENDBRANCH  18  19
ENDBRANCH  17  18
ENDBRANCH   1  17
TORSDOF 10
