REMARK  Name = ZINCpk00000KbbIV.0
REMARK                            x       y       z     vdW  Elec       q    Type
REMARK                         _______ _______ _______ _____ _____    ______ ____
ROOT
ATOM      1  C   LIG    1        2.842   3.938   0.279  0.00  0.00    +0.270 C 
ATOM      2  C   LIG    1        1.388   3.462   0.238  0.00  0.00    +0.200 C 
ATOM      3  N   LIG    1        1.360   2.011  -0.000  0.00  0.00    -0.530 NA
ATOM      4  C   LIG    1        2.035   1.678  -1.263  0.00  0.00    +0.160 C 
ATOM      5  C   LIG    1        3.483   2.172  -1.207  0.00  0.00    +0.240 C 
ATOM      6  O   LIG    1        3.491   3.578  -0.944  0.00  0.00    -0.370 OA
ENDROOT
BRANCH   1  10
ATOM      7  C   LIG    1        3.286   7.433   1.171  0.00  0.00    +0.190 A 
ATOM      8  N   LIG    1        2.524   7.499   0.114  0.00  0.00    -0.290 NA
ATOM      9  N   LIG    1        2.285   6.312  -0.322  0.00  0.00    -0.260 NA
ATOM     10  C   LIG    1        2.876   5.436   0.444  0.00  0.00    +0.180 A 
ATOM     11  N   LIG    1        3.531   6.122   1.411  0.00  0.00    -0.570 N 
ATOM     12  H   LIG    1        4.067   5.751   2.129  0.00  0.00    +0.430 HD
BRANCH   7  14
ATOM     13  C   LIG    1        4.537   9.571   1.055  0.00  0.00    +0.050 C 
ATOM     14  C   LIG    1        3.797   8.600   1.977  0.00  0.00    +0.140 C 
ENDBRANCH   7  14
ENDBRANCH   1  10
BRANCH   3  15
ATOM     15  C   LIG    1       -0.018   1.503   0.010  0.00  0.00    +0.300 C 
BRANCH  15  16
ATOM     16  C   LIG    1        0.002  -0.004   0.002  0.00  0.00    +0.380 A 
ATOM     17  N   LIG    1        0.022  -0.636   1.151  0.00  0.00    -0.530 NA
ATOM     18  C   LIG    1        0.040  -1.977   1.190  0.00  0.00    +0.190 A 
ATOM     19  C   LIG    1        0.060  -2.685   2.398  0.00  0.00    +0.030 A 
ATOM     20  C   LIG    1        0.078  -4.048   2.380  0.00  0.00    +0.060 A 
ATOM     21  C   LIG    1        0.076  -4.750   1.178  0.00  0.00    +0.000 A 
ATOM     22  C   LIG    1        0.056  -4.091  -0.017  0.00  0.00    +0.060 A 
ATOM     23  C   LIG    1        0.037  -2.693  -0.033  0.00  0.00    -0.200 A 
ATOM     24  C   LIG    1        0.016  -1.953  -1.241  0.00  0.00    +0.480 A 
ATOM     25  N   LIG    1       -0.006  -0.630  -1.165  0.00  0.00    -0.590 NA
BRANCH  24  26
ATOM     26  N   LIG    1        0.013  -2.592  -2.462  0.00  0.00    -0.820 N 
ATOM     27  H   LIG    1       -0.002  -2.073  -3.281  0.00  0.00    +0.410 HD
ATOM     28  H   LIG    1        0.026  -3.562  -2.503  0.00  0.00    +0.410 HD
ENDBRANCH  24  26
ENDBRANCH  15  16
ENDBRANCH   3  15
TORSDOF 5
