REMARK  Name = ZINCpk00000KbbIV.1
REMARK                            x       y       z     vdW  Elec       q    Type
REMARK                         _______ _______ _______ _____ _____    ______ ____
ROOT
ATOM      1  C   LIG    1        1.116   9.764   2.923  0.00  0.00    +0.290 C 
ATOM      2  C   LIG    1        1.184   9.296   1.467  0.00  0.00    +0.170 C 
ATOM      3  N   LIG    1        0.991   7.840   1.416  0.00  0.00    -0.520 NA
ATOM      4  C   LIG    1        2.014   7.150   2.216  0.00  0.00    +0.150 C 
ATOM      5  C   LIG    1        1.937   7.639   3.664  0.00  0.00    +0.230 C 
ATOM      6  O   LIG    1        2.096   9.060   3.691  0.00  0.00    -0.370 OA
ENDROOT
BRANCH   1   9
ATOM      7  C   LIG    1        1.053  13.369   3.193  0.00  0.00    +0.290 A 
ATOM      8  N   LIG    1        0.479  12.193   3.192  0.00  0.00    -0.530 NA
ATOM      9  C   LIG    1        1.391  11.244   2.990  0.00  0.00    +0.230 A 
ATOM     10  N   LIG    1        2.566  11.804   2.865  0.00  0.00    -0.280 NA
ATOM     11  N   LIG    1        2.370  13.190   2.988  0.00  0.00    -0.480 N 
ATOM     12  H   LIG    1        3.050  13.880   2.938  0.00  0.00    +0.440 HD
BRANCH   7  14
ATOM     13  C   LIG    1        0.028  15.302   2.028  0.00  0.00    +0.050 C 
ATOM     14  C   LIG    1        0.360  14.692   3.391  0.00  0.00    +0.150 C 
ENDBRANCH   7  14
ENDBRANCH   1   9
BRANCH   3  15
ATOM     15  C   LIG    1        0.993   7.357   0.029  0.00  0.00    +0.300 C 
BRANCH  15  16
ATOM     16  C   LIG    1        1.040   5.851   0.021  0.00  0.00    +0.370 A 
ATOM     17  N   LIG    1       -0.092   5.189   0.029  0.00  0.00    -0.530 NA
ATOM     18  C   LIG    1       -0.096   3.847   0.023  0.00  0.00    +0.190 A 
ATOM     19  C   LIG    1       -1.286   3.108   0.030  0.00  0.00    +0.030 A 
ATOM     20  C   LIG    1       -1.232   1.746   0.017  0.00  0.00    +0.060 A 
ATOM     21  C   LIG    1       -0.013   1.076   0.008  0.00  0.00    +0.000 A 
ATOM     22  C   LIG    1        1.165   1.765   0.000  0.00  0.00    +0.060 A 
ATOM     23  C   LIG    1        1.145   3.163   0.008  0.00  0.00    -0.200 A 
ATOM     24  C   LIG    1        2.333   3.934  -0.000  0.00  0.00    +0.480 A 
ATOM     25  N   LIG    1        2.223   5.256   0.007  0.00  0.00    -0.600 NA
BRANCH  24  26
ATOM     26  N   LIG    1        3.571   3.327  -0.014  0.00  0.00    -0.820 N 
ATOM     27  H   LIG    1        4.376   3.868  -0.019  0.00  0.00    +0.410 HD
ATOM     28  H   LIG    1        3.636   2.359  -0.019  0.00  0.00    +0.410 HD
ENDBRANCH  24  26
ENDBRANCH  15  16
ENDBRANCH   3  15
TORSDOF 5
