REMARK  Name = ZINCkj000005lz39.0
REMARK                            x       y       z     vdW  Elec       q    Type
REMARK                         _______ _______ _______ _____ _____    ______ ____
ROOT
ATOM      1  N   LIG    1        2.308   5.165   0.802  0.00  0.00    -0.380 N 
ATOM      2  C   LIG    1        2.467   6.237  -0.204  0.00  0.00    +0.250 C 
ATOM      3  C   LIG    1        3.351   5.612  -1.312  0.00  0.00    +0.080 C 
ATOM      4  C   LIG    1        2.827   4.152  -1.345  0.00  0.00    +0.090 C 
ATOM      5  C   LIG    1        2.507   3.864   0.137  0.00  0.00    +0.230 C 
ATOM      6  H   LIG    1        2.994   5.281   1.533  0.00  0.00    +0.430 HD
ENDROOT
BRANCH   5   7
ATOM      7  C   LIG    1        1.250   3.039   0.239  0.00  0.00    -0.150 A 
ATOM      8  C   LIG    1        1.226   1.911   1.038  0.00  0.00    +0.040 A 
ATOM      9  C   LIG    1        0.073   1.154   1.132  0.00  0.00    +0.020 A 
ATOM     10  C   LIG    1       -1.055   1.523   0.422  0.00  0.00    +0.050 A 
ATOM     11  C   LIG    1       -1.033   2.654  -0.372  0.00  0.00    +0.030 A 
ATOM     12  C   LIG    1        0.120   3.411  -0.465  0.00  0.00    +0.010 A 
ENDBRANCH   5   7
BRANCH   1  13
ATOM     13  C   LIG    1        0.959   5.224   1.379  0.00  0.00    +0.320 C 
BRANCH  13  15
ATOM     14  O   LIG    1        1.749   7.251   2.293  0.00  0.00    -0.490 OA
ATOM     15  C   LIG    1        0.818   6.481   2.199  0.00  0.00    +0.540 C 
ATOM     16  N   LIG    1       -0.344   6.749   2.827  0.00  0.00    -0.570 N 
ATOM     17  C   LIG    1       -0.610   7.932   3.659  0.00  0.00    +0.300 C 
ATOM     18  C   LIG    1       -2.068   7.740   4.119  0.00  0.00    +0.280 C 
ATOM     19  N   LIG    1       -2.466   6.465   3.505  0.00  0.00    -0.710 N 
ATOM     20  H   LIG    1       -3.335   6.043   3.598  0.00  0.00    +0.450 HD
ATOM     21  C   LIG    1       -1.439   5.977   2.797  0.00  0.00    +0.700 C 
ATOM     22  O   LIG    1       -1.494   4.929   2.184  0.00  0.00    -0.550 OA
ENDBRANCH  13  15
ENDBRANCH   1  13
TORSDOF 3
