REMARK  Name = ZINCkj000005lz39.1
REMARK                            x       y       z     vdW  Elec       q    Type
REMARK                         _______ _______ _______ _____ _____    ______ ____
ROOT
ATOM      1  N   LIG    1        0.002  -0.004   0.002  0.00  0.00    -0.380 N 
ATOM      2  C   LIG    1        0.590  -0.501   1.264  0.00  0.00    +0.260 C 
ATOM      3  C   LIG    1       -0.626  -0.796   2.178  0.00  0.00    +0.080 C 
ATOM      4  C   LIG    1       -1.655  -1.352   1.159  0.00  0.00    +0.090 C 
ATOM      5  C   LIG    1       -1.375  -0.518  -0.109  0.00  0.00    +0.230 C 
ATOM      6  H   LIG    1        0.551  -0.333  -0.778  0.00  0.00    +0.430 HD
ENDROOT
BRANCH   5   7
ATOM      7  C   LIG    1       -1.501  -1.389  -1.332  0.00  0.00    -0.140 A 
ATOM      8  C   LIG    1       -0.476  -2.251  -1.675  0.00  0.00    -0.010 A 
ATOM      9  C   LIG    1       -0.593  -3.052  -2.796  0.00  0.00    +0.040 A 
ATOM     10  C   LIG    1       -1.731  -2.985  -3.578  0.00  0.00    +0.050 A 
ATOM     11  C   LIG    1       -2.753  -2.119  -3.238  0.00  0.00    +0.040 A 
ATOM     12  C   LIG    1       -2.638  -1.321  -2.115  0.00  0.00    +0.050 A 
ENDBRANCH   5   7
BRANCH   1  13
ATOM     13  C   LIG    1       -0.018   1.465   0.010  0.00  0.00    +0.320 C 
BRANCH  13  15
ATOM     14  O   LIG    1        2.328   1.211  -0.014  0.00  0.00    -0.490 OA
ATOM     15  C   LIG    1        1.396   1.986  -0.001  0.00  0.00    +0.540 C 
ATOM     16  N   LIG    1        1.624   3.315   0.004  0.00  0.00    -0.570 N 
ATOM     17  C   LIG    1        2.950   3.951   0.001  0.00  0.00    +0.300 C 
ATOM     18  C   LIG    1        2.635   5.460   0.006  0.00  0.00    +0.280 C 
ATOM     19  N   LIG    1        1.165   5.513   0.021  0.00  0.00    -0.710 N 
ATOM     20  H   LIG    1        0.632   6.323   0.031  0.00  0.00    +0.450 HD
ATOM     21  C   LIG    1        0.680   4.264   0.019  0.00  0.00    +0.700 C 
ATOM     22  O   LIG    1       -0.510   4.016   0.029  0.00  0.00    -0.560 OA
ENDBRANCH  13  15
ENDBRANCH   1  13
TORSDOF 3
