REMARK  Name = ZINCpk00001AZivY.1
REMARK                            x       y       z     vdW  Elec       q    Type
REMARK                         _______ _______ _______ _____ _____    ______ ____
ROOT
ATOM      1  N   LIG    1        3.584   2.552  -0.961  0.00  0.00    -0.960 NA
ENDROOT
BRANCH   1   2
ATOM      2  S   LIG    1        2.935   1.174  -0.312  0.00  0.00    +2.710 S 
ATOM      3  O   LIG    1        3.146   0.143  -1.267  0.00  0.00    -0.950 OA
ATOM      4  O   LIG    1        3.405   1.100   1.027  0.00  0.00    -0.920 OA
BRANCH   2   5
ATOM      5  C   LIG    1        1.192   1.413  -0.215  0.00  0.00    -0.350 A 
ATOM      6  N   LIG    1        0.590   2.559  -0.049  0.00  0.00    -0.390 NA
ATOM      7  C   LIG    1       -0.737   2.362  -0.023  0.00  0.00    +0.150 A 
ATOM      8  C   LIG    1       -0.966   1.045  -0.186  0.00  0.00    +0.190 A 
ATOM      9  N   LIG    1        0.258   0.442  -0.302  0.00  0.00    -0.510 N 
ATOM     10  H   LIG    1        0.423  -0.506  -0.427  0.00  0.00    +0.430 HD
ENDBRANCH   2   5
ENDBRANCH   1   2
BRANCH   1  11
ATOM     11  C   LIG    1        4.101   3.603  -0.081  0.00  0.00    +0.370 C 
BRANCH  11  16
ATOM     12  C   LIG    1        9.815   4.086  -0.804  0.00  0.00    +0.100 C 
ATOM     13  C   LIG    1        8.325   3.959  -0.615  0.00  0.00    -0.050 A 
ATOM     14  C   LIG    1        7.473   4.874  -1.204  0.00  0.00    -0.010 A 
ATOM     15  C   LIG    1        6.106   4.759  -1.031  0.00  0.00    +0.070 A 
ATOM     16  C   LIG    1        5.590   3.729  -0.269  0.00  0.00    -0.150 A 
ATOM     17  C   LIG    1        6.443   2.815   0.327  0.00  0.00    +0.110 A 
ATOM     18  F   LIG    1        5.940   1.810   1.078  0.00  0.00    -0.120 F 
ATOM     19  C   LIG    1        7.812   2.928   0.149  0.00  0.00    -0.020 A 
ENDBRANCH  11  16
ENDBRANCH   1  11
BRANCH   1  20
ATOM     20  C   LIG    1        3.642   2.720  -2.415  0.00  0.00    +0.330 C 
BRANCH  20  21
ATOM     21  C   LIG    1        2.420   3.511  -2.886  0.00  0.00    +0.110 C 
ATOM     22  C   LIG    1        2.413   3.581  -4.415  0.00  0.00    +0.210 C 
ATOM     23  O   LIG    1        1.332   4.415  -4.843  0.00  0.00    -0.380 OA
ATOM     24  C   LIG    1        1.389   5.743  -4.313  0.00  0.00    +0.180 C 
ATOM     25  C   LIG    1        1.395   5.673  -2.783  0.00  0.00    +0.200 C 
ATOM     26  O   LIG    1        2.476   4.839  -2.356  0.00  0.00    -0.360 OA
ENDBRANCH  20  21
ENDBRANCH   1  20
TORSDOF 6
