REMARK  Name = ZINCrH000004tlYx.0
REMARK                            x       y       z     vdW  Elec       q    Type
REMARK                         _______ _______ _______ _____ _____    ______ ____
ROOT
ATOM      1  N   LIG    1        2.752   0.755   1.313  0.00  0.00    -0.740 N 
ATOM      2  H   LIG    1        2.115   0.893   2.032  0.00  0.00    +0.400 HD
ATOM      3  C   LIG    1        3.877   0.047   1.536  0.00  0.00    +0.710 C 
ATOM      4  N   LIG    1        4.169  -0.381   2.780  0.00  0.00    -0.630 N 
ATOM      5  C   LIG    1        3.223  -0.183   3.890  0.00  0.00    +0.240 C 
ATOM      6  C   LIG    1        3.979   0.455   5.062  0.00  0.00    +0.220 C 
ATOM      7  O   LIG    1        5.143  -0.323   5.350  0.00  0.00    -0.370 OA
ATOM      8  C   LIG    1        6.090  -0.379   4.280  0.00  0.00    +0.200 C 
ATOM      9  C   LIG    1        5.440  -1.065   3.068  0.00  0.00    +0.300 C 
ATOM     10  O   LIG    1        4.630  -0.204   0.615  0.00  0.00    -0.580 OA
ENDROOT
BRANCH   8  11
ATOM     11  C   LIG    1        7.297  -1.168   4.717  0.00  0.00    -0.090 A 
ATOM     12  C   LIG    1        7.137  -2.304   5.487  0.00  0.00    +0.100 A 
ATOM     13  C   LIG    1        8.243  -3.033   5.884  0.00  0.00    +0.010 A 
ATOM     14  C   LIG    1        9.512  -2.618   5.519  0.00  0.00    +0.120 A 
ATOM     15  C   LIG    1        9.672  -1.475   4.752  0.00  0.00    -0.080 A 
ATOM     16 CL   LIG    1       11.262  -0.952   4.293  0.00  0.00    -0.040 Cl
ATOM     17  F   LIG    1       10.594  -3.326   5.911  0.00  0.00    -0.120 F 
ATOM     18  C   LIG    1        8.563  -0.751   4.352  0.00  0.00    +0.080 A 
ENDBRANCH   8  11
BRANCH   1  19
ATOM     19  C   LIG    1        2.490   1.315  -0.015  0.00  0.00    +0.360 C 
BRANCH  19  24
ATOM     20  C   LIG    1       -0.054   4.117   0.026  0.00  0.00    -0.040 A 
ATOM     21  C   LIG    1       -1.252   3.399   0.032  0.00  0.00    +0.120 A 
ATOM     22  C   LIG    1       -1.227   2.021   0.017  0.00  0.00    +0.000 A 
ATOM     23  C   LIG    1       -0.016   1.347   0.008  0.00  0.00    +0.150 A 
ATOM     24  C   LIG    1        1.177   2.054   0.002  0.00  0.00    -0.150 A 
ATOM     25  F   LIG    1        0.003  -0.004  -0.001  0.00  0.00    -0.120 F 
ATOM     26  C   LIG    1        1.164   3.433   0.011  0.00  0.00    +0.130 A 
BRANCH  20  28
ATOM     27  N   LIG    1       -0.090   6.684   0.043  0.00  0.00    -0.400 NA
ATOM     28  C   LIG    1       -0.074   5.549   0.036  0.00  0.00    +0.250 C 
ENDBRANCH  20  28
ENDBRANCH  19  24
ENDBRANCH   1  19
TORSDOF 4
