REMARK  Name = ZINCpk000000nnKO.0
REMARK                            x       y       z     vdW  Elec       q    Type
REMARK                         _______ _______ _______ _____ _____    ______ ____
ROOT
ATOM      1  N   LIG    1       -1.019   2.111   7.299  0.00  0.00    -0.710 N 
ATOM      2  H   LIG    1       -0.314   1.506   7.577  0.00  0.00    +0.410 HD
ATOM      3  C   LIG    1       -1.081   2.532   6.020  0.00  0.00    +0.550 C 
ATOM      4  O   LIG    1       -1.965   3.290   5.672  0.00  0.00    -0.530 OA
ENDROOT
BRANCH   3   5
ATOM      5  C   LIG    1       -0.074   2.071   5.041  0.00  0.00    -0.100 A 
ATOM      6  C   LIG    1        0.942   1.201   5.438  0.00  0.00    +0.020 A 
ATOM      7  C   LIG    1        1.881   0.772   4.522  0.00  0.00    +0.050 A 
ATOM      8  C   LIG    1        1.816   1.197   3.208  0.00  0.00    +0.000 A 
ATOM      9  C   LIG    1        0.812   2.069   2.804  0.00  0.00    +0.180 A 
ATOM     10  C   LIG    1       -0.136   2.505   3.716  0.00  0.00    +0.070 A 
BRANCH   9  11
ATOM     11  N   LIG    1        0.754   2.502   1.474  0.00  0.00    -0.570 N 
ATOM     12  C   LIG    1        1.692   2.117   0.408  0.00  0.00    +0.260 C 
ATOM     13  C   LIG    1        1.171   2.869  -0.832  0.00  0.00    +0.260 C 
ATOM     14  O   LIG    1        0.004   3.590  -0.343  0.00  0.00    -0.320 OA
ATOM     15  C   LIG    1       -0.166   3.333   0.959  0.00  0.00    +0.640 C 
ATOM     16  O   LIG    1       -1.070   3.810   1.616  0.00  0.00    -0.490 OA
ENDBRANCH   9  11
ENDBRANCH   3   5
BRANCH   1  17
ATOM     17  C   LIG    1       -2.017   2.568   8.269  0.00  0.00    +0.280 C 
BRANCH  17  19
ATOM     18  C   LIG    1       -0.336   2.691  10.114  0.00  0.00    +0.050 C 
ATOM     19  C   LIG    1       -1.650   2.050   9.661  0.00  0.00    +0.090 C 
ATOM     20  C   LIG    1       -2.760   2.411  10.650  0.00  0.00    +0.020 C 
BRANCH  19  21
ATOM     21  N   LIG    1       -1.492   0.590   9.614  0.00  0.00    -0.530 NA
ATOM     22  C   LIG    1       -2.720  -0.058   9.132  0.00  0.00    +0.150 C 
ATOM     23  C   LIG    1       -2.492  -1.569   9.042  0.00  0.00    +0.220 C 
ATOM     24  O   LIG    1       -2.087  -2.062  10.322  0.00  0.00    -0.380 OA
ATOM     25  C   LIG    1       -0.894  -1.453  10.822  0.00  0.00    +0.220 C 
ATOM     26  C   LIG    1       -1.105   0.059  10.930  0.00  0.00    +0.150 C 
ENDBRANCH  19  21
ENDBRANCH  17  19
ENDBRANCH   1  17
TORSDOF 5
