REMARK  Name = ZINCrD00000753E2.0
REMARK                            x       y       z     vdW  Elec       q    Type
REMARK                         _______ _______ _______ _____ _____    ______ ____
ROOT
ATOM      1  C   LIG    1       -0.860   1.774  -1.298  0.00  0.00    +0.250 C 
ATOM      2  C   LIG    1       -1.414   1.913  -2.735  0.00  0.00    +0.040 C 
ATOM      3  C   LIG    1       -0.893   3.304  -3.174  0.00  0.00    +0.170 C 
ATOM      4  N   LIG    1       -0.996   4.113  -1.933  0.00  0.00    -0.500 NA
ATOM      5  C   LIG    1       -0.588   3.215  -0.828  0.00  0.00    +0.170 C 
ENDROOT
BRANCH   5   6
ATOM      6  C   LIG    1       -1.399   3.513   0.406  0.00  0.00    -0.050 A 
ATOM      7  C   LIG    1       -2.734   3.851   0.290  0.00  0.00    +0.080 A 
ATOM      8  C   LIG    1       -3.482   4.120   1.421  0.00  0.00    +0.020 A 
ATOM      9  C   LIG    1       -2.891   4.063   2.671  0.00  0.00    +0.070 A 
ATOM     10  C   LIG    1       -1.550   3.729   2.787  0.00  0.00    +0.070 A 
ATOM     11  F   LIG    1       -0.970   3.672   4.006  0.00  0.00    -0.130 F 
ATOM     12  F   LIG    1       -3.619   4.331   3.777  0.00  0.00    -0.130 F 
ATOM     13  C   LIG    1       -0.805   3.455   1.653  0.00  0.00    +0.020 A 
ENDBRANCH   5   6
BRANCH   1  15
ATOM     14  C   LIG    1        0.340  -0.346  -1.213  0.00  0.00    +0.580 C 
ATOM     15  N   LIG    1        0.383   0.998  -1.306  0.00  0.00    -0.720 N 
ATOM     16  H   LIG    1        1.237   1.452  -1.382  0.00  0.00    +0.400 HD
ATOM     17  O   LIG    1       -0.731  -0.914  -1.118  0.00  0.00    -0.520 OA
BRANCH  14  22
ATOM     18  C   LIG    1        5.144  -3.345  -1.265  0.00  0.00    +0.180 C 
ATOM     19  C   LIG    1        3.865  -2.547  -1.252  0.00  0.00    +0.350 A 
ATOM     20  N   LIG    1        3.926  -1.242  -1.429  0.00  0.00    -0.530 NA
ATOM     21  C   LIG    1        2.830  -0.504  -1.425  0.00  0.00    +0.360 A 
ATOM     22  C   LIG    1        1.593  -1.129  -1.227  0.00  0.00    -0.260 A 
ATOM     23  C   LIG    1        1.578  -2.515  -1.037  0.00  0.00    +0.250 A 
ATOM     24  C   LIG    1        0.278  -3.243  -0.812  0.00  0.00    +0.160 C 
ATOM     25  N   LIG    1        2.722  -3.176  -1.062  0.00  0.00    -0.520 NA
ENDBRANCH  14  22
ENDBRANCH   1  15
BRANCH   4  26
ATOM     26  C   LIG    1       -0.125   5.294  -2.000  0.00  0.00    +0.110 C 
ATOM     27  C   LIG    1       -0.201   6.060  -0.677  0.00  0.00    +0.040 C 
ATOM     28  C   LIG    1       -0.585   6.203  -3.142  0.00  0.00    +0.040 C 
ENDBRANCH   4  26
TORSDOF 4
