REMARK  Name = ZINCpk00000eaLVy.0
REMARK                            x       y       z     vdW  Elec       q    Type
REMARK                         _______ _______ _______ _____ _____    ______ ____
ROOT
ATOM      1  C   LIG    1        1.174   2.076   0.002  0.00  0.00    +0.510 C 
ATOM      2  O   LIG    1        2.202   1.428  -0.011  0.00  0.00    -0.500 OA
ENDROOT
BRANCH   1   3
ATOM      3  C   LIG    1        1.232   3.552   0.009  0.00  0.00    -0.120 A 
ATOM      4  C   LIG    1        0.052   4.299   0.019  0.00  0.00    +0.090 A 
ATOM      5  C   LIG    1        0.113   5.677   0.031  0.00  0.00    +0.030 A 
ATOM      6  C   LIG    1        1.339   6.319   0.023  0.00  0.00    -0.070 A 
ATOM      7  C   LIG    1        2.511   5.584   0.008  0.00  0.00    +0.030 A 
ATOM      8  C   LIG    1        2.465   4.206   0.001  0.00  0.00    +0.090 A 
BRANCH   6   9
ATOM      9  C   LIG    1        1.397   7.825   0.030  0.00  0.00    +0.330 C 
BRANCH   9  10
ATOM     10  N   LIG    1        1.403   8.320  -1.349  0.00  0.00    -0.740 N 
ATOM     11  H   LIG    1        1.371   7.694  -2.089  0.00  0.00    +0.400 HD
ATOM     12  C   LIG    1        1.452   9.645  -1.589  0.00  0.00    +0.710 C 
ATOM     13  O   LIG    1        1.492  10.430  -0.661  0.00  0.00    -0.590 OA
ATOM     14  N   LIG    1        1.457  10.100  -2.858  0.00  0.00    -0.870 N 
ATOM     15  H   LIG    1        1.492  11.054  -3.031  0.00  0.00    +0.420 HD
ATOM     16  H   LIG    1        1.425   9.474  -3.598  0.00  0.00    +0.400 HD
ENDBRANCH   9  10
ENDBRANCH   6   9
ENDBRANCH   1   3
BRANCH   1  17
ATOM     17  O   LIG    1       -0.018   1.448   0.010  0.00  0.00    -0.330 OA
BRANCH  17  18
ATOM     18  C   LIG    1        0.002  -0.004   0.002  0.00  0.00    +0.270 C 
BRANCH  18  21
ATOM     19  N   LIG    1       -1.640  -1.854   0.008  0.00  0.00    -0.720 N 
ATOM     20  H   LIG    1       -0.894  -2.474  -0.003  0.00  0.00    +0.410 HD
ATOM     21  C   LIG    1       -1.412  -0.526   0.013  0.00  0.00    +0.520 C 
ATOM     22  O   LIG    1       -2.344   0.250   0.026  0.00  0.00    -0.510 OA
BRANCH  19  24
ATOM     23  C   LIG    1       -3.550  -2.412  -1.414  0.00  0.00    +0.040 C 
ATOM     24  C   LIG    1       -3.014  -2.361   0.018  0.00  0.00    +0.350 C 
BRANCH  24  25
ATOM     25  C   LIG    1       -3.034  -3.746   0.611  0.00  0.00    -0.030 A 
ATOM     26  C   LIG    1       -3.969  -4.230   1.449  0.00  0.00    -0.040 A 
ATOM     27  C   LIG    1       -3.598  -5.560   1.753  0.00  0.00    -0.060 A 
ATOM     28  C   LIG    1       -2.458  -5.809   1.083  0.00  0.00    +0.180 A 
ATOM     29  O   LIG    1       -2.125  -4.709   0.389  0.00  0.00    -0.180 OA
ENDBRANCH  24  25
ENDBRANCH  19  24
ENDBRANCH  18  21
ENDBRANCH  17  18
ENDBRANCH   1  17
TORSDOF 8
