REMARK  Name = ZINCrH000004vF99.0
REMARK                            x       y       z     vdW  Elec       q    Type
REMARK                         _______ _______ _______ _____ _____    ______ ____
ROOT
ATOM      1  O   LIG    1        1.966  -7.506   2.249  0.00  0.00    -0.510 OA
ATOM      2  C   LIG    1        1.901  -7.245   1.062  0.00  0.00    +0.600 C 
ATOM      3  N   LIG    1        2.346  -6.056   0.608  0.00  0.00    -0.610 N 
ATOM      4  C   LIG    1        2.823  -5.029   1.544  0.00  0.00    +0.300 C 
ATOM      5  C   LIG    1        2.066  -3.725   1.273  0.00  0.00    +0.020 C 
ATOM      6  C   LIG    1        2.217  -3.350  -0.203  0.00  0.00    +0.270 C 
ATOM      7  C   LIG    1        1.612  -4.451  -1.076  0.00  0.00    +0.020 C 
ATOM      8  C   LIG    1        2.364  -5.763  -0.831  0.00  0.00    +0.290 C 
ENDROOT
BRANCH   2   9
ATOM      9  C   LIG    1        1.339  -8.222   0.126  0.00  0.00    -0.300 A 
ATOM     10  C   LIG    1        0.082  -8.851   0.223  0.00  0.00    +0.160 A 
ATOM     11  C   LIG    1       -0.958  -8.764   1.159  0.00  0.00    -0.100 A 
ATOM     12  C   LIG    1       -2.082  -9.517   0.979  0.00  0.00    +0.130 A 
ATOM     13  C   LIG    1       -2.174 -10.360  -0.137  0.00  0.00    +0.010 A 
ATOM     14  C   LIG    1       -1.159 -10.427  -1.028  0.00  0.00    +0.310 A 
ATOM     15 BR   LIG    1       -0.804  -7.618   2.655  0.00  0.00    +0.010 Br
ATOM     16  N   LIG    1       -0.032  -9.680  -0.856  0.00  0.00    -0.260 N 
ATOM     17  N   LIG    1        1.140  -9.565  -1.613  0.00  0.00    -0.300 NA
ATOM     18  C   LIG    1        1.947  -8.707  -1.045  0.00  0.00    +0.320 A 
ENDBRANCH   2   9
BRANCH   6  19
ATOM     19  N   LIG    1        1.522  -2.086  -0.460  0.00  0.00    -0.350 N 
ATOM     20  C   LIG    1        0.210  -1.944  -0.740  0.00  0.00    +0.250 A 
ATOM     21  C   LIG    1       -0.037  -0.624  -0.904  0.00  0.00    -0.070 A 
ATOM     22  C   LIG    1        1.168   0.064  -0.726  0.00  0.00    -0.020 A 
ATOM     23  N   LIG    1        2.103  -0.811  -0.456  0.00  0.00    -0.230 NA
BRANCH  22  24
ATOM     24  C   LIG    1        1.356   1.556  -0.823  0.00  0.00    +0.560 C 
ATOM     25  F   LIG    1        0.634   2.184   0.198  0.00  0.00    -0.170 F 
ATOM     26  F   LIG    1        0.894   2.006  -2.064  0.00  0.00    -0.170 F 
ATOM     27  F   LIG    1        2.714   1.865  -0.691  0.00  0.00    -0.170 F 
ENDBRANCH  22  24
ENDBRANCH   6  19
TORSDOF 3
