REMARK  Name = ZINCrg000000rFWO.0
REMARK                            x       y       z     vdW  Elec       q    Type
REMARK                         _______ _______ _______ _____ _____    ______ ____
ROOT
ATOM      1  C   LIG    1       -7.936   4.044  -1.128  0.00  0.00    +0.150 A 
ATOM      2  C   LIG    1       -7.304   5.202  -1.558  0.00  0.00    +0.030 A 
ATOM      3  C   LIG    1       -8.054   6.263  -2.028  0.00  0.00    +0.040 A 
ATOM      4  C   LIG    1       -9.433   6.176  -2.058  0.00  0.00    +0.020 A 
ATOM      5  C   LIG    1      -10.066   5.026  -1.624  0.00  0.00    -0.080 A 
ATOM      6  C   LIG    1       -9.322   3.960  -1.159  0.00  0.00    +0.010 A 
ENDROOT
BRANCH   5   7
ATOM      7  C   LIG    1      -11.570   4.936  -1.658  0.00  0.00    +0.170 C 
ATOM      8  N   LIG    1      -12.001   3.557  -1.944  0.00  0.00    -0.720 N 
ATOM      9  H   LIG    1      -11.822   2.770  -1.405  0.00  0.00    +0.440 HD
ATOM     10  C   LIG    1      -12.691   3.604  -3.101  0.00  0.00    +0.710 C 
ATOM     11  N   LIG    1      -12.765   4.842  -3.603  0.00  0.00    -0.680 N 
ATOM     12  H   LIG    1      -13.222   5.070  -4.428  0.00  0.00    +0.440 HD
ATOM     13  O   LIG    1      -13.191   2.630  -3.630  0.00  0.00    -0.540 OA
ATOM     14  C   LIG    1      -12.167   5.423  -0.336  0.00  0.00    +0.100 C 
ATOM     15  C   LIG    1      -12.126   5.734  -2.820  0.00  0.00    +0.540 C 
ATOM     16  O   LIG    1      -12.018   6.927  -3.007  0.00  0.00    -0.450 OA
ENDBRANCH   5   7
BRANCH   1  18
ATOM     17  C   LIG    1       -5.966   2.711  -1.187  0.00  0.00    +0.510 C 
ATOM     18  N   LIG    1       -7.179   2.965  -0.657  0.00  0.00    -0.670 N 
ATOM     19  H   LIG    1       -7.527   2.400   0.050  0.00  0.00    +0.420 HD
ATOM     20  O   LIG    1       -5.571   3.357  -2.135  0.00  0.00    -0.510 OA
BRANCH  17  22
ATOM     21  C   LIG    1       -4.803   1.944   0.864  0.00  0.00    +0.060 C 
ATOM     22  C   LIG    1       -5.100   1.625  -0.602  0.00  0.00    +0.250 C 
BRANCH  22  23
ATOM     23  N   LIG    1       -3.842   1.548  -1.349  0.00  0.00    -0.710 N 
ATOM     24  H   LIG    1       -3.513   2.326  -1.826  0.00  0.00    +0.410 HD
ATOM     25  C   LIG    1       -3.143   0.396  -1.374  0.00  0.00    +0.600 C 
ATOM     26  O   LIG    1       -3.557  -0.580  -0.777  0.00  0.00    -0.530 OA
BRANCH  25  27
ATOM     27  C   LIG    1       -1.878   0.318  -2.126  0.00  0.00    -0.240 A 
ATOM     28  C   LIG    1       -1.281   1.314  -2.841  0.00  0.00    +0.240 A 
ATOM     29  O   LIG    1       -0.154   0.833  -3.374  0.00  0.00    -0.170 OA
ATOM     30  C   LIG    1        0.026  -0.453  -3.035  0.00  0.00    +0.170 A 
ATOM     31  C   LIG    1       -0.994  -0.850  -2.260  0.00  0.00    +0.000 A 
ENDBRANCH  25  27
ENDBRANCH  22  23
ENDBRANCH  17  22
ENDBRANCH   1  18
TORSDOF 5
