REMARK  Name = ZINCpe00000VVGZh.0
REMARK                            x       y       z     vdW  Elec       q    Type
REMARK                         _______ _______ _______ _____ _____    ______ ____
ROOT
ATOM      1  C   LIG    1       -2.907   2.990   1.660  0.00  0.00    +0.510 C 
ATOM      2  N   LIG    1       -1.752   2.345   1.404  0.00  0.00    -0.720 N 
ATOM      3  H   LIG    1       -1.198   2.033   2.137  0.00  0.00    +0.410 HD
ATOM      4  O   LIG    1       -3.599   3.380   0.743  0.00  0.00    -0.530 OA
ENDROOT
BRANCH   1   5
ATOM      5  C   LIG    1       -3.338   3.228   3.084  0.00  0.00    +0.270 C 
BRANCH   5   6
ATOM      6  N   LIG    1       -4.617   3.943   3.094  0.00  0.00    -0.730 N 
ATOM      7  H   LIG    1       -5.217   3.874   2.335  0.00  0.00    +0.410 HD
ATOM      8  C   LIG    1       -4.959   4.697   4.157  0.00  0.00    +0.710 C 
ATOM      9  O   LIG    1       -4.207   4.783   5.109  0.00  0.00    -0.590 OA
ATOM     10  N   LIG    1       -6.135   5.355   4.167  0.00  0.00    -0.870 N 
ATOM     11  H   LIG    1       -6.382   5.897   4.932  0.00  0.00    +0.420 HD
ATOM     12  H   LIG    1       -6.736   5.286   3.408  0.00  0.00    +0.400 HD
ENDBRANCH   5   6
BRANCH   5  13
ATOM     13  C   LIG    1       -3.500   1.885   3.799  0.00  0.00    +0.020 C 
BRANCH  13  15
ATOM     14  C   LIG    1       -3.978   0.785   5.990  0.00  0.00    +0.000 C 
ATOM     15  C   LIG    1       -3.816   2.128   5.276  0.00  0.00    +0.030 C 
ENDBRANCH  13  15
ENDBRANCH   5  13
ENDBRANCH   1   5
BRANCH   2  16
ATOM     16  C   LIG    1       -1.332   2.114   0.020  0.00  0.00    +0.320 C 
BRANCH  16  17
ATOM     17  C   LIG    1       -0.017   1.378   0.010  0.00  0.00    -0.130 A 
ATOM     18  C   LIG    1        1.171   2.086   0.002  0.00  0.00    +0.090 A 
ATOM     19  C   LIG    1        2.377   1.411  -0.015  0.00  0.00    +0.000 A 
ATOM     20  C   LIG    1        2.396   0.029  -0.021  0.00  0.00    +0.130 A 
ATOM     21  C   LIG    1        1.208  -0.679  -0.013  0.00  0.00    -0.680 A 
ATOM     22  C   LIG    1        0.002  -0.004   0.002  0.00  0.00    +0.140 A 
BRANCH  21  23
ATOM     23  S   LIG    1        1.232  -2.441  -0.022  0.00  0.00    +2.690 S 
ATOM     24  O   LIG    1       -0.006  -2.861   0.533  0.00  0.00    -0.960 OA
ATOM     25  O   LIG    1        2.493  -2.827   0.508  0.00  0.00    -0.950 OA
BRANCH  23  26
ATOM     26  N   LIG    1        1.223  -2.923  -1.606  0.00  0.00    -1.110 NA
ATOM     27  H   LIG    1        0.465  -3.415  -1.959  0.00  0.00    +0.420 HD
BRANCH  26  28
ATOM     28  C   LIG    1        2.360  -2.608  -2.474  0.00  0.00    +0.230 C 
ATOM     29  C   LIG    1        1.857  -2.331  -3.892  0.00  0.00    +0.030 C 
ATOM     30  C   LIG    1        3.327  -3.794  -2.499  0.00  0.00    +0.020 C 
ENDBRANCH  26  28
ENDBRANCH  23  26
ENDBRANCH  21  23
ENDBRANCH  16  17
ENDBRANCH   2  16
TORSDOF 9
