REMARK  Name = ZINCtV000002MiRp.0
REMARK                            x       y       z     vdW  Elec       q    Type
REMARK                         _______ _______ _______ _____ _____    ______ ____
ROOT
ATOM      1  O   LIG    1       -3.627   3.739   6.959  0.00  0.00    -0.490 OA
ATOM      2  C   LIG    1       -3.367   4.628   6.176  0.00  0.00    +0.520 C 
ATOM      3  N   LIG    1       -3.729   5.896   6.453  0.00  0.00    -0.670 N 
ATOM      4  H   LIG    1       -3.455   6.618   5.866  0.00  0.00    +0.410 HD
ENDROOT
BRANCH   3   5
ATOM      5  C   LIG    1       -4.499   6.172   7.588  0.00  0.00    +0.150 A 
ATOM      6  C   LIG    1       -5.443   5.254   8.029  0.00  0.00    +0.020 A 
ATOM      7  C   LIG    1       -6.197   5.527   9.153  0.00  0.00    +0.040 A 
ATOM      8  C   LIG    1       -6.022   6.718   9.833  0.00  0.00    +0.010 A 
ATOM      9  C   LIG    1       -5.087   7.637   9.394  0.00  0.00    -0.070 A 
ATOM     10  C   LIG    1       -4.325   7.368   8.274  0.00  0.00    -0.010 A 
BRANCH   9  11
ATOM     11  C   LIG    1       -4.899   8.934  10.138  0.00  0.00    +0.100 C 
BRANCH  11  12
ATOM     12  C   LIG    1       -5.837   9.995   9.559  0.00  0.00    +0.060 C 
BRANCH  12  13
ATOM     13  C   LIG    1       -5.646  11.311  10.314  0.00  0.00    +0.450 C 
ATOM     14  F   LIG    1       -5.940  11.119  11.668  0.00  0.00    -0.180 F 
ATOM     15  F   LIG    1       -6.505  12.281   9.784  0.00  0.00    -0.180 F 
ATOM     16  F   LIG    1       -4.321  11.738  10.180  0.00  0.00    -0.180 F 
ENDBRANCH  12  13
ENDBRANCH  11  12
ENDBRANCH   9  11
ENDBRANCH   3   5
BRANCH   2  17
ATOM     17  C   LIG    1       -2.640   4.315   4.894  0.00  0.00    +0.240 C 
BRANCH  17  18
ATOM     18  O   LIG    1       -2.368   2.913   4.831  0.00  0.00    -0.290 OA
BRANCH  18  19
ATOM     19  C   LIG    1       -1.713   2.461   3.730  0.00  0.00    +0.140 A 
ATOM     20  C   LIG    1       -1.416   1.111   3.603  0.00  0.00    -0.010 A 
ATOM     21  C   LIG    1       -0.750   0.654   2.482  0.00  0.00    +0.080 A 
ATOM     22  C   LIG    1       -0.380   1.540   1.488  0.00  0.00    -0.100 A 
ATOM     23  C   LIG    1       -0.669   2.886   1.614  0.00  0.00    +0.100 A 
ATOM     24  C   LIG    1       -1.340   3.348   2.730  0.00  0.00    -0.080 A 
BRANCH  22  25
ATOM     25  C   LIG    1        0.347   1.038   0.266  0.00  0.00    +0.130 C 
ATOM     26  S   LIG    1       -0.626   1.416  -1.219  0.00  0.00    -0.220 S 
ATOM     27  C   LIG    1        0.437   0.819  -2.561  0.00  0.00    +0.100 C 
ATOM     28  C   LIG    1        1.746   1.599  -2.578  0.00  0.00    +0.060 C 
ATOM     29  C   LIG    1        2.633   1.193  -1.407  0.00  0.00    +0.100 C 
ATOM     30  S   LIG    1        1.962   1.857   0.141  0.00  0.00    -0.220 S 
ENDBRANCH  22  25
ENDBRANCH  18  19
ENDBRANCH  17  18
ENDBRANCH   2  17
TORSDOF 8
