REMARK  Name = ZINCrD000000fKQp.0
REMARK                            x       y       z     vdW  Elec       q    Type
REMARK                         _______ _______ _______ _____ _____    ______ ____
ROOT
ATOM      1  C   LIG    1       -0.673   4.223  -1.005  0.00  0.00    +0.540 C 
ATOM      2  N   LIG    1        0.286   5.166  -1.100  0.00  0.00    -0.670 N 
ATOM      3  H   LIG    1        1.220   4.906  -1.135  0.00  0.00    +0.420 HD
ATOM      4  O   LIG    1       -1.842   4.541  -1.056  0.00  0.00    -0.490 OA
ENDROOT
BRANCH   2   5
ATOM      5  C   LIG    1       -0.066   6.519  -1.149  0.00  0.00    +0.210 A 
ATOM      6  C   LIG    1        0.703   7.412  -1.885  0.00  0.00    -0.030 A 
ATOM      7  C   LIG    1        0.350   8.746  -1.935  0.00  0.00    +0.160 A 
ATOM      8  C   LIG    1       -0.761   9.196  -1.246  0.00  0.00    -0.680 A 
ATOM      9  C   LIG    1       -1.526   8.310  -0.508  0.00  0.00    +0.160 A 
ATOM     10  C   LIG    1       -1.181   6.974  -0.458  0.00  0.00    +0.010 A 
BRANCH   8  11
ATOM     11  S   LIG    1       -1.204  10.900  -1.307  0.00  0.00    +2.480 S 
ATOM     12  O   LIG    1       -2.604  10.907  -1.069  0.00  0.00    -0.890 OA
ATOM     13  O   LIG    1       -0.668  11.357  -2.542  0.00  0.00    -0.890 OA
BRANCH  11  14
ATOM     14  C   LIG    1       -0.317  11.649   0.087  0.00  0.00    -0.050 C 
ATOM     15  F   LIG    1        1.059  11.460  -0.081  0.00  0.00    -0.160 F 
ATOM     16  F   LIG    1       -0.729  11.045   1.280  0.00  0.00    -0.160 F 
ENDBRANCH  11  14
ENDBRANCH   8  11
ENDBRANCH   2   5
BRANCH   1  17
ATOM     17  C   LIG    1       -0.292   2.775  -0.836  0.00  0.00    +0.090 C 
BRANCH  17  18
ATOM     18  S   LIG    1       -1.793   1.762  -0.739  0.00  0.00    -0.020 S 
BRANCH  18  22
ATOM     19  C   LIG    1       -0.161  -2.436  -0.244  0.00  0.00    +0.140 A 
ATOM     20  C   LIG    1       -1.532  -2.225  -0.284  0.00  0.00    +0.010 A 
ATOM     21  C   LIG    1       -2.030  -0.946  -0.435  0.00  0.00    +0.050 A 
ATOM     22  C   LIG    1       -1.158   0.130  -0.546  0.00  0.00    -0.120 A 
ATOM     23  C   LIG    1        0.214  -0.082  -0.511  0.00  0.00    +0.000 A 
ATOM     24  C   LIG    1        0.711  -1.361  -0.355  0.00  0.00    +0.040 A 
BRANCH  19  27
ATOM     25  C   LIG    1        2.096  -5.315   0.652  0.00  0.00    +0.110 C 
ATOM     26  C   LIG    1        1.492  -3.936   0.586  0.00  0.00    +0.510 C 
ATOM     27  N   LIG    1        0.344  -3.734  -0.091  0.00  0.00    -0.680 N 
ATOM     28  H   LIG    1       -0.132  -4.488  -0.474  0.00  0.00    +0.410 HD
ATOM     29  O   LIG    1        2.038  -3.007   1.143  0.00  0.00    -0.520 OA
ENDBRANCH  19  27
ENDBRANCH  18  22
ENDBRANCH  17  18
ENDBRANCH   1  17
TORSDOF 7
