REMARK  Name = ZINCnE000001ORag.0
REMARK                            x       y       z     vdW  Elec       q    Type
REMARK                         _______ _______ _______ _____ _____    ______ ____
ROOT
ATOM      1  S   LIG    1        1.898  -2.646   1.672  0.00  0.00    +2.690 S 
ATOM      2  O   LIG    1        0.808  -1.951   2.261  0.00  0.00    -0.960 OA
ATOM      3  O   LIG    1        2.988  -3.162   2.424  0.00  0.00    -0.950 OA
ENDROOT
BRANCH   1   8
ATOM      4  C   LIG    1        4.275   1.082  -2.434  0.00  0.00    +0.100 C 
ATOM      5  C   LIG    1        3.681   0.150  -1.409  0.00  0.00    -0.020 A 
ATOM      6  C   LIG    1        4.497  -0.721  -0.711  0.00  0.00    -0.020 A 
ATOM      7  C   LIG    1        3.953  -1.575   0.229  0.00  0.00    +0.040 A 
ATOM      8  C   LIG    1        2.592  -1.558   0.473  0.00  0.00    -0.690 A 
ATOM      9  C   LIG    1        1.776  -0.686  -0.224  0.00  0.00    +0.030 A 
ATOM     10  C   LIG    1        0.293  -0.668   0.042  0.00  0.00    +0.120 C 
ATOM     11  C   LIG    1        4.843  -2.524   0.990  0.00  0.00    +0.110 C 
ATOM     12  C   LIG    1        2.320   0.167  -1.165  0.00  0.00    -0.030 A 
ENDBRANCH   1   8
BRANCH   1  13
ATOM     13  N   LIG    1        1.247  -3.929   0.852  0.00  0.00    -1.050 N 
ATOM     14  H   LIG    1        0.287  -4.068   0.853  0.00  0.00    +0.420 HD
BRANCH  13  15
ATOM     15  C   LIG    1        2.075  -4.805   0.163  0.00  0.00    +0.120 A 
ATOM     16  C   LIG    1        3.209  -5.324   0.784  0.00  0.00    -0.020 A 
ATOM     17  C   LIG    1        4.025  -6.186   0.110  0.00  0.00    +0.070 A 
ATOM     18  C   LIG    1        3.722  -6.549  -1.208  0.00  0.00    -0.140 A 
ATOM     19  C   LIG    1        2.582  -6.025  -1.829  0.00  0.00    -0.040 A 
ATOM     20  C   LIG    1        2.252  -6.412  -3.248  0.00  0.00    +0.090 C 
ATOM     21  C   LIG    1        1.768  -5.168  -1.147  0.00  0.00    -0.020 A 
BRANCH  18  22
ATOM     22  C   LIG    1        4.599  -7.477  -1.938  0.00  0.00    +0.520 C 
ATOM     23  O   LIG    1        4.312  -7.823  -3.076  0.00  0.00    -0.680 OA
ATOM     24  O   LIG    1        5.616  -7.904  -1.406  0.00  0.00    -0.690 OA
ENDBRANCH  18  22
ENDBRANCH  13  15
ENDBRANCH   1  13
TORSDOF 4
