REMARK  Name = ZINCtV000002ON8P.0
REMARK                            x       y       z     vdW  Elec       q    Type
REMARK                         _______ _______ _______ _____ _____    ______ ____
ROOT
ATOM      1  O   LIG    1        3.416   6.041  -5.774  0.00  0.00    -0.460 OA
ATOM      2  C   LIG    1        4.134   5.077  -5.958  0.00  0.00    +0.560 C 
ATOM      3  N   LIG    1        4.330   4.184  -4.968  0.00  0.00    -0.630 N 
ATOM      4  H   LIG    1        4.903   3.415  -5.115  0.00  0.00    +0.420 HD
ENDROOT
BRANCH   2   5
ATOM      5  C   LIG    1        4.790   4.885  -7.266  0.00  0.00    -0.140 A 
ATOM      6  C   LIG    1        5.620   3.780  -7.478  0.00  0.00    +0.060 A 
ATOM      7  C   LIG    1        6.226   3.601  -8.701  0.00  0.00    +0.010 A 
ATOM      8  C   LIG    1        6.022   4.523  -9.721  0.00  0.00    +0.120 A 
ATOM      9  C   LIG    1        5.202   5.626  -9.513  0.00  0.00    -0.010 A 
ATOM     10  C   LIG    1        4.588   5.809  -8.294  0.00  0.00    +0.110 A 
BRANCH   8  11
ATOM     11  O   LIG    1        6.625   4.346 -10.924  0.00  0.00    -0.260 OA
BRANCH  11  12
ATOM     12  C   LIG    1        7.587   5.233 -11.292  0.00  0.00    +0.120 A 
ATOM     13  C   LIG    1        8.012   6.208 -10.400  0.00  0.00    -0.060 A 
ATOM     14  C   LIG    1        8.993   7.105 -10.775  0.00  0.00    +0.050 A 
ATOM     15  C   LIG    1        9.544   7.039 -12.042  0.00  0.00    -0.020 A 
ATOM     16  C   LIG    1        9.119   6.072 -12.934  0.00  0.00    +0.050 A 
ATOM     17  C   LIG    1        8.142   5.169 -12.562  0.00  0.00    -0.010 A 
ENDBRANCH  11  12
ENDBRANCH   8  11
ENDBRANCH   2   5
BRANCH   3  18
ATOM     18  C   LIG    1        3.713   4.366  -3.737  0.00  0.00    +0.270 A 
ATOM     19  N   LIG    1        2.931   5.356  -3.437  0.00  0.00    -0.470 NA
ATOM     20  C   LIG    1        2.429   5.371  -2.217  0.00  0.00    +0.250 A 
ATOM     21  C   LIG    1        2.803   4.346  -1.449  0.00  0.00    -0.230 A 
ATOM     22  S   LIG    1        3.878   3.319  -2.395  0.00  0.00    +0.130 S 
BRANCH  21  23
ATOM     23  C   LIG    1        2.384   4.110  -0.021  0.00  0.00    +0.190 C 
BRANCH  23  24
ATOM     24  C   LIG    1        1.124   3.284   0.003  0.00  0.00    -0.080 A 
ATOM     25  C   LIG    1        1.202   1.905   0.042  0.00  0.00    +0.030 A 
ATOM     26  C   LIG    1        0.046   1.147   0.064  0.00  0.00    +0.020 A 
ATOM     27  C   LIG    1       -1.189   1.769   0.043  0.00  0.00    -0.040 A 
ATOM     28  C   LIG    1       -1.267   3.150   0.010  0.00  0.00    +0.020 A 
ATOM     29 CL   LIG    1       -2.641   0.818   0.065  0.00  0.00    -0.070 Cl
ATOM     30  C   LIG    1       -0.111   3.907  -0.012  0.00  0.00    +0.030 A 
ENDBRANCH  23  24
ENDBRANCH  21  23
ENDBRANCH   3  18
TORSDOF 6
