REMARK  Name = ZINCqH0000031tiF.0
REMARK                            x       y       z     vdW  Elec       q    Type
REMARK                         _______ _______ _______ _____ _____    ______ ____
ROOT
ATOM      1  N   LIG    1       -1.303  -4.578  -0.103  0.00  0.00    -0.600 N 
ATOM      2  C   LIG    1       -1.759  -3.356   0.238  0.00  0.00    +0.600 C 
ATOM      3  O   LIG    1       -2.954  -3.130   0.232  0.00  0.00    -0.520 OA
ATOM      4  C   LIG    1        0.137  -4.849  -0.099  0.00  0.00    +0.320 C 
ENDROOT
BRANCH   2   5
ATOM      5  C   LIG    1       -0.813  -2.298   0.618  0.00  0.00    -0.230 A 
ATOM      6  C   LIG    1       -1.142  -1.016   0.807  0.00  0.00    +0.140 A 
ATOM      7  C   LIG    1       -0.085  -0.165   1.166  0.00  0.00    -0.120 A 
ATOM      8  C   LIG    1       -0.115   1.227   1.431  0.00  0.00    +0.150 A 
ATOM      9  C   LIG    1        1.036   1.892   1.771  0.00  0.00    -0.020 A 
ATOM     10  C   LIG    1        2.243   1.212   1.862  0.00  0.00    +0.080 A 
ATOM     11  C   LIG    1        2.298  -0.138   1.609  0.00  0.00    +0.040 A 
ATOM     12  F   LIG    1       -1.281   1.903   1.343  0.00  0.00    -0.130 F 
ATOM     13  C   LIG    1        1.139  -0.839   1.260  0.00  0.00    -0.130 A 
ATOM     14  S   LIG    1        0.904  -2.543   0.885  0.00  0.00    +0.170 S 
ENDBRANCH   2   5
BRANCH   1  15
ATOM     15  C   LIG    1       -2.246  -5.634  -0.476  0.00  0.00    +0.340 C 
BRANCH  15  18
ATOM     16  N   LIG    1       -3.329  -6.472  -2.536  0.00  0.00    -0.670 N 
ATOM     17  H   LIG    1       -3.724  -7.181  -2.004  0.00  0.00    +0.410 HD
ATOM     18  C   LIG    1       -2.490  -5.588  -1.963  0.00  0.00    +0.490 C 
ATOM     19  O   LIG    1       -1.930  -4.754  -2.643  0.00  0.00    -0.500 OA
BRANCH  16  24
ATOM     20  C   LIG    1       -2.965  -5.843  -6.150  0.00  0.00    +0.030 A 
ATOM     21  C   LIG    1       -4.245  -6.170  -6.599  0.00  0.00    +0.020 A 
ATOM     22  C   LIG    1       -5.205  -6.592  -5.701  0.00  0.00    +0.030 A 
ATOM     23  C   LIG    1       -4.901  -6.698  -4.357  0.00  0.00    +0.000 A 
ATOM     24  C   LIG    1       -3.630  -6.369  -3.899  0.00  0.00    +0.140 A 
ATOM     25  C   LIG    1       -2.660  -5.945  -4.793  0.00  0.00    +0.040 A 
BRANCH  20  27
ATOM     26  C   LIG    1       -1.150  -5.047  -7.842  0.00  0.00    +0.060 C 
ATOM     27  C   LIG    1       -1.968  -5.406  -7.080  0.00  0.00    -0.150 C 
ENDBRANCH  20  27
ENDBRANCH  16  24
ENDBRANCH  15  18
ENDBRANCH   1  15
TORSDOF 5
