REMARK  Name = ZINCnE000001Ugif.0
REMARK                            x       y       z     vdW  Elec       q    Type
REMARK                         _______ _______ _______ _____ _____    ______ ____
ROOT
ATOM      1  S   LIG    1       -5.257   4.146   0.051  0.00  0.00    +2.600 S 
ATOM      2  O   LIG    1       -6.220   3.255  -0.493  0.00  0.00    -1.010 OA
ATOM      3  O   LIG    1       -5.000   5.436  -0.487  0.00  0.00    -1.010 OA
ENDROOT
BRANCH   1   7
ATOM      4  C   LIG    1       -1.306   1.936   0.019  0.00  0.00    -0.010 A 
ATOM      5  C   LIG    1       -1.325   3.319   0.032  0.00  0.00    +0.080 A 
ATOM      6  C   LIG    1       -2.531   3.993   0.037  0.00  0.00    +0.140 A 
ATOM      7  C   LIG    1       -3.719   3.286   0.038  0.00  0.00    -0.570 A 
ATOM      8  C   LIG    1       -3.700   1.904   0.030  0.00  0.00    +0.140 A 
ATOM      9  C   LIG    1       -2.494   1.229   0.021  0.00  0.00    +0.080 A 
BRANCH   4  11
ATOM     10  O   LIG    1        0.002  -0.004   0.002  0.00  0.00    -0.160 OA
ATOM     11  N   LIG    1       -0.014   1.214   0.009  0.00  0.00    +0.030 N 
ATOM     12  O   LIG    1        1.032   1.837   0.002  0.00  0.00    -0.160 OA
ENDBRANCH   4  11
ENDBRANCH   1   7
BRANCH   1  13
ATOM     13  N   LIG    1       -5.676   4.376   1.637  0.00  0.00    -1.080 NA
BRANCH  13  14
ATOM     14  C   LIG    1       -6.863   5.040   1.956  0.00  0.00    +0.320 A 
ATOM     15  C   LIG    1       -7.690   5.512   0.945  0.00  0.00    -0.150 A 
ATOM     16  C   LIG    1       -8.866   6.163   1.264  0.00  0.00    +0.070 A 
ATOM     17  C   LIG    1       -9.214   6.355   2.588  0.00  0.00    -0.120 A 
ATOM     18  C   LIG    1       -8.391   5.890   3.598  0.00  0.00    +0.090 A 
ATOM     19  C   LIG    1       -7.217   5.234   3.285  0.00  0.00    -0.260 A 
BRANCH  19  20
ATOM     20  C   LIG    1       -6.319   4.729   4.386  0.00  0.00    +0.530 C 
ATOM     21  F   LIG    1       -5.063   5.335   4.279  0.00  0.00    -0.180 F 
ATOM     22  F   LIG    1       -6.179   3.341   4.273  0.00  0.00    -0.180 F 
ATOM     23  F   LIG    1       -6.883   5.041   5.628  0.00  0.00    -0.200 F 
ENDBRANCH  19  20
ENDBRANCH  13  14
ENDBRANCH   1  13
TORSDOF 5
