REMARK  Name = ZINCqH00000360RM.1
REMARK                            x       y       z     vdW  Elec       q    Type
REMARK                         _______ _______ _______ _____ _____    ______ ____
ROOT
ATOM      1  N   LIG    1       -0.242   1.246   2.466  0.00  0.00    -0.660 N 
ATOM      2  H   LIG    1        0.510   0.638   2.546  0.00  0.00    +0.410 HD
ATOM      3  C   LIG    1       -0.716   1.575   1.248  0.00  0.00    +0.510 C 
ATOM      4  O   LIG    1       -1.716   2.254   1.149  0.00  0.00    -0.510 OA
ENDROOT
BRANCH   1   8
ATOM      5  C   LIG    1       -2.007   2.846   5.894  0.00  0.00    +0.150 A 
ATOM      6  C   LIG    1       -2.108   3.514   4.683  0.00  0.00    -0.090 A 
ATOM      7  C   LIG    1       -1.519   2.987   3.549  0.00  0.00    +0.110 A 
ATOM      8  C   LIG    1       -0.835   1.783   3.618  0.00  0.00    +0.080 A 
ATOM      9  C   LIG    1       -0.732   1.111   4.834  0.00  0.00    +0.140 A 
ATOM     10  C   LIG    1       -1.319   1.643   5.969  0.00  0.00    -0.080 A 
BRANCH   5  12
ATOM     11  C   LIG    1       -3.276   4.610   6.859  0.00  0.00    +0.250 C 
ATOM     12  O   LIG    1       -2.583   3.369   7.009  0.00  0.00    -0.320 OA
ENDBRANCH   5  12
BRANCH   9  13
ATOM     13  O   LIG    1       -0.057  -0.067   4.905  0.00  0.00    -0.320 OA
ATOM     14  C   LIG    1        0.008  -0.702   6.184  0.00  0.00    +0.250 C 
ENDBRANCH   9  13
ENDBRANCH   1   8
BRANCH   3  15
ATOM     15  C   LIG    1       -0.003   1.099   0.008  0.00  0.00    +0.220 C 
BRANCH  15  16
ATOM     16  N   LIG    1       -0.712   1.587  -1.182  0.00  0.00    -0.670 NA
ATOM     17  H   LIG    1       -1.679   1.299  -1.171  0.00  0.00    +0.360 HD
BRANCH  16  18
ATOM     18  C   LIG    1       -0.045   1.141  -2.412  0.00  0.00    +0.190 C 
ATOM     19  C   LIG    1        1.081   2.116  -2.764  0.00  0.00    +0.050 C 
BRANCH  18  20
ATOM     20  C   LIG    1       -1.044   1.100  -3.540  0.00  0.00    -0.130 A 
ATOM     21  C   LIG    1       -1.011   0.064  -4.454  0.00  0.00    +0.070 A 
ATOM     22  C   LIG    1       -1.926   0.023  -5.489  0.00  0.00    -0.060 A 
ATOM     23  C   LIG    1       -2.878   1.024  -5.610  0.00  0.00    +0.160 A 
ATOM     24  C   LIG    1       -2.910   2.064  -4.690  0.00  0.00    -0.130 A 
ATOM     25 BR   LIG    1       -4.208   3.430  -4.851  0.00  0.00    -0.030 Br
ATOM     26  C   LIG    1       -1.996   2.096  -3.655  0.00  0.00    +0.120 A 
BRANCH  23  27
ATOM     27  O   LIG    1       -3.780   0.986  -6.626  0.00  0.00    -0.300 OA
ATOM     28  C   LIG    1       -3.688  -0.114  -7.534  0.00  0.00    +0.250 C 
ENDBRANCH  23  27
ENDBRANCH  18  20
ENDBRANCH  16  18
ENDBRANCH  15  16
ENDBRANCH   3  15
TORSDOF 8
