REMARK  Name = ZINCvU0000000F2H.0
REMARK                            x       y       z     vdW  Elec       q    Type
REMARK                         _______ _______ _______ _____ _____    ______ ____
ROOT
ATOM      1  C   LIG    1        3.701   1.772  -0.094  0.00  0.00    +0.310 C 
ATOM      2  C   LIG    1        4.600   1.301   1.023  0.00  0.00    -0.090 A 
ATOM      3  C   LIG    1        4.538   1.341   2.382  0.00  0.00    +0.050 A 
ATOM      4  C   LIG    1        5.569   0.797   3.152  0.00  0.00    +0.010 A 
ATOM      5  C   LIG    1        6.667   0.211   2.592  0.00  0.00    +0.040 A 
ATOM      6  C   LIG    1        6.763   0.152   1.191  0.00  0.00    -0.050 A 
ATOM      7  C   LIG    1        7.838  -0.424   0.495  0.00  0.00    +0.040 A 
ATOM      8  C   LIG    1        7.816  -0.419  -0.870  0.00  0.00    +0.010 A 
ATOM      9  C   LIG    1        6.762   0.138  -1.598  0.00  0.00    +0.030 A 
ATOM     10  C   LIG    1        5.704   0.704  -0.954  0.00  0.00    -0.100 A 
ATOM     11  C   LIG    1        5.713   0.706   0.437  0.00  0.00    -0.060 A 
ATOM     12  C   LIG    1        4.428   1.381  -1.399  0.00  0.00    +0.300 C 
ENDROOT
BRANCH   1  14
ATOM     13  C   LIG    1        2.193   0.013   0.941  0.00  0.00    +0.270 C 
ATOM     14  N   LIG    1        2.401   1.102  -0.017  0.00  0.00    -0.620 N 
BRANCH  14  15
ATOM     15  C   LIG    1        1.358   1.501  -0.857  0.00  0.00    +0.210 A 
ATOM     16  C   LIG    1        0.165   0.791  -0.871  0.00  0.00    -0.080 A 
ATOM     17  C   LIG    1       -0.862   1.185  -1.707  0.00  0.00    +0.050 A 
ATOM     18  C   LIG    1       -0.707   2.292  -2.521  0.00  0.00    -0.060 A 
ATOM     19  C   LIG    1        0.480   3.001  -2.510  0.00  0.00    +0.050 A 
ATOM     20  C   LIG    1        1.513   2.609  -1.680  0.00  0.00    -0.070 A 
ENDBRANCH  14  15
ENDBRANCH   1  14
BRANCH  12  21
ATOM     21  N   LIG    1        3.606   0.453  -2.180  0.00  0.00    -1.090 NA
ATOM     22  H   LIG    1        3.107  -0.247  -1.732  0.00  0.00    +0.420 HD
BRANCH  21  23
ATOM     23  S   LIG    1        3.530   0.600  -3.828  0.00  0.00    +2.690 S 
ATOM     24  O   LIG    1        3.273   1.972  -4.096  0.00  0.00    -0.940 OA
ATOM     25  O   LIG    1        2.692  -0.452  -4.286  0.00  0.00    -0.950 OA
BRANCH  23  26
ATOM     26  C   LIG    1        5.141   0.263  -4.457  0.00  0.00    -0.680 A 
ATOM     27  C   LIG    1        6.049   1.293  -4.618  0.00  0.00    +0.140 A 
ATOM     28  C   LIG    1        7.315   1.028  -5.106  0.00  0.00    +0.020 A 
ATOM     29  C   LIG    1        7.669  -0.266  -5.445  0.00  0.00    +0.020 A 
ATOM     30  C   LIG    1        6.757  -1.295  -5.288  0.00  0.00    +0.020 A 
ATOM     31 CL   LIG    1        9.255  -0.598  -6.066  0.00  0.00    -0.050 Cl
ATOM     32  C   LIG    1        5.494  -1.030  -4.794  0.00  0.00    +0.150 A 
ENDBRANCH  23  26
ENDBRANCH  21  23
ENDBRANCH  12  21
TORSDOF 5
