REMARK  Name = ZINCkj00000hdeJQ.0
REMARK                            x       y       z     vdW  Elec       q    Type
REMARK                         _______ _______ _______ _____ _____    ______ ____
ROOT
ATOM      1  C   LIG    1       -3.486   2.113   0.922  0.00  0.00    -0.010 C 
ATOM      2  C   LIG    1       -3.133   2.525   2.359  0.00  0.00    +0.100 C 
ATOM      3  C   LIG    1       -3.271   3.985   1.897  0.00  0.00    +0.060 C 
ATOM      4  C   LIG    1       -2.497   1.110   0.299  0.00  0.00    +0.310 C 
ATOM      5  N   LIG    1       -1.212   1.808   0.176  0.00  0.00    -0.620 N 
ATOM      6  C   LIG    1       -0.014   1.211   0.009  0.00  0.00    +0.590 C 
ATOM      7  O   LIG    1        0.049   0.007  -0.140  0.00  0.00    -0.500 OA
ATOM      8  C   LIG    1       -1.434   3.255   0.258  0.00  0.00    +0.290 C 
ATOM      9  C   LIG    1       -2.937   3.492   0.479  0.00  0.00    +0.020 C 
ENDROOT
BRANCH   6  10
ATOM     10  C   LIG    1        1.221   2.023   0.000  0.00  0.00    -0.140 A 
ATOM     11  C   LIG    1        1.434   2.980   0.992  0.00  0.00    +0.040 A 
ATOM     12  C   LIG    1        2.590   3.733   0.978  0.00  0.00    +0.020 A 
ATOM     13  C   LIG    1        3.530   3.540  -0.016  0.00  0.00    +0.060 A 
ATOM     14  C   LIG    1        3.324   2.592  -1.009  0.00  0.00    -0.120 A 
ATOM     15  C   LIG    1        4.372   2.428  -2.079  0.00  0.00    +0.280 C 
ATOM     16  O   LIG    1        4.187   1.186  -2.764  0.00  0.00    -0.370 OA
ATOM     17  C   LIG    1        2.851   1.011  -3.248  0.00  0.00    +0.230 C 
ATOM     18  C   LIG    1        1.929   0.776  -2.050  0.00  0.00    +0.060 C 
ATOM     19  C   LIG    1        2.180   1.828  -1.000  0.00  0.00    -0.020 A 
ENDBRANCH   6  10
BRANCH   1  20
ATOM     20  N   LIG    1       -4.908   1.853   0.657  0.00  0.00    -0.600 N 
ATOM     21  H   LIG    1       -5.470   2.539   1.137  0.00  0.00    +0.440 HD
ATOM     22  H   LIG    1       -5.148   0.930   0.988  0.00  0.00    +0.440 HD
ATOM     23  H   LIG    1       -5.081   1.911  -0.335  0.00  0.00    +0.440 HD
ENDBRANCH   1  20
TORSDOF 2
