REMARK  Name = ZINCkj000005h9Ws.0
REMARK                            x       y       z     vdW  Elec       q    Type
REMARK                         _______ _______ _______ _____ _____    ______ ____
ROOT
ATOM      1  C   LIG    1       -4.603  -0.852  -0.833  0.00  0.00    +0.150 C 
ATOM      2  C   LIG    1       -4.917   0.641  -0.714  0.00  0.00    +0.040 C 
ATOM      3  C   LIG    1       -3.639   1.453  -0.939  0.00  0.00    +0.050 C 
ATOM      4  C   LIG    1       -2.611   1.088   0.137  0.00  0.00    +0.300 C 
ATOM      5  N   LIG    1       -2.411  -0.368   0.126  0.00  0.00    -0.600 N 
ATOM      6  C   LIG    1       -1.175  -0.890   0.009  0.00  0.00    +0.620 C 
ATOM      7  O   LIG    1       -1.032  -2.090  -0.131  0.00  0.00    -0.540 OA
ATOM      8  C   LIG    1       -3.586  -1.243   0.239  0.00  0.00    +0.300 C 
ENDROOT
BRANCH   6   9
ATOM      9  C   LIG    1        0.005  -0.009   0.052  0.00  0.00    -0.080 A 
ATOM     10  C   LIG    1        1.297  -0.378  -0.191  0.00  0.00    +0.240 A 
ATOM     11  N   LIG    1        2.052   0.730  -0.046  0.00  0.00    -0.450 N 
ATOM     12  C   LIG    1        3.505   0.848  -0.206  0.00  0.00    +0.300 C 
ATOM     13  C   LIG    1        3.865   2.328  -0.372  0.00  0.00    +0.040 C 
ATOM     14  C   LIG    1        3.213   3.142   0.749  0.00  0.00    +0.030 C 
ATOM     15  C   LIG    1        1.695   3.175   0.534  0.00  0.00    +0.160 C 
ATOM     16  C   LIG    1        1.223   1.761   0.283  0.00  0.00    +0.230 A 
ATOM     17  N   LIG    1        0.004   1.319   0.340  0.00  0.00    -0.460 NA
ENDBRANCH   6   9
BRANCH   1  19
ATOM     18  C   LIG    1       -6.812  -1.250  -1.679  0.00  0.00    +0.330 C 
ATOM     19  N   LIG    1       -5.836  -1.628  -0.648  0.00  0.00    -0.380 N 
ATOM     20  C   LIG    1       -5.534  -3.061  -0.762  0.00  0.00    +0.330 C 
ATOM     21  H   LIG    1       -6.220  -1.437   0.266  0.00  0.00    +0.430 HD
ENDBRANCH   1  19
TORSDOF 2
