REMARK  Name = ZINCqH0000004MgG.0
REMARK                            x       y       z     vdW  Elec       q    Type
REMARK                         _______ _______ _______ _____ _____    ______ ____
ROOT
ATOM      1  N   LIG    1       -5.269  -4.737  -0.170  0.00  0.00    -0.530 NA
ATOM      2  C   LIG    1       -4.598  -4.421   1.098  0.00  0.00    +0.170 C 
ATOM      3  C   LIG    1       -4.325  -2.915   1.167  0.00  0.00    +0.300 C 
ATOM      4  N   LIG    1       -3.588  -2.518  -0.043  0.00  0.00    -0.610 N 
ATOM      5  C   LIG    1       -4.133  -2.914  -1.351  0.00  0.00    +0.270 C 
ATOM      6  C   LIG    1       -2.448  -1.805   0.044  0.00  0.00    +0.600 C 
ATOM      7  O   LIG    1       -1.960  -1.570   1.134  0.00  0.00    -0.520 OA
ATOM      8  C   LIG    1       -4.410  -4.426  -1.320  0.00  0.00    +0.170 C 
ENDROOT
BRANCH   6   9
ATOM      9  C   LIG    1       -1.795  -1.313  -1.173  0.00  0.00    -0.300 A 
ATOM     10  C   LIG    1       -0.458  -1.252  -1.396  0.00  0.00    +0.160 A 
ATOM     11  N   LIG    1       -0.130  -0.767  -2.567  0.00  0.00    -0.460 NA
ATOM     12  C   LIG    1       -1.094  -0.420  -3.358  0.00  0.00    +0.240 A 
ATOM     13  S   LIG    1       -2.607  -0.696  -2.610  0.00  0.00    +0.170 S 
BRANCH  10  14
ATOM     14  C   LIG    1        0.562  -1.699  -0.380  0.00  0.00    +0.070 C 
ATOM     15  C   LIG    1        1.477  -0.522   0.000  0.00  0.00    +0.020 C 
ATOM     16  C   LIG    1        2.912  -0.936  -0.390  0.00  0.00    +0.020 C 
ATOM     17  C   LIG    1        2.871  -2.485  -0.398  0.00  0.00    +0.020 C 
ATOM     18  C   LIG    1        1.471  -2.787  -0.987  0.00  0.00    +0.020 C 
ENDBRANCH  10  14
ENDBRANCH   6   9
BRANCH   1  19
ATOM     19  C   LIG    1       -5.701  -6.141  -0.201  0.00  0.00    +0.280 C 
BRANCH  19  22
ATOM     20  C   LIG    1       -8.547  -6.351  -2.459  0.00  0.00    +0.060 A 
ATOM     21  N   LIG    1       -7.888  -6.125  -1.373  0.00  0.00    -0.460 NA
ATOM     22  C   LIG    1       -6.593  -6.365  -1.395  0.00  0.00    +0.080 A 
ATOM     23  C   LIG    1       -6.135  -6.829  -2.562  0.00  0.00    -0.090 A 
ATOM     24  S   LIG    1       -7.497  -6.940  -3.674  0.00  0.00    +0.120 S 
BRANCH  20  26
ATOM     25  C   LIG    1      -10.281  -4.710  -3.129  0.00  0.00    +0.040 C 
ATOM     26  C   LIG    1      -10.028  -6.134  -2.631  0.00  0.00    +0.140 C 
ENDBRANCH  20  26
ENDBRANCH  19  22
ENDBRANCH   1  19
TORSDOF 5
