REMARK  Name = ZINCah0000006ljo.0
REMARK                            x       y       z     vdW  Elec       q    Type
REMARK                         _______ _______ _______ _____ _____    ______ ____
ROOT
ATOM      1  C   LIG    1       -0.019   1.526   0.010  0.00  0.00    +0.050 C 
ATOM      2  C   LIG    1        0.002  -0.004   0.002  0.00  0.00    +0.200 C 
ATOM      3  O   LIG    1        0.790  -0.519  -1.107  0.00  0.00    -0.350 OA
ATOM      4  C   LIG    1        1.865  -1.230  -0.419  0.00  0.00    +0.070 C 
ATOM      5  C   LIG    1        1.138  -2.014   0.700  0.00  0.00    +0.050 C 
ATOM      6  C   LIG    1        2.914  -1.938  -1.280  0.00  0.00    +0.110 C 
ATOM      7  C   LIG    1        2.339  -0.351   0.805  0.00  0.00    +0.060 C 
ATOM      8  C   LIG    1        0.845  -0.573   1.196  0.00  0.00    -0.210 C 
ENDROOT
BRANCH   8   9
ATOM      9  C   LIG    1        0.376  -0.309   2.603  0.00  0.00    +0.490 C 
ATOM     10  O   LIG    1       -0.673   0.259   2.794  0.00  0.00    -0.450 OA
ENDBRANCH   8   9
TORSDOF 1
