REMARK  Name = ZINCpk00000eaUTE.0
REMARK                            x       y       z     vdW  Elec       q    Type
REMARK                         _______ _______ _______ _____ _____    ______ ____
ROOT
ATOM      1  S   LIG    1       -0.005   1.440   0.010  0.00  0.00    +2.700 S 
ATOM      2  O   LIG    1        1.355   1.735   0.294  0.00  0.00    -0.950 OA
ATOM      3  O   LIG    1       -0.459   0.144  -0.356  0.00  0.00    -0.940 OA
ENDROOT
BRANCH   1   9
ATOM      4  C   LIG    1       -4.044   0.822   3.269  0.00  0.00    +0.090 C 
ATOM      5  C   LIG    1       -2.793   1.577   2.900  0.00  0.00    -0.110 A 
ATOM      6  C   LIG    1       -2.367   2.634   3.682  0.00  0.00    +0.080 A 
ATOM      7  C   LIG    1       -1.219   3.325   3.344  0.00  0.00    -0.110 A 
ATOM      8  C   LIG    1       -0.498   2.961   2.222  0.00  0.00    +0.020 A 
ATOM      9  C   LIG    1       -0.924   1.904   1.440  0.00  0.00    -0.680 A 
ATOM     10  C   LIG    1        0.753   3.716   1.852  0.00  0.00    +0.110 C 
ATOM     11  C   LIG    1       -0.754   4.477   4.197  0.00  0.00    +0.100 C 
ATOM     12  C   LIG    1       -2.075   1.215   1.776  0.00  0.00    +0.020 A 
ATOM     13  C   LIG    1       -2.543   0.067   0.919  0.00  0.00    +0.100 C 
ENDBRANCH   1   9
BRANCH   1  14
ATOM     14  N   LIG    1       -0.458   2.457  -1.216  0.00  0.00    -1.110 NA
ATOM     15  H   LIG    1       -0.920   2.105  -1.993  0.00  0.00    +0.430 HD
BRANCH  14  16
ATOM     16  C   LIG    1       -0.162   3.889  -1.127  0.00  0.00    +0.370 C 
BRANCH  16  17
ATOM     17  C   LIG    1       -0.331   4.522  -2.484  0.00  0.00    +0.460 C 
ATOM     18  O   LIG    1       -0.664   3.847  -3.428  0.00  0.00    -0.480 OA
BRANCH  17  19
ATOM     19  O   LIG    1       -0.111   5.837  -2.643  0.00  0.00    -0.330 OA
BRANCH  19  20
ATOM     20  C   LIG    1       -0.293   6.379  -3.977  0.00  0.00    +0.160 C 
ATOM     21  C   LIG    1        0.617   7.610  -4.187  0.00  0.00    +0.070 C 
ATOM     22  C   LIG    1       -0.393   8.748  -4.449  0.00  0.00    +0.180 C 
ATOM     23  O   LIG    1       -1.671   8.243  -3.957  0.00  0.00    -0.340 OA
ATOM     24  C   LIG    1        0.015  10.007  -3.682  0.00  0.00    +0.080 C 
ATOM     25  C   LIG    1       -1.702   6.908  -4.145  0.00  0.00    +0.470 C 
ATOM     26  O   LIG    1       -2.681   6.249  -4.403  0.00  0.00    -0.420 OA
ENDBRANCH  19  20
ENDBRANCH  17  19
ENDBRANCH  16  17
ENDBRANCH  14  16
ENDBRANCH   1  14
TORSDOF 6
