REMARK  Name = ZINCtV00000L6keV.0
REMARK                            x       y       z     vdW  Elec       q    Type
REMARK                         _______ _______ _______ _____ _____    ______ ____
ROOT
ATOM      1  C   LIG    1        0.569   3.746  -0.074  0.00  0.00    -0.060 A 
ATOM      2  C   LIG    1        1.115   2.447   0.027  0.00  0.00    +0.020 A 
ATOM      3  C   LIG    1        0.040   1.571   0.196  0.00  0.00    -0.150 A 
ATOM      4  C   LIG    1       -1.095   2.325   0.108  0.00  0.00    +0.210 A 
ATOM      5  N   LIG    1       -2.500   2.241   0.115  0.00  0.00    -0.500 N 
ATOM      6  C   LIG    1       -2.974   3.457   0.463  0.00  0.00    +0.360 A 
ATOM      7  N   LIG    1       -1.985   4.321   0.442  0.00  0.00    -0.280 NA
ATOM      8  C   LIG    1       -3.092   0.987  -0.334  0.00  0.00    +0.310 C 
ATOM      9  C   LIG    1       -2.411  -0.171   0.344  0.00  0.00    +0.030 C 
ATOM     10  C   LIG    1       -1.103  -0.572  -0.243  0.00  0.00    +0.010 C 
ATOM     11  C   LIG    1        0.119   0.069   0.409  0.00  0.00    +0.110 C 
ATOM     12  N   LIG    1       -0.793   3.644   0.158  0.00  0.00    -0.270 N 
ENDROOT
BRANCH   6  13
ATOM     13  C   LIG    1       -4.379   3.766   0.810  0.00  0.00    -0.030 A 
ATOM     14  C   LIG    1       -5.267   2.736   1.119  0.00  0.00    +0.050 A 
ATOM     15  C   LIG    1       -6.574   3.030   1.448  0.00  0.00    +0.060 A 
ATOM     16  C   LIG    1       -7.008   4.345   1.462  0.00  0.00    -0.070 A 
ATOM     17  C   LIG    1       -6.132   5.372   1.151  0.00  0.00    +0.060 A 
ATOM     18 BR   LIG    1       -8.803   4.740   1.906  0.00  0.00    -0.030 Br
ATOM     19  C   LIG    1       -4.822   5.089   0.826  0.00  0.00    +0.090 A 
ENDBRANCH   6  13
BRANCH   2  20
ATOM     20  C   LIG    1        2.550   2.084  -0.034  0.00  0.00    -0.020 A 
ATOM     21  C   LIG    1        3.183   1.543   1.085  0.00  0.00    +0.030 A 
ATOM     22  C   LIG    1        4.519   1.202   1.020  0.00  0.00    +0.000 A 
ATOM     23  C   LIG    1        5.232   1.407  -0.147  0.00  0.00    -0.080 A 
ATOM     24  C   LIG    1        4.611   1.948  -1.258  0.00  0.00    +0.000 A 
ATOM     25  C   LIG    1        6.692   1.038  -0.209  0.00  0.00    +0.090 C 
ATOM     26  C   LIG    1        3.274   2.288  -1.208  0.00  0.00    +0.050 A 
ENDBRANCH   2  20
BRANCH   1  28
ATOM     27  C   LIG    1        0.545   6.237  -0.432  0.00  0.00    +0.060 C 
ATOM     28  C   LIG    1        1.274   4.920  -0.357  0.00  0.00    +0.410 C 
ATOM     29  O   LIG    1        2.475   4.878  -0.543  0.00  0.00    -0.460 OA
ENDBRANCH   1  28
TORSDOF 3
