REMARK  Name = ZINCqH0000007RlW.0
REMARK                            x       y       z     vdW  Elec       q    Type
REMARK                         _______ _______ _______ _____ _____    ______ ____
ROOT
ATOM      1  N   LIG    1        4.062  -1.652   1.387  0.00  0.00    -0.990 NA
ATOM      2  C   LIG    1        4.682  -1.031   2.566  0.00  0.00    +0.290 C 
ATOM      3  C   LIG    1        3.699  -1.126   3.742  0.00  0.00    +0.020 C 
ATOM      4  C   LIG    1        3.293  -2.588   3.943  0.00  0.00    +0.070 C 
ATOM      5  C   LIG    1        2.589  -3.101   2.685  0.00  0.00    +0.020 C 
ATOM      6  C   LIG    1        3.554  -3.026   1.498  0.00  0.00    +0.290 C 
ENDROOT
BRANCH   4   7
ATOM      7  C   LIG    1        2.357  -2.691   5.120  0.00  0.00    -0.160 A 
ATOM      8  C   LIG    1        1.164  -2.089   5.247  0.00  0.00    +0.210 A 
ATOM      9  N   LIG    1        0.601  -2.417   6.450  0.00  0.00    -0.600 N 
ATOM     10  H   LIG    1       -0.260  -2.103   6.766  0.00  0.00    +0.420 HD
ATOM     11  C   LIG    1        1.440  -3.259   7.145  0.00  0.00    +0.100 A 
ATOM     12  C   LIG    1        1.360  -3.879   8.387  0.00  0.00    -0.010 A 
ATOM     13  C   LIG    1        2.390  -4.688   8.816  0.00  0.00    +0.020 A 
ATOM     14  C   LIG    1        3.510  -4.890   8.021  0.00  0.00    -0.030 A 
ATOM     15  C   LIG    1        3.609  -4.290   6.797  0.00  0.00    +0.050 A 
ATOM     16  C   LIG    1        2.574  -3.473   6.340  0.00  0.00    -0.100 A 
ENDBRANCH   4   7
BRANCH   1  17
ATOM     17  S   LIG    1        3.944  -0.821  -0.041  0.00  0.00    +2.700 S 
ATOM     18  O   LIG    1        4.956   0.175  -0.010  0.00  0.00    -0.960 OA
ATOM     19  O   LIG    1        3.847  -1.799  -1.067  0.00  0.00    -0.940 OA
BRANCH  17  25
ATOM     20  C   LIG    1        1.213  -0.680  -0.013  0.00  0.00    +0.230 A 
ATOM     21  C   LIG    1        0.002  -0.004   0.002  0.00  0.00    -0.090 A 
ATOM     22  C   LIG    1       -0.017   1.377   0.010  0.00  0.00    +0.100 A 
ATOM     23  C   LIG    1        1.170   2.086   0.002  0.00  0.00    -0.050 A 
ATOM     24  C   LIG    1        2.379   1.415  -0.013  0.00  0.00    +0.160 A 
ATOM     25  C   LIG    1        2.403   0.034  -0.021  0.00  0.00    -0.710 A 
BRANCH  20  27
ATOM     26  C   LIG    1       -0.029  -2.707  -0.013  0.00  0.00    +0.250 C 
ATOM     27  O   LIG    1        1.234  -2.039  -0.021  0.00  0.00    -0.310 OA
ENDBRANCH  20  27
ENDBRANCH  17  25
ENDBRANCH   1  17
TORSDOF 4
