REMARK  Name = ZINCpk00001AZj6P.1
REMARK                            x       y       z     vdW  Elec       q    Type
REMARK                         _______ _______ _______ _____ _____    ______ ____
ROOT
ATOM      1  C   LIG    1       -1.376  -0.512   0.012  0.00  0.00    +0.170 C 
ATOM      2  C   LIG    1       -2.053  -0.124   1.328  0.00  0.00    +0.050 C 
ATOM      3  C   LIG    1       -1.277  -0.730   2.499  0.00  0.00    +0.020 C 
ATOM      4  C   LIG    1       -1.259  -2.254   2.365  0.00  0.00    +0.030 C 
ATOM      5  C   LIG    1       -0.582  -2.643   1.049  0.00  0.00    +0.030 C 
ATOM      6  C   LIG    1       -1.358  -2.037  -0.122  0.00  0.00    +0.030 C 
ENDROOT
BRANCH   1   7
ATOM      7  N   LIG    1        0.002  -0.004   0.002  0.00  0.00    -0.510 N 
ATOM      8  H   LIG    1        0.490  -0.338   0.820  0.00  0.00    +0.430 HD
ATOM      9  H   LIG    1        0.474  -0.330  -0.828  0.00  0.00    +0.410 HD
BRANCH   7  10
ATOM     10  C   LIG    1       -0.018   1.465   0.010  0.00  0.00    +0.340 C 
BRANCH  10  16
ATOM     11  C   LIG    1        3.871   2.923  -2.551  0.00  0.00    +0.100 C 
ATOM     12  C   LIG    1        3.233   2.675  -1.209  0.00  0.00    -0.000 A 
ATOM     13  C   LIG    1        3.950   2.930  -0.055  0.00  0.00    +0.030 A 
ATOM     14  C   LIG    1        3.356   2.700   1.175  0.00  0.00    -0.100 A 
ATOM     15  C   LIG    1        2.050   2.223   1.200  0.00  0.00    +0.250 A 
ATOM     16  C   LIG    1        1.396   1.986  -0.001  0.00  0.00    -0.130 A 
ATOM     17  O   LIG    1        1.424   1.988   2.384  0.00  0.00    -0.700 OA
ATOM     18  N   LIG    1        1.997   2.218  -1.151  0.00  0.00    -0.430 NA
ENDBRANCH  10  16
ENDBRANCH   7  10
ENDBRANCH   1   7
BRANCH   6  19
ATOM     19  C   LIG    1       -0.681  -2.425  -1.438  0.00  0.00    +0.140 C 
BRANCH  19  20
ATOM     20  C   LIG    1       -0.773  -3.917  -1.628  0.00  0.00    +0.270 A 
ATOM     21  N   LIG    1       -1.330  -4.748  -0.808  0.00  0.00    -0.270 NA
ATOM     22  N   LIG    1       -1.210  -6.038  -1.344  0.00  0.00    -0.450 N 
ATOM     23  C   LIG    1       -0.548  -5.925  -2.515  0.00  0.00    +0.640 A 
ATOM     24  O   LIG    1       -0.252  -6.837  -3.267  0.00  0.00    -0.550 OA
ATOM     25  C   LIG    1       -1.707  -7.278  -0.744  0.00  0.00    +0.380 C 
ATOM     26  N   LIG    1       -0.273  -4.618  -2.699  0.00  0.00    -0.550 N 
ATOM     27  C   LIG    1        0.437  -4.044  -3.844  0.00  0.00    +0.350 C 
ENDBRANCH  19  20
ENDBRANCH   6  19
TORSDOF 5
