REMARK  Name = ZINCvU00000009sP.0
REMARK                            x       y       z     vdW  Elec       q    Type
REMARK                         _______ _______ _______ _____ _____    ______ ____
ROOT
ATOM      1  C   LIG    1       -0.881  -3.735   0.202  0.00  0.00    +0.260 A 
ATOM      2  N   LIG    1       -0.263  -2.602   0.104  0.00  0.00    -0.380 NA
ATOM      3  C   LIG    1        1.073  -2.668   0.074  0.00  0.00    +0.050 A 
ATOM      4  C   LIG    1        1.581  -3.935   0.163  0.00  0.00    -0.030 A 
ATOM      5  S   LIG    1        0.288  -5.047   0.280  0.00  0.00    +0.180 S 
ENDROOT
BRANCH   3   6
ATOM      6  C   LIG    1        1.894  -1.519  -0.035  0.00  0.00    +0.250 C 
ATOM      7  C   LIG    1        1.323  -0.259  -0.042  0.00  0.00    -0.060 C 
ATOM      8  N   LIG    1        1.952   0.931  -0.268  0.00  0.00    -0.450 NA
ATOM      9  C   LIG    1        1.077   1.896  -0.190  0.00  0.00    +0.330 C 
ATOM     10  O   LIG    1       -0.154   1.425   0.085  0.00  0.00    -0.300 OA
ATOM     11  C   LIG    1       -0.088   0.080   0.194  0.00  0.00    +0.460 C 
ATOM     12  O   LIG    1       -1.002  -0.687   0.436  0.00  0.00    -0.360 OA
BRANCH   9  13
ATOM     13  C   LIG    1        1.397   3.325  -0.380  0.00  0.00    -0.020 A 
ATOM     14  C   LIG    1        0.392   4.289  -0.277  0.00  0.00    +0.070 A 
ATOM     15  C   LIG    1        0.698   5.622  -0.456  0.00  0.00    +0.030 A 
ATOM     16  C   LIG    1        1.997   6.006  -0.736  0.00  0.00    +0.060 A 
ATOM     17  C   LIG    1        2.999   5.057  -0.839  0.00  0.00    +0.040 A 
ATOM     18  C   LIG    1        2.709   3.720  -0.657  0.00  0.00    -0.050 A 
ATOM     19 BR   LIG    1        4.081   2.426  -0.790  0.00  0.00    -0.000 Br
ENDBRANCH   9  13
ENDBRANCH   3   6
BRANCH   1  22
ATOM     20  C   LIG    1       -2.228  -4.191  -2.209  0.00  0.00    +0.110 C 
ATOM     21  C   LIG    1       -2.946  -4.154  -0.884  0.00  0.00    +0.530 C 
ATOM     22  N   LIG    1       -2.261  -3.891   0.246  0.00  0.00    -0.480 N 
ATOM     23  O   LIG    1       -4.140  -4.362  -0.836  0.00  0.00    -0.500 OA
BRANCH  22  24
ATOM     24  C   LIG    1       -2.941  -3.775   1.466  0.00  0.00    +0.120 A 
ATOM     25  C   LIG    1       -3.412  -2.538   1.884  0.00  0.00    +0.040 A 
ATOM     26  C   LIG    1       -4.087  -2.427   3.084  0.00  0.00    +0.010 A 
ATOM     27  C   LIG    1       -4.282  -3.545   3.874  0.00  0.00    +0.030 A 
ATOM     28  C   LIG    1       -3.808  -4.777   3.463  0.00  0.00    -0.080 A 
ATOM     29  C   LIG    1       -4.024  -5.993   4.328  0.00  0.00    +0.090 C 
ATOM     30  C   LIG    1       -3.139  -4.896   2.261  0.00  0.00    -0.070 A 
ATOM     31  C   LIG    1       -2.624  -6.239   1.814  0.00  0.00    +0.090 C 
ENDBRANCH  22  24
ENDBRANCH   1  22
TORSDOF 4
