REMARK  Name = ZINC9p0000001xmr.0
REMARK                            x       y       z     vdW  Elec       q    Type
REMARK                         _______ _______ _______ _____ _____    ______ ____
ROOT
ATOM      1  C   LIG    1       -0.869   1.650  -0.996  0.00  0.00    +0.180 C 
ATOM      2  C   LIG    1       -2.234   0.933  -1.022  0.00  0.00    +0.040 C 
ATOM      3  C   LIG    1       -3.249   1.861  -1.633  0.00  0.00    +0.030 C 
ATOM      4  C   LIG    1       -3.422   1.631  -3.147  0.00  0.00    +0.010 C 
ATOM      5  C   LIG    1       -2.083   1.401  -3.872  0.00  0.00    +0.000 C 
ATOM      6  C   LIG    1       -1.000   2.328  -3.390  0.00  0.00    +0.050 C 
ATOM      7  C   LIG    1       -0.197   1.610  -2.286  0.00  0.00    +0.020 C 
ENDROOT
BRANCH   1   9
ATOM      8  C   LIG    1        1.211   1.799   0.191  0.00  0.00    +0.320 C 
ATOM      9  N   LIG    1       -0.012   1.005   0.008  0.00  0.00    -0.510 N 
ATOM     10  H   LIG    1        0.233   0.077  -0.306  0.00  0.00    +0.430 HD
ATOM     11  H   LIG    1       -0.507   0.944   0.884  0.00  0.00    +0.430 HD
ENDBRANCH   1   9
TORSDOF 1
