REMARK  Name = ZINCrD0000072pgV.0
REMARK                            x       y       z     vdW  Elec       q    Type
REMARK                         _______ _______ _______ _____ _____    ______ ____
ROOT
ATOM      1  C   LIG    1        1.127  -2.142  -0.020  0.00  0.00    +0.510 C 
ATOM      2  N   LIG    1        2.207  -2.949  -0.035  0.00  0.00    -0.630 N 
ATOM      3  H   LIG    1        3.098  -2.566  -0.041  0.00  0.00    +0.420 HD
ATOM      4  O   LIG    1        0.013  -2.621  -0.012  0.00  0.00    -0.470 OA
ENDROOT
BRANCH   2   5
ATOM      5  C   LIG    1        2.044  -4.327  -0.041  0.00  0.00    +0.050 A 
ATOM      6  C   LIG    1        3.069  -5.230  -0.055  0.00  0.00    -0.100 A 
ATOM      7  C   LIG    1        2.621  -6.610  -0.058  0.00  0.00    -0.040 A 
ATOM      8  C   LIG    1        1.286  -6.712  -0.046  0.00  0.00    -0.240 A 
ATOM      9  C   LIG    1        0.529  -8.027  -0.046  0.00  0.00    +0.120 C 
ATOM     10  C   LIG    1        1.492  -9.148   0.355  0.00  0.00    -0.010 C 
ATOM     11  C   LIG    1        2.760  -9.047  -0.497  0.00  0.00    +0.030 C 
ATOM     12  C   LIG    1        0.823 -10.504   0.123  0.00  0.00    +0.030 C 
ATOM     13  C   LIG    1        3.554  -7.810  -0.073  0.00  0.00    +0.100 C 
ATOM     14  S   LIG    1        0.539  -5.123  -0.023  0.00  0.00    +0.320 S 
BRANCH   6  15
ATOM     15  C   LIG    1        4.450  -4.852  -0.067  0.00  0.00    +0.270 C 
ATOM     16  N   LIG    1        5.545  -4.551  -0.076  0.00  0.00    -0.420 NA
ENDBRANCH   6  15
ENDBRANCH   2   5
BRANCH   1  17
ATOM     17  C   LIG    1        1.305  -0.646  -0.014  0.00  0.00    +0.290 C 
BRANCH  17  18
ATOM     18  O   LIG    1        0.002  -0.004   0.002  0.00  0.00    -0.320 OA
BRANCH  18  19
ATOM     19  C   LIG    1       -0.016   1.343   0.009  0.00  0.00    +0.560 C 
ATOM     20  O   LIG    1        1.028   1.965   0.003  0.00  0.00    -0.480 OA
BRANCH  19  26
ATOM     21  C   LIG    1       -2.107   2.516  -1.125  0.00  0.00    +0.070 A 
ATOM     22  N   LIG    1       -3.148   3.096  -0.603  0.00  0.00    -0.340 NA
ATOM     23  O   LIG    1       -3.125   3.080   0.603  0.00  0.00    +0.100 OA
ATOM     24  C   LIG    1       -2.047   2.469   1.100  0.00  0.00    +0.050 A 
ATOM     25  C   LIG    1       -1.713   2.269   2.555  0.00  0.00    +0.200 C 
ATOM     26  C   LIG    1       -1.301   2.062   0.019  0.00  0.00    -0.250 A 
BRANCH  21  28
ATOM     27  C   LIG    1       -2.391   1.029  -3.088  0.00  0.00    +0.040 C 
ATOM     28  C   LIG    1       -1.794   2.346  -2.589  0.00  0.00    +0.130 C 
ENDBRANCH  21  28
ENDBRANCH  19  26
ENDBRANCH  18  19
ENDBRANCH  17  18
ENDBRANCH   1  17
TORSDOF 7
