REMARK  Name = ZINCqH00000074gu.0
REMARK                            x       y       z     vdW  Elec       q    Type
REMARK                         _______ _______ _______ _____ _____    ______ ____
ROOT
ATOM      1  C   LIG    1       -1.502   4.605  -0.330  0.00  0.00    +0.570 C 
ATOM      2  N   LIG    1       -0.575   3.803   0.231  0.00  0.00    -0.660 N 
ATOM      3  H   LIG    1       -0.850   3.006   0.710  0.00  0.00    +0.410 HD
ATOM      4  O   LIG    1       -1.165   5.646  -0.862  0.00  0.00    -0.520 OA
ENDROOT
BRANCH   1   8
ATOM      5  C   LIG    1       -5.603   3.494  -0.235  0.00  0.00    +0.130 A 
ATOM      6  C   LIG    1       -4.647   2.669   0.342  0.00  0.00    -0.040 A 
ATOM      7  C   LIG    1       -3.315   3.024   0.308  0.00  0.00    +0.060 A 
ATOM      8  C   LIG    1       -2.927   4.221  -0.298  0.00  0.00    -0.140 A 
ATOM      9  C   LIG    1       -3.889   5.052  -0.878  0.00  0.00    +0.040 A 
ATOM     10  C   LIG    1       -5.221   4.688  -0.846  0.00  0.00    +0.090 A 
BRANCH   5  12
ATOM     11  C   LIG    1       -7.234   1.901   0.438  0.00  0.00    +0.240 C 
ATOM     12  O   LIG    1       -6.913   3.137  -0.204  0.00  0.00    -0.300 OA
ENDBRANCH   5  12
BRANCH  10  13
ATOM     13  O   LIG    1       -6.161   5.494  -1.410  0.00  0.00    -0.300 OA
ATOM     14  C   LIG    1       -5.699   6.701  -2.018  0.00  0.00    +0.240 C 
ENDBRANCH  10  13
ENDBRANCH   1   8
BRANCH   2  15
ATOM     15  C   LIG    1        0.783   4.121   0.122  0.00  0.00    +0.160 A 
ATOM     16  C   LIG    1        1.189   5.448   0.126  0.00  0.00    +0.040 A 
ATOM     17  C   LIG    1        2.532   5.759   0.018  0.00  0.00    +0.050 A 
ATOM     18  C   LIG    1        3.473   4.752  -0.094  0.00  0.00    +0.020 A 
ATOM     19  C   LIG    1        3.077   3.428  -0.093  0.00  0.00    +0.030 A 
ATOM     20  C   LIG    1        1.732   3.106   0.009  0.00  0.00    +0.120 A 
BRANCH  20  21
ATOM     21  N   LIG    1        1.328   1.763   0.004  0.00  0.00    -0.330 N 
ATOM     22  N   LIG    1        0.315   1.209  -0.789  0.00  0.00    -0.290 NA
ATOM     23  C   LIG    1        0.231  -0.068  -0.514  0.00  0.00    +0.080 A 
ATOM     24  C   LIG    1        1.187  -0.369   0.462  0.00  0.00    -0.120 A 
ATOM     25  C   LIG    1       -0.730  -1.045  -1.140  0.00  0.00    +0.160 C 
ATOM     26  C   LIG    1        1.848   0.773   0.764  0.00  0.00    +0.090 A 
ATOM     27  C   LIG    1        2.964   0.915   1.767  0.00  0.00    +0.140 C 
ENDBRANCH  20  21
ENDBRANCH   2  15
TORSDOF 5
