REMARK  Name = ZINCqH0000001zwS.0
REMARK                            x       y       z     vdW  Elec       q    Type
REMARK                         _______ _______ _______ _____ _____    ______ ____
ROOT
ATOM      1  C   LIG    1       -1.260   5.908  -0.058  0.00  0.00    +0.360 A 
ATOM      2  N   LIG    1       -1.316   7.218  -0.054  0.00  0.00    -0.510 NA
ATOM      3  C   LIG    1       -0.203   7.973   0.037  0.00  0.00    +0.090 A 
ATOM      4  C   LIG    1        1.043   7.356   0.130  0.00  0.00    -0.240 A 
ATOM      5  C   LIG    1        1.086   5.929   0.130  0.00  0.00    +0.570 A 
ATOM      6  O   LIG    1        2.151   5.341   0.214  0.00  0.00    -0.500 OA
ATOM      7  C   LIG    1        2.124   8.320   0.221  0.00  0.00    +0.090 A 
ATOM      8  C   LIG    1        1.743   9.582   0.200  0.00  0.00    -0.050 A 
ATOM      9  S   LIG    1        0.001   9.720   0.065  0.00  0.00    +0.200 S 
ATOM     10  N   LIG    1       -0.069   5.243   0.030  0.00  0.00    -0.470 N 
ENDROOT
BRANCH  10  11
ATOM     11  C   LIG    1       -0.050   3.842   0.023  0.00  0.00    +0.090 A 
ATOM     12  C   LIG    1        0.054   3.154  -1.178  0.00  0.00    +0.040 A 
ATOM     13  C   LIG    1        0.072   1.773  -1.182  0.00  0.00    +0.030 A 
ATOM     14  C   LIG    1       -0.013   1.076   0.009  0.00  0.00    +0.040 A 
ATOM     15  C   LIG    1       -0.123   1.758   1.206  0.00  0.00    +0.030 A 
ATOM     16  C   LIG    1       -0.136   3.139   1.217  0.00  0.00    +0.040 A 
ENDBRANCH  10  11
BRANCH   1  17
ATOM     17  S   LIG    1       -2.755   4.984  -0.180  0.00  0.00    +0.110 S 
BRANCH  17  18
ATOM     18  C   LIG    1       -3.955   6.336  -0.265  0.00  0.00    +0.100 C 
BRANCH  18  21
ATOM     19  N   LIG    1       -6.408   6.593  -0.454  0.00  0.00    -0.720 N 
ATOM     20  H   LIG    1       -6.277   7.554  -0.437  0.00  0.00    +0.400 HD
ATOM     21  C   LIG    1       -5.346   5.767  -0.376  0.00  0.00    +0.530 C 
ATOM     22  O   LIG    1       -5.510   4.566  -0.397  0.00  0.00    -0.520 OA
BRANCH  19  23
ATOM     23  C   LIG    1       -7.760   6.040  -0.562  0.00  0.00    +0.240 C 
ATOM     24  C   LIG    1       -8.072   5.740  -2.030  0.00  0.00    +0.020 C 
BRANCH  23  26
ATOM     25  C   LIG    1      -10.183   6.477  -0.136  0.00  0.00    +0.030 C 
ATOM     26  C   LIG    1       -8.771   7.054  -0.023  0.00  0.00    -0.020 C 
ATOM     27  C   LIG    1       -8.459   7.354   1.445  0.00  0.00    +0.020 C 
ENDBRANCH  23  26
ENDBRANCH  19  23
ENDBRANCH  18  21
ENDBRANCH  17  18
ENDBRANCH   1  17
TORSDOF 6
