REMARK  Name = ZINCpk000000oyWk.0
REMARK                            x       y       z     vdW  Elec       q    Type
REMARK                         _______ _______ _______ _____ _____    ______ ____
ROOT
ATOM      1  N   LIG    1        2.614   4.027  -1.103  0.00  0.00    -0.510 NA
ENDROOT
BRANCH   1   3
ATOM      2  C   LIG    1        3.114   3.232  -3.365  0.00  0.00    +0.030 C 
ATOM      3  C   LIG    1        3.140   2.892  -1.873  0.00  0.00    +0.170 C 
ENDBRANCH   1   3
BRANCH   1   4
ATOM      4  C   LIG    1        2.307   3.628   0.277  0.00  0.00    +0.240 C 
BRANCH   4   5
ATOM      5  C   LIG    1        1.170   2.639   0.274  0.00  0.00    -0.040 A 
ATOM      6  C   LIG    1        1.433   1.285   0.187  0.00  0.00    -0.020 A 
ATOM      7  C   LIG    1        0.392   0.375   0.183  0.00  0.00    +0.050 A 
ATOM      8  C   LIG    1       -0.914   0.817   0.262  0.00  0.00    -0.060 A 
ATOM      9  C   LIG    1       -1.181   2.176   0.354  0.00  0.00    +0.100 A 
ATOM     10  C   LIG    1       -0.135   3.087   0.358  0.00  0.00    +0.040 A 
BRANCH   9  11
ATOM     11  O   LIG    1       -2.465   2.614   0.436  0.00  0.00    -0.320 OA
BRANCH  11  12
ATOM     12  C   LIG    1       -3.491   1.619   0.427  0.00  0.00    +0.590 C 
ATOM     13  F   LIG    1       -3.317   0.759   1.517  0.00  0.00    -0.200 F 
ATOM     14  F   LIG    1       -3.419   0.885  -0.762  0.00  0.00    -0.200 F 
ENDBRANCH  11  12
ENDBRANCH   9  11
ENDBRANCH   4   5
ENDBRANCH   1   4
BRANCH   1  15
ATOM     15  C   LIG    1        3.549   5.159  -1.129  0.00  0.00    +0.210 C 
BRANCH  15  16
ATOM     16  C   LIG    1        2.815   6.425  -0.768  0.00  0.00    +0.510 C 
ATOM     17  N   LIG    1        3.494   7.579  -0.619  0.00  0.00    -0.720 N 
ATOM     18  H   LIG    1        4.456   7.595  -0.744  0.00  0.00    +0.400 HD
ATOM     19  O   LIG    1        1.612   6.405  -0.611  0.00  0.00    -0.510 OA
BRANCH  17  20
ATOM     20  C   LIG    1        2.781   8.809  -0.269  0.00  0.00    +0.260 C 
ATOM     21  C   LIG    1        2.273   9.506  -1.543  0.00  0.00    +0.060 C 
ATOM     22  C   LIG    1        1.838  10.941  -1.183  0.00  0.00    -0.310 C 
ATOM     23  S   LIG    1        2.861  11.400   0.262  0.00  0.00    +2.400 S 
ATOM     24  O   LIG    1        3.784  12.414  -0.114  0.00  0.00    -0.930 OA
ATOM     25  O   LIG    1        2.021  11.592   1.392  0.00  0.00    -0.930 OA
ATOM     26  C   LIG    1        3.746   9.804   0.427  0.00  0.00    -0.320 C 
ENDBRANCH  17  20
ENDBRANCH  15  16
ENDBRANCH   1  15
TORSDOF 8
