REMARK  Name = ZINCkj000005iFnb.0
REMARK                            x       y       z     vdW  Elec       q    Type
REMARK                         _______ _______ _______ _____ _____    ______ ____
ROOT
ATOM      1  C   LIG    1        5.939   1.505   0.686  0.00  0.00    +0.570 C 
ATOM      2  N   LIG    1        4.623   1.682   0.914  0.00  0.00    -0.740 N 
ATOM      3  H   LIG    1        4.329   2.220   1.665  0.00  0.00    +0.400 HD
ATOM      4  O   LIG    1        6.308   0.830  -0.256  0.00  0.00    -0.510 OA
ENDROOT
BRANCH   1   8
ATOM      5  C   LIG    1        8.800   3.306   3.257  0.00  0.00    +0.190 A 
ATOM      6  C   LIG    1        7.441   3.488   3.491  0.00  0.00    -0.090 A 
ATOM      7  C   LIG    1        6.511   2.906   2.661  0.00  0.00    +0.100 A 
ATOM      8  C   LIG    1        6.931   2.130   1.577  0.00  0.00    -0.220 A 
ATOM      9  C   LIG    1        8.303   1.943   1.345  0.00  0.00    +0.220 A 
ATOM     10  C   LIG    1        9.229   2.537   2.185  0.00  0.00    -0.040 A 
BRANCH   5  12
ATOM     11  C   LIG    1        9.203   4.662   5.166  0.00  0.00    +0.250 C 
ATOM     12  O   LIG    1        9.711   3.883   4.082  0.00  0.00    -0.310 OA
ENDBRANCH   5  12
BRANCH   9  13
ATOM     13  O   LIG    1        8.720   1.186   0.300  0.00  0.00    -0.470 OA
ATOM     14  H   LIG    1        8.851   1.684  -0.519  0.00  0.00    +0.400 HD
ENDBRANCH   9  13
ENDBRANCH   1   8
BRANCH   2  15
ATOM     15  C   LIG    1        3.635   1.061   0.027  0.00  0.00    +0.260 C 
ATOM     16  C   LIG    1        3.353   1.976  -1.186  0.00  0.00    +0.070 C 
ATOM     17  C   LIG    1        1.825   1.820  -1.389  0.00  0.00    +0.280 C 
ATOM     18  N   LIG    1        1.304   1.737  -0.001  0.00  0.00    -0.370 N 
ATOM     19  H   LIG    1        1.239   2.660   0.402  0.00  0.00    +0.420 HD
ATOM     20  C   LIG    1        2.282   0.921   0.750  0.00  0.00    +0.280 C 
BRANCH  18  21
ATOM     21  C   LIG    1       -0.013   1.086   0.008  0.00  0.00    +0.100 C 
ATOM     22  C   LIG    1       -1.136   1.773   0.788  0.00  0.00    +0.100 C 
ATOM     23  C   LIG    1       -1.150   1.781  -0.743  0.00  0.00    +0.100 C 
ENDBRANCH  18  21
ENDBRANCH   2  15
TORSDOF 5
