REMARK  Name = ZINCkj000005iFnb.1
REMARK                            x       y       z     vdW  Elec       q    Type
REMARK                         _______ _______ _______ _____ _____    ______ ____
ROOT
ATOM      1  C   LIG    1        1.172   1.534  -2.494  0.00  0.00    +0.580 C 
ATOM      2  N   LIG    1        1.778   1.825  -3.662  0.00  0.00    -0.730 N 
ATOM      3  H   LIG    1        2.659   2.231  -3.664  0.00  0.00    +0.410 HD
ATOM      4  O   LIG    1        0.068   1.025  -2.491  0.00  0.00    -0.510 OA
ENDROOT
BRANCH   1   8
ATOM      5  C   LIG    1        3.122   2.397   1.180  0.00  0.00    +0.190 A 
ATOM      6  C   LIG    1        3.746   2.697  -0.027  0.00  0.00    -0.090 A 
ATOM      7  C   LIG    1        3.118   2.419  -1.219  0.00  0.00    +0.100 A 
ATOM      8  C   LIG    1        1.848   1.833  -1.220  0.00  0.00    -0.220 A 
ATOM      9  C   LIG    1        1.221   1.531  -0.001  0.00  0.00    +0.220 A 
ATOM     10  C   LIG    1        1.860   1.821   1.191  0.00  0.00    -0.040 A 
BRANCH   5  12
ATOM     11  C   LIG    1        5.043   3.274   2.269  0.00  0.00    +0.250 C 
ATOM     12  O   LIG    1        3.748   2.675   2.352  0.00  0.00    -0.310 OA
ENDBRANCH   5  12
BRANCH   9  13
ATOM     13  O   LIG    1       -0.011   0.963   0.007  0.00  0.00    -0.470 OA
ATOM     14  H   LIG    1        0.002  -0.004   0.002  0.00  0.00    +0.400 HD
ENDBRANCH   9  13
ENDBRANCH   1   8
BRANCH   2  15
ATOM     15  C   LIG    1        1.105   1.528  -4.929  0.00  0.00    +0.260 C 
ATOM     16  C   LIG    1        1.448   0.095  -5.418  0.00  0.00    +0.060 C 
ATOM     17  C   LIG    1        1.272   0.199  -6.948  0.00  0.00    +0.270 C 
ATOM     18  N   LIG    1        1.404   1.622  -7.308  0.00  0.00    -0.360 N 
ATOM     19  H   LIG    1        0.547   1.947  -7.730  0.00  0.00    +0.430 HD
ATOM     20  C   LIG    1        1.677   2.396  -6.078  0.00  0.00    +0.270 C 
BRANCH  18  21
ATOM     21  C   LIG    1        2.515   1.789  -8.254  0.00  0.00    +0.090 C 
ATOM     22  C   LIG    1        2.240   2.578  -9.535  0.00  0.00    +0.100 C 
ATOM     23  C   LIG    1        2.416   1.060  -9.596  0.00  0.00    +0.100 C 
ENDBRANCH  18  21
ENDBRANCH   2  15
TORSDOF 5
