REMARK  Name = ZINCrD000000BR4x.0
REMARK                            x       y       z     vdW  Elec       q    Type
REMARK                         _______ _______ _______ _____ _____    ______ ____
ROOT
ATOM      1  O   LIG    1        4.137   0.053  -1.877  0.00  0.00    -0.580 OA
ATOM      2  C   LIG    1        3.087  -0.526  -1.675  0.00  0.00    +0.710 C 
ATOM      3  N   LIG    1        1.965   0.179  -1.431  0.00  0.00    -0.630 N 
ATOM      4  C   LIG    1        2.006   1.643  -1.289  0.00  0.00    +0.280 C 
ATOM      5  C   LIG    1        0.936   2.248  -2.205  0.00  0.00    +0.220 C 
ATOM      6  O   LIG    1       -0.321   1.619  -1.940  0.00  0.00    -0.370 OA
ATOM      7  C   LIG    1       -0.343   0.216  -2.213  0.00  0.00    +0.190 C 
ATOM      8  C   LIG    1        0.662  -0.492  -1.298  0.00  0.00    +0.260 C 
ATOM      9  N   LIG    1        3.045  -1.873  -1.697  0.00  0.00    -0.740 N 
ATOM     10  H   LIG    1        2.196  -2.333  -1.609  0.00  0.00    +0.390 HD
ENDROOT
BRANCH   9  11
ATOM     11  C   LIG    1        4.282  -2.642  -1.854  0.00  0.00    +0.250 C 
ATOM     12  C   LIG    1        4.945  -2.831  -0.486  0.00  0.00    -0.020 C 
ATOM     13  C   LIG    1        6.194  -3.701  -0.649  0.00  0.00    +0.220 C 
ATOM     14  O   LIG    1        5.829  -4.952  -1.235  0.00  0.00    -0.360 OA
ATOM     15  C   LIG    1        5.247  -4.841  -2.535  0.00  0.00    +0.130 C 
ATOM     16  C   LIG    1        4.921  -6.237  -3.070  0.00  0.00    +0.050 C 
ATOM     17  C   LIG    1        6.206  -7.061  -3.163  0.00  0.00    +0.010 C 
ATOM     18  C   LIG    1        7.189  -6.369  -4.109  0.00  0.00    +0.000 C 
ATOM     19  C   LIG    1        7.516  -4.975  -3.571  0.00  0.00    +0.010 C 
ATOM     20  C   LIG    1        6.232  -4.149  -3.479  0.00  0.00    -0.010 C 
ATOM     21  C   LIG    1        3.960  -4.016  -2.448  0.00  0.00    +0.010 C 
ENDBRANCH   9  11
BRANCH   7  22
ATOM     22  C   LIG    1       -1.726  -0.325  -1.957  0.00  0.00    -0.070 A 
ATOM     23  C   LIG    1       -2.491   0.194  -0.929  0.00  0.00    +0.030 A 
ATOM     24  C   LIG    1       -3.760  -0.300  -0.692  0.00  0.00    +0.030 A 
ATOM     25  C   LIG    1       -4.267  -1.313  -1.482  0.00  0.00    -0.010 A 
ATOM     26  C   LIG    1       -3.501  -1.836  -2.514  0.00  0.00    +0.110 A 
ATOM     27  C   LIG    1       -2.230  -1.335  -2.754  0.00  0.00    +0.000 A 
BRANCH  26  28
ATOM     28  O   LIG    1       -3.998  -2.833  -3.294  0.00  0.00    -0.500 OA
ATOM     29  H   LIG    1       -4.478  -2.521  -4.073  0.00  0.00    +0.390 HD
ENDBRANCH  26  28
ENDBRANCH   7  22
TORSDOF 3
