REMARK  Name = ZINCvU0000000A32.0
REMARK                            x       y       z     vdW  Elec       q    Type
REMARK                         _______ _______ _______ _____ _____    ______ ____
ROOT
ATOM      1  C   LIG    1        0.069  -2.750  -0.673  0.00  0.00    +0.580 C 
ATOM      2  N   LIG    1        1.209  -2.076  -0.038  0.00  0.00    -0.740 N 
ATOM      3  H   LIG    1        1.930  -2.590   0.359  0.00  0.00    +0.420 HD
ATOM      4  C   LIG    1        1.232  -0.686  -0.018  0.00  0.00    +0.240 A 
ATOM      5  C   LIG    1        2.418   0.027  -0.023  0.00  0.00    -0.050 A 
ATOM      6  C   LIG    1        2.385   1.409  -0.013  0.00  0.00    +0.080 A 
ATOM      7  C   LIG    1        1.175   2.084   0.002  0.00  0.00    -0.040 A 
ATOM      8  C   LIG    1       -0.017   1.388   0.010  0.00  0.00    +0.110 A 
ATOM      9  C   LIG    1        0.002  -0.004   0.002  0.00  0.00    -0.190 A 
ATOM     10  C   LIG    1       -1.240  -0.797   0.019  0.00  0.00    +0.580 C 
ATOM     11  O   LIG    1       -2.303  -0.271   0.289  0.00  0.00    -0.530 OA
ATOM     12  N   LIG    1       -1.185  -2.115  -0.268  0.00  0.00    -0.610 N 
ENDROOT
BRANCH   1  19
ATOM     13  C   LIG    1        2.797  -2.611  -2.281  0.00  0.00    +0.160 C 
ATOM     14  C   LIG    1        1.414  -2.604  -2.881  0.00  0.00    +0.110 A 
ATOM     15  N   LIG    1        1.133  -2.543  -4.158  0.00  0.00    -0.270 NA
ATOM     16  N   LIG    1       -0.261  -2.552  -4.300  0.00  0.00    -0.350 N 
ATOM     17  C   LIG    1       -0.804  -2.628  -3.067  0.00  0.00    +0.150 A 
ATOM     18 CL   LIG    1       -2.499  -2.671  -2.696  0.00  0.00    +0.000 Cl
ATOM     19  C   LIG    1        0.211  -2.665  -2.171  0.00  0.00    -0.260 A 
BRANCH  16  20
ATOM     20  C   LIG    1       -0.998  -2.491  -5.565  0.00  0.00    +0.380 C 
BRANCH  20  21
ATOM     21  C   LIG    1       -1.269  -1.052  -5.919  0.00  0.00    -0.120 A 
ATOM     22  C   LIG    1       -2.430  -0.440  -5.486  0.00  0.00    +0.020 A 
ATOM     23  C   LIG    1       -2.676   0.882  -5.807  0.00  0.00    +0.010 A 
ATOM     24  C   LIG    1       -1.766   1.588  -6.571  0.00  0.00    +0.030 A 
ATOM     25  C   LIG    1       -0.607   0.975  -7.009  0.00  0.00    +0.010 A 
ATOM     26  C   LIG    1       -0.358  -0.345  -6.683  0.00  0.00    +0.040 A 
ENDBRANCH  20  21
ENDBRANCH  16  20
ENDBRANCH   1  19
BRANCH  12  27
ATOM     27  C   LIG    1       -2.403  -2.923  -0.173  0.00  0.00    +0.410 C 
BRANCH  27  28
ATOM     28  C   LIG    1       -2.525  -3.485   1.220  0.00  0.00    -0.050 A 
ATOM     29  C   LIG    1       -3.152  -2.895   2.253  0.00  0.00    -0.030 A 
ATOM     30  C   LIG    1       -3.024  -3.765   3.360  0.00  0.00    -0.070 A 
ATOM     31  C   LIG    1       -2.327  -4.835   2.937  0.00  0.00    +0.160 A 
ATOM     32  O   LIG    1       -2.033  -4.662   1.638  0.00  0.00    -0.180 OA
ENDBRANCH  27  28
ENDBRANCH  12  27
TORSDOF 5
