REMARK  Name = ZINCpk00000F9PmQ.1
REMARK                            x       y       z     vdW  Elec       q    Type
REMARK                         _______ _______ _______ _____ _____    ______ ____
ROOT
ATOM      1  C   LIG    1       -4.742  -2.958  -0.857  0.00  0.00    +0.300 C 
ATOM      2  C   LIG    1       -3.578  -1.972  -0.979  0.00  0.00    +0.180 C 
ATOM      3  N   LIG    1       -3.517  -1.142   0.233  0.00  0.00    -0.500 NA
ATOM      4  C   LIG    1       -3.346  -1.979   1.430  0.00  0.00    +0.160 C 
ATOM      5  C   LIG    1       -4.513  -2.966   1.527  0.00  0.00    +0.230 C 
ATOM      6  O   LIG    1       -4.576  -3.742   0.327  0.00  0.00    -0.370 OA
ENDROOT
BRANCH   1  10
ATOM      7  C   LIG    1       -6.113  -4.965  -5.236  0.00  0.00    +0.190 C 
ATOM      8  C   LIG    1       -5.363  -4.722  -3.951  0.00  0.00    +0.280 A 
ATOM      9  N   LIG    1       -5.628  -3.791  -3.071  0.00  0.00    -0.530 NA
ATOM     10  C   LIG    1       -4.762  -3.864  -2.061  0.00  0.00    +0.230 A 
ATOM     11  N   LIG    1       -3.936  -4.853  -2.281  0.00  0.00    -0.280 NA
ATOM     12  N   LIG    1       -4.308  -5.427  -3.508  0.00  0.00    -0.480 N 
ATOM     13  H   LIG    1       -3.887  -6.183  -3.947  0.00  0.00    +0.440 HD
ENDBRANCH   1  10
BRANCH   3  14
ATOM     14  C   LIG    1       -2.446  -0.142   0.133  0.00  0.00    +0.180 C 
ATOM     15  C   LIG    1       -2.298   0.583   1.472  0.00  0.00    +0.090 C 
BRANCH  14  16
ATOM     16  C   LIG    1       -1.149  -0.828  -0.212  0.00  0.00    +0.500 C 
ATOM     17  N   LIG    1       -0.196  -0.163  -0.896  0.00  0.00    -0.550 N 
ATOM     18  C   LIG    1       -0.348   1.184  -1.453  0.00  0.00    +0.270 C 
ATOM     19  C   LIG    1        0.997   1.493  -2.131  0.00  0.00    +0.090 C 
ATOM     20  C   LIG    1        1.835   0.256  -1.898  0.00  0.00    -0.140 A 
ATOM     21  C   LIG    1        3.129  -0.046  -2.275  0.00  0.00    +0.050 A 
ATOM     22  C   LIG    1        3.683  -1.267  -1.937  0.00  0.00    -0.010 A 
ATOM     23  C   LIG    1        2.940  -2.185  -1.219  0.00  0.00    +0.040 A 
ATOM     24  C   LIG    1        1.646  -1.890  -0.845  0.00  0.00    +0.010 A 
ATOM     25  C   LIG    1        1.081  -0.657  -1.178  0.00  0.00    +0.140 A 
ATOM     26  O   LIG    1       -0.962  -1.978   0.125  0.00  0.00    -0.510 OA
ENDBRANCH  14  16
ENDBRANCH   3  14
TORSDOF 3
