REMARK  Name = ZINCpk00000F9PmQ.0
REMARK                            x       y       z     vdW  Elec       q    Type
REMARK                         _______ _______ _______ _____ _____    ______ ____
ROOT
ATOM      1  C   LIG    1       -0.657   1.011   0.610  0.00  0.00    +0.290 C 
ATOM      2  C   LIG    1       -1.051   1.460  -0.799  0.00  0.00    +0.190 C 
ATOM      3  N   LIG    1       -2.484   1.200  -1.007  0.00  0.00    -0.510 NA
ATOM      4  C   LIG    1       -3.294   1.910  -0.006  0.00  0.00    +0.150 C 
ATOM      5  C   LIG    1       -2.876   1.456   1.395  0.00  0.00    +0.250 C 
ATOM      6  O   LIG    1       -1.475   1.688   1.568  0.00  0.00    -0.390 OA
ENDROOT
BRANCH   1  11
ATOM      7  C   LIG    1        3.618   2.826   2.599  0.00  0.00    +0.200 C 
ATOM      8  C   LIG    1        2.623   2.124   1.711  0.00  0.00    +0.180 A 
ATOM      9  N   LIG    1        2.894   1.445   0.630  0.00  0.00    -0.290 NA
ATOM     10  N   LIG    1        1.807   0.979   0.127  0.00  0.00    -0.280 NA
ATOM     11  C   LIG    1        0.791   1.346   0.859  0.00  0.00    +0.180 A 
ATOM     12  N   LIG    1        1.280   2.081   1.887  0.00  0.00    -0.560 N 
ATOM     13  H   LIG    1        0.772   2.492   2.604  0.00  0.00    +0.430 HD
ENDBRANCH   1  11
BRANCH   3  14
ATOM     14  C   LIG    1       -2.893   1.566  -2.370  0.00  0.00    +0.140 C 
ATOM     15  C   LIG    1       -1.977   0.873  -3.381  0.00  0.00    +0.080 C 
BRANCH  14  16
ATOM     16  C   LIG    1       -4.317   1.130  -2.601  0.00  0.00    +0.530 C 
ATOM     17  N   LIG    1       -5.093   1.800  -3.477  0.00  0.00    -0.560 N 
ATOM     18  C   LIG    1       -4.699   3.020  -4.186  0.00  0.00    +0.270 C 
ATOM     19  C   LIG    1       -5.912   3.391  -5.055  0.00  0.00    +0.090 C 
ATOM     20  C   LIG    1       -6.933   2.316  -4.761  0.00  0.00    -0.140 A 
ATOM     21  C   LIG    1       -8.212   2.124  -5.247  0.00  0.00    +0.050 A 
ATOM     22  C   LIG    1       -8.964   1.046  -4.819  0.00  0.00    -0.010 A 
ATOM     23  C   LIG    1       -8.432   0.158  -3.901  0.00  0.00    +0.040 A 
ATOM     24  C   LIG    1       -7.156   0.345  -3.413  0.00  0.00    +0.010 A 
ATOM     25  C   LIG    1       -6.390   1.429  -3.845  0.00  0.00    +0.140 A 
ATOM     26  O   LIG    1       -4.765   0.177  -2.000  0.00  0.00    -0.490 OA
ENDBRANCH  14  16
ENDBRANCH   3  14
TORSDOF 3
