REMARK  Name = ZINCrD00000hQ4Rx.0
REMARK                            x       y       z     vdW  Elec       q    Type
REMARK                         _______ _______ _______ _____ _____    ______ ____
ROOT
ATOM      1  C   LIG    1        2.336   4.242   0.002  0.00  0.00    -0.100 C 
ATOM      2  C   LIG    1        1.173   3.556   0.009  0.00  0.00    +0.140 C 
ENDROOT
BRANCH   2   3
ATOM      3  C   LIG    1        1.187   2.086   0.002  0.00  0.00    -0.120 A 
ATOM      4  C   LIG    1       -0.017   1.372   0.010  0.00  0.00    +0.090 A 
ATOM      5  C   LIG    1        0.002  -0.004   0.002  0.00  0.00    -0.010 A 
ATOM      6  C   LIG    1        1.214  -0.685  -0.013  0.00  0.00    +0.140 A 
ATOM      7  C   LIG    1        2.413   0.019  -0.020  0.00  0.00    -0.080 A 
ATOM      8  C   LIG    1        2.405   1.396  -0.013  0.00  0.00    +0.070 A 
BRANCH   6   9
ATOM      9  O   LIG    1        1.227  -2.042  -0.019  0.00  0.00    -0.310 OA
BRANCH   9  10
ATOM     10  C   LIG    1        2.506  -2.679  -0.035  0.00  0.00    +0.270 C 
BRANCH  10  11
ATOM     11  C   LIG    1        2.323  -4.175  -0.040  0.00  0.00    -0.150 A 
ATOM     12  C   LIG    1        2.255  -4.878   1.153  0.00  0.00    +0.090 A 
ATOM     13  C   LIG    1        2.080  -6.252   1.100  0.00  0.00    -0.030 A 
ATOM     14  C   LIG    1        1.992  -6.873  -0.132  0.00  0.00    +0.270 A 
ATOM     15  N   LIG    1        2.067  -6.173  -1.247  0.00  0.00    -0.490 NA
ATOM     16  C   LIG    1        2.227  -4.864  -1.234  0.00  0.00    +0.290 A 
ENDBRANCH  10  11
ENDBRANCH   9  10
ENDBRANCH   6   9
ENDBRANCH   2   3
BRANCH   1  18
ATOM     17  O   LIG    1        1.262   6.303   0.022  0.00  0.00    -0.550 OA
ATOM     18  C   LIG    1        2.322   5.705   0.010  0.00  0.00    +0.550 C 
ATOM     19  N   LIG    1        3.482   6.390   0.002  0.00  0.00    -0.720 N 
ATOM     20  H   LIG    1        4.327   5.913  -0.008  0.00  0.00    +0.400 HD
BRANCH  19  21
ATOM     21  C   LIG    1        3.468   7.855   0.010  0.00  0.00    +0.240 C 
ATOM     22  C   LIG    1        3.387   8.375   1.460  0.00  0.00    +0.010 C 
ATOM     23  C   LIG    1        4.282   9.639   1.460  0.00  0.00    +0.020 C 
ATOM     24  C   LIG    1        5.454   9.229   0.534  0.00  0.00    +0.020 C 
ATOM     25  C   LIG    1        4.782   8.398  -0.579  0.00  0.00    -0.010 C 
BRANCH  25  26
ATOM     26  C   LIG    1        5.692   7.237  -0.988  0.00  0.00    +0.030 C 
BRANCH  26  27
ATOM     27  C   LIG    1        6.938   7.787  -1.684  0.00  0.00    +0.180 C 
BRANCH  27  28
ATOM     28  O   LIG    1        7.788   6.704  -2.066  0.00  0.00    -0.580 OA
ATOM     29  H   LIG    1        8.599   6.979  -2.514  0.00  0.00    +0.380 HD
ENDBRANCH  27  28
ENDBRANCH  26  27
ENDBRANCH  25  26
ENDBRANCH  19  21
ENDBRANCH   1  18
TORSDOF 9
