REMARK  Name = ZINCqH0000004bDC.0
REMARK                            x       y       z     vdW  Elec       q    Type
REMARK                         _______ _______ _______ _____ _____    ______ ____
ROOT
ATOM      1  C   LIG    1       10.262  -0.744  -0.050  0.00  0.00    +0.310 C 
ATOM      2  C   LIG    1       10.510  -1.896  -1.010  0.00  0.00    -0.110 A 
ATOM      3  C   LIG    1        9.572  -2.821  -1.291  0.00  0.00    -0.180 A 
ATOM      4  S   LIG    1       10.218  -4.001  -2.424  0.00  0.00    +0.110 S 
ATOM      5  C   LIG    1       11.761  -3.162  -2.471  0.00  0.00    -0.040 A 
ATOM      6  C   LIG    1        8.171  -2.842  -0.718  0.00  0.00    +0.110 C 
ATOM      7  C   LIG    1        8.130  -1.961   0.535  0.00  0.00    +0.300 C 
ATOM      8  C   LIG    1       11.714  -2.098  -1.676  0.00  0.00    +0.020 A 
ATOM      9  N   LIG    1        8.822  -0.697   0.242  0.00  0.00    -0.600 N 
ATOM     10  C   LIG    1        8.153   0.472   0.235  0.00  0.00    +0.530 C 
ATOM     11  O   LIG    1        8.757   1.516   0.099  0.00  0.00    -0.490 OA
ENDROOT
BRANCH   1  13
ATOM     12  C   LIG    1        9.924   0.788  -1.994  0.00  0.00    +0.010 C 
ATOM     13  C   LIG    1       10.703   0.571  -0.695  0.00  0.00    +0.040 C 
ENDBRANCH   1  13
BRANCH  10  14
ATOM     14  C   LIG    1        6.655   0.485   0.398  0.00  0.00    +0.270 C 
BRANCH  14  15
ATOM     15  O   LIG    1        6.182   1.833   0.358  0.00  0.00    -0.240 OA
BRANCH  15  16
ATOM     16  C   LIG    1        4.848   2.020   0.490  0.00  0.00    +0.360 A 
ATOM     17  N   LIG    1        3.946   1.084   0.653  0.00  0.00    -0.320 NA
ATOM     18  N   LIG    1        2.782   1.622   0.749  0.00  0.00    -0.250 NA
ATOM     19  C   LIG    1        2.895   2.924   0.642  0.00  0.00    +0.210 A 
ATOM     20  O   LIG    1        4.206   3.203   0.480  0.00  0.00    -0.200 OA
BRANCH  19  21
ATOM     21  C   LIG    1        1.791   3.905   0.696  0.00  0.00    -0.020 A 
ATOM     22  C   LIG    1        0.476   3.472   0.869  0.00  0.00    +0.070 A 
ATOM     23  C   LIG    1       -0.550   4.394   0.913  0.00  0.00    +0.020 A 
ATOM     24  C   LIG    1       -0.276   5.745   0.797  0.00  0.00    +0.040 A 
ATOM     25  C   LIG    1        1.026   6.181   0.625  0.00  0.00    +0.010 A 
ATOM     26  C   LIG    1        2.060   5.270   0.574  0.00  0.00    +0.050 A 
ENDBRANCH  19  21
ENDBRANCH  15  16
ENDBRANCH  14  15
ENDBRANCH  10  14
TORSDOF 5
