REMARK  Name = ZINCrD00000sfvW7.0
REMARK                            x       y       z     vdW  Elec       q    Type
REMARK                         _______ _______ _______ _____ _____    ______ ____
ROOT
ATOM      1  C   LIG    1        2.089   4.371  -1.165  0.00  0.00    +0.220 C 
ATOM      2  C   LIG    1        3.336   5.220  -0.901  0.00  0.00    +0.230 C 
ATOM      3  O   LIG    1        3.107   6.052   0.239  0.00  0.00    -0.380 OA
ATOM      4  C   LIG    1        2.795   5.324   1.430  0.00  0.00    +0.220 C 
ATOM      5  C   LIG    1        1.543   4.476   1.189  0.00  0.00    +0.170 C 
ATOM      6  N   LIG    1        1.771   3.590   0.039  0.00  0.00    -0.480 N 
ENDROOT
BRANCH   1  13
ATOM      7  C   LIG    1        3.912   1.780  -1.083  0.00  0.00    +0.160 C 
ATOM      8  C   LIG    1        3.156   2.292  -2.282  0.00  0.00    +0.110 A 
ATOM      9  N   LIG    1        3.136   1.741  -3.468  0.00  0.00    -0.280 NA
ATOM     10  N   LIG    1        2.325   2.524  -4.300  0.00  0.00    -0.380 N 
ATOM     11  C   LIG    1        1.856   3.557  -3.571  0.00  0.00    +0.120 A 
ATOM     12  C   LIG    1        0.944   4.651  -4.063  0.00  0.00    +0.150 C 
ATOM     13  C   LIG    1        2.352   3.436  -2.317  0.00  0.00    -0.230 A 
BRANCH  10  14
ATOM     14  C   LIG    1        2.038   2.266  -5.713  0.00  0.00    +0.380 C 
BRANCH  14  15
ATOM     15  C   LIG    1        3.086   2.963  -6.583  0.00  0.00    +0.440 C 
ATOM     16  F   LIG    1        3.048   4.341  -6.343  0.00  0.00    -0.180 F 
ATOM     17  F   LIG    1        2.811   2.717  -7.932  0.00  0.00    -0.170 F 
ATOM     18  F   LIG    1        4.356   2.470  -6.268  0.00  0.00    -0.170 F 
ENDBRANCH  14  15
ENDBRANCH  10  14
ENDBRANCH   1  13
BRANCH   6  19
ATOM     19  C   LIG    1        0.678   2.767  -0.178  0.00  0.00    +0.360 A 
ATOM     20  C   LIG    1        0.753   1.400   0.096  0.00  0.00    -0.060 A 
ATOM     21  C   LIG    1       -0.363   0.622  -0.137  0.00  0.00    +0.330 A 
ATOM     22  N   LIG    1       -1.461   1.192  -0.614  0.00  0.00    -0.520 NA
ATOM     23  C   LIG    1       -1.502   2.486  -0.858  0.00  0.00    +0.360 A 
ATOM     24  N   LIG    1       -0.461   3.266  -0.651  0.00  0.00    -0.540 NA
BRANCH  23  25
ATOM     25  C   LIG    1       -2.774   3.090  -1.395  0.00  0.00    +0.020 C 
ATOM     26  C   LIG    1       -4.018   2.200  -1.432  0.00  0.00    +0.060 C 
ATOM     27  C   LIG    1       -3.298   2.563  -2.732  0.00  0.00    +0.040 C 
ENDBRANCH  23  25
ENDBRANCH   6  19
TORSDOF 5
