REMARK  Name = ZINCAx0000000dqo.0
REMARK                            x       y       z     vdW  Elec       q    Type
REMARK                         _______ _______ _______ _____ _____    ______ ____
ROOT
ATOM      1  C   LIG    1       -1.677  -4.578   1.770  0.00  0.00    +0.280 C 
ENDROOT
BRANCH   1   2
ATOM      2  N   LIG    1       -1.556  -5.848   1.042  0.00  0.00    -0.500 NA
ATOM      3  C   LIG    1       -2.756  -6.674   1.223  0.00  0.00    +0.200 C 
ATOM      4  C   LIG    1       -2.670  -7.901   0.309  0.00  0.00    +0.280 C 
ATOM      5  N   LIG    1       -1.397  -8.589   0.570  0.00  0.00    -0.610 N 
ATOM      6  C   LIG    1       -0.159  -7.796   0.542  0.00  0.00    +0.300 C 
ATOM      7  C   LIG    1       -1.365  -9.912   0.827  0.00  0.00    +0.570 C 
ATOM      8  O   LIG    1       -0.319 -10.445   1.143  0.00  0.00    -0.530 OA
ATOM      9  C   LIG    1       -0.344  -6.573   1.447  0.00  0.00    +0.160 C 
BRANCH   7  10
ATOM     10  C   LIG    1       -2.602 -10.715   0.723  0.00  0.00    -0.110 A 
ATOM     11  C   LIG    1       -2.811 -11.794   1.583  0.00  0.00    +0.070 A 
ATOM     12  C   LIG    1       -3.967 -12.540   1.483  0.00  0.00    +0.040 A 
ATOM     13  C   LIG    1       -4.920 -12.221   0.532  0.00  0.00    -0.090 A 
ATOM     14  C   LIG    1       -4.720 -11.151  -0.325  0.00  0.00    +0.090 A 
ATOM     15  F   LIG    1       -5.655 -10.845  -1.251  0.00  0.00    -0.130 F 
ATOM     16  C   LIG    1       -6.181 -13.040   0.429  0.00  0.00    +0.110 C 
ATOM     17  C   LIG    1       -3.568 -10.393  -0.231  0.00  0.00    +0.020 A 
ENDBRANCH   7  10
ENDBRANCH   1   2
BRANCH   1  18
ATOM     18  C   LIG    1       -1.872  -4.857   3.238  0.00  0.00    +0.220 A 
ATOM     19  N   LIG    1       -2.772  -5.646   3.764  0.00  0.00    -0.320 NA
ATOM     20  N   LIG    1       -2.669  -5.661   5.044  0.00  0.00    -0.030 NA
ATOM     21  N   LIG    1       -1.702  -4.896   5.422  0.00  0.00    -0.070 NA
ATOM     22  N   LIG    1       -1.151  -4.338   4.255  0.00  0.00    -0.320 N 
BRANCH  22  23
ATOM     23  C   LIG    1       -0.076  -3.439   4.166  0.00  0.00    +0.130 A 
ATOM     24  C   LIG    1        1.048  -3.620   4.959  0.00  0.00    +0.070 A 
ATOM     25  C   LIG    1        2.106  -2.736   4.873  0.00  0.00    +0.080 A 
ATOM     26  C   LIG    1        2.049  -1.667   3.993  0.00  0.00    +0.060 A 
ATOM     27  O   LIG    1        2.943  -0.671   3.721  0.00  0.00    -0.300 OA
ATOM     28  C   LIG    1        2.185   0.353   3.050  0.00  0.00    +0.440 C 
ATOM     29  O   LIG    1        1.110  -0.372   2.424  0.00  0.00    -0.300 OA
ATOM     30  C   LIG    1        0.921  -1.483   3.195  0.00  0.00    +0.060 A 
ATOM     31  C   LIG    1       -0.139  -2.369   3.284  0.00  0.00    +0.050 A 
ENDBRANCH  22  23
ENDBRANCH   1  18
BRANCH   1  32
ATOM     32  C   LIG    1       -2.878  -3.796   1.236  0.00  0.00    +0.050 C 
BRANCH  32  33
ATOM     33  C   LIG    1       -2.624  -3.404  -0.222  0.00  0.00    +0.050 C 
BRANCH  33  34
ATOM     34  C   LIG    1       -3.825  -2.622  -0.757  0.00  0.00    +0.160 C 
BRANCH  34  36
ATOM     35  C   LIG    1       -4.655  -1.518  -2.716  0.00  0.00    +0.200 C 
ATOM     36  O   LIG    1       -3.588  -2.257  -2.118  0.00  0.00    -0.390 OA
ENDBRANCH  34  36
ENDBRANCH  33  34
ENDBRANCH  32  33
ENDBRANCH   1  32
TORSDOF 8
