REMARK  Name = ZINCvU000000097i.1
REMARK                            x       y       z     vdW  Elec       q    Type
REMARK                         _______ _______ _______ _____ _____    ______ ____
ROOT
ATOM      1  N   LIG    1       -1.888   1.635  -3.567  0.00  0.00    -0.730 N 
ATOM      2  H   LIG    1       -2.084   2.471  -4.019  0.00  0.00    +0.400 HD
ATOM      3  C   LIG    1       -1.423   1.646  -2.303  0.00  0.00    +0.500 C 
ATOM      4  O   LIG    1       -1.178   0.601  -1.738  0.00  0.00    -0.490 OA
ENDROOT
BRANCH   3   5
ATOM      5  C   LIG    1       -1.208   2.956  -1.590  0.00  0.00    -0.010 C 
ATOM      6  C   LIG    1       -2.534   3.713  -1.502  0.00  0.00    +0.040 C 
ATOM      7  C   LIG    1       -2.316   5.043  -0.778  0.00  0.00    +0.020 C 
ATOM      8  C   LIG    1       -1.787   4.775   0.632  0.00  0.00    +0.020 C 
ATOM      9  C   LIG    1       -0.461   4.018   0.544  0.00  0.00    +0.020 C 
ATOM     10  C   LIG    1       -0.679   2.688  -0.179  0.00  0.00    +0.130 C 
BRANCH  10  11
ATOM     11  C   LIG    1        0.628   1.943  -0.266  0.00  0.00    +0.290 A 
ATOM     12  N   LIG    1        0.754   0.650  -0.194  0.00  0.00    -0.440 NA
ATOM     13  C   LIG    1        2.065   0.312  -0.314  0.00  0.00    +0.050 A 
ATOM     14  C   LIG    1        2.750  -0.905  -0.308  0.00  0.00    +0.090 A 
ATOM     15  C   LIG    1        4.108  -0.923  -0.453  0.00  0.00    +0.020 A 
ATOM     16  C   LIG    1        4.819   0.260  -0.607  0.00  0.00    -0.020 A 
ATOM     17  C   LIG    1        4.163   1.473  -0.616  0.00  0.00    +0.030 A 
ATOM     18 CL   LIG    1        6.545   0.211  -0.789  0.00  0.00    -0.060 Cl
ATOM     19  C   LIG    1        2.783   1.510  -0.470  0.00  0.00    +0.050 A 
ATOM     20  N   LIG    1        1.847   2.523  -0.435  0.00  0.00    -0.600 N 
ATOM     21  H   LIG    1        2.024   3.474  -0.517  0.00  0.00    +0.420 HD
ENDBRANCH  10  11
ENDBRANCH   3   5
BRANCH   1  22
ATOM     22  C   LIG    1       -2.097   0.361  -4.260  0.00  0.00    +0.290 C 
ATOM     23  C   LIG    1       -3.478  -0.192  -3.904  0.00  0.00    +0.040 C 
BRANCH  22  28
ATOM     24  C   LIG    1       -1.297  -0.147  -7.919  0.00  0.00    +0.150 A 
ATOM     25  C   LIG    1       -1.861   0.989  -8.484  0.00  0.00    -0.020 A 
ATOM     26  C   LIG    1       -2.498   1.915  -7.680  0.00  0.00    +0.040 A 
ATOM     27  C   LIG    1       -2.575   1.710  -6.314  0.00  0.00    -0.010 A 
ATOM     28  C   LIG    1       -2.013   0.580  -5.749  0.00  0.00    -0.070 A 
ATOM     29  C   LIG    1       -1.370  -0.346  -6.547  0.00  0.00    +0.030 A 
BRANCH  24  32
ATOM     30  C   LIG    1        0.099  -3.393  -9.216  0.00  0.00    +0.110 C 
ATOM     31  C   LIG    1       -0.694  -2.395  -8.412  0.00  0.00    +0.510 C 
ATOM     32  N   LIG    1       -0.651  -1.086  -8.731  0.00  0.00    -0.680 N 
ATOM     33  H   LIG    1       -0.173  -0.795  -9.523  0.00  0.00    +0.410 HD
ATOM     34  O   LIG    1       -1.370  -2.770  -7.477  0.00  0.00    -0.520 OA
ENDBRANCH  24  32
ENDBRANCH  22  28
ENDBRANCH   1  22
TORSDOF 5
