REMARK  Name = ZINCvU000000097i.0
REMARK                            x       y       z     vdW  Elec       q    Type
REMARK                         _______ _______ _______ _____ _____    ______ ____
ROOT
ATOM      1  N   LIG    1        3.145   7.024   3.599  0.00  0.00    -0.730 N 
ATOM      2  H   LIG    1        2.966   7.857   4.062  0.00  0.00    +0.400 HD
ATOM      3  C   LIG    1        2.711   6.850   2.334  0.00  0.00    +0.500 C 
ATOM      4  O   LIG    1        2.935   5.809   1.755  0.00  0.00    -0.490 OA
ENDROOT
BRANCH   3   5
ATOM      5  C   LIG    1        1.949   7.950   1.641  0.00  0.00    -0.010 C 
ATOM      6  C   LIG    1        2.821   9.204   1.564  0.00  0.00    +0.040 C 
ATOM      7  C   LIG    1        2.047  10.321   0.860  0.00  0.00    +0.020 C 
ATOM      8  C   LIG    1        1.675   9.870  -0.554  0.00  0.00    +0.020 C 
ATOM      9  C   LIG    1        0.802   8.616  -0.476  0.00  0.00    +0.020 C 
ATOM     10  C   LIG    1        1.577   7.499   0.228  0.00  0.00    +0.130 C 
BRANCH  10  11
ATOM     11  C   LIG    1        0.718   6.263   0.304  0.00  0.00    +0.290 A 
ATOM     12  N   LIG    1        1.158   5.043   0.214  0.00  0.00    -0.440 NA
ATOM     13  C   LIG    1        0.121   4.173   0.324  0.00  0.00    +0.060 A 
ATOM     14  C   LIG    1        0.026   2.779   0.299  0.00  0.00    +0.090 A 
ATOM     15  C   LIG    1       -1.203   2.175   0.441  0.00  0.00    -0.050 A 
ATOM     16  C   LIG    1       -2.350   2.941   0.604  0.00  0.00    +0.040 A 
ATOM     17  C   LIG    1       -2.272   4.317   0.637  0.00  0.00    +0.030 A 
ATOM     18 CL   LIG    1       -1.321   0.444   0.410  0.00  0.00    -0.070 Cl
ATOM     19  C   LIG    1       -1.042   4.943   0.495  0.00  0.00    +0.050 A 
ATOM     20  N   LIG    1       -0.632   6.262   0.478  0.00  0.00    -0.600 N 
ATOM     21  H   LIG    1       -1.200   7.042   0.572  0.00  0.00    +0.420 HD
ENDBRANCH  10  11
ENDBRANCH   3   5
BRANCH   1  22
ATOM     22  C   LIG    1        3.886   5.955   4.272  0.00  0.00    +0.290 C 
ATOM     23  C   LIG    1        5.369   6.053   3.906  0.00  0.00    +0.040 C 
BRANCH  22  28
ATOM     24  C   LIG    1        3.407   5.104   7.924  0.00  0.00    +0.150 A 
ATOM     25  C   LIG    1        3.433   6.365   8.505  0.00  0.00    -0.020 A 
ATOM     26  C   LIG    1        3.605   7.485   7.714  0.00  0.00    +0.040 A 
ATOM     27  C   LIG    1        3.752   7.351   6.346  0.00  0.00    -0.010 A 
ATOM     28  C   LIG    1        3.727   6.096   5.764  0.00  0.00    -0.070 A 
ATOM     29  C   LIG    1        3.550   4.973   6.548  0.00  0.00    +0.030 A 
BRANCH  24  32
ATOM     30  C   LIG    1        3.549   1.557   9.174  0.00  0.00    +0.110 C 
ATOM     31  C   LIG    1        3.831   2.809   8.384  0.00  0.00    +0.510 C 
ATOM     32  N   LIG    1        3.232   3.968   8.722  0.00  0.00    -0.680 N 
ATOM     33  H   LIG    1        2.681   4.015   9.518  0.00  0.00    +0.410 HD
ATOM     34  O   LIG    1        4.597   2.773   7.444  0.00  0.00    -0.520 OA
ENDBRANCH  24  32
ENDBRANCH  22  28
ENDBRANCH   1  22
TORSDOF 5
