REMARK  Name = ZINCrD000000A7rR.0
REMARK                            x       y       z     vdW  Elec       q    Type
REMARK                         _______ _______ _______ _____ _____    ______ ____
ROOT
ATOM      1  N   LIG    1       -1.153  -2.387  -0.565  0.00  0.00    -0.740 N 
ATOM      2  H   LIG    1       -1.196  -1.995   0.321  0.00  0.00    +0.400 HD
ATOM      3  C   LIG    1       -0.549  -1.721  -1.568  0.00  0.00    +0.710 C 
ATOM      4  N   LIG    1        0.084  -0.556  -1.320  0.00  0.00    -0.610 N 
ATOM      5  C   LIG    1       -0.007   0.001  -0.001  0.00  0.00    +0.250 C 
ATOM      6  C   LIG    1       -0.027   1.500   0.002  0.00  0.00    -0.030 C 
ATOM      7  C   LIG    1        1.322   2.161  -0.001  0.00  0.00    +0.030 C 
ATOM      8  C   LIG    1        1.900   2.187  -1.417  0.00  0.00    -0.020 C 
ATOM      9  C   LIG    1        2.072   0.789  -1.966  0.00  0.00    +0.040 C 
ATOM     10  C   LIG    1        0.958   3.023  -2.286  0.00  0.00    +0.020 C 
ATOM     11  C   LIG    1       -0.371   2.267  -2.369  0.00  0.00    -0.030 C 
ATOM     12  C   LIG    1       -0.133   0.986  -3.168  0.00  0.00    +0.020 C 
ATOM     13  C   LIG    1       -0.976   2.080  -1.034  0.00  0.00    +0.030 C 
ATOM     14  C   LIG    1        0.823   0.073  -2.400  0.00  0.00    +0.260 C 
ATOM     15  O   LIG    1       -0.573  -2.170  -2.698  0.00  0.00    -0.580 OA
ENDROOT
BRANCH   1  21
ATOM     16  O   LIG    1       -4.322  -5.526   2.093  0.00  0.00    -0.530 OA
ATOM     17  C   LIG    1       -3.449  -6.108   1.485  0.00  0.00    +0.530 C 
ATOM     18  N   LIG    1       -2.698  -5.445   0.584  0.00  0.00    -0.620 N 
ATOM     19  C   LIG    1       -1.610  -6.028  -0.222  0.00  0.00    +0.260 C 
ATOM     20  C   LIG    1       -0.700  -4.827  -0.594  0.00  0.00    +0.020 C 
ATOM     21  C   LIG    1       -1.747  -3.703  -0.813  0.00  0.00    +0.260 C 
ATOM     22  C   LIG    1       -2.828  -4.021   0.241  0.00  0.00    +0.250 C 
BRANCH  17  23
ATOM     23  C   LIG    1       -3.205  -7.574   1.737  0.00  0.00    +0.000 C 
ATOM     24  C   LIG    1       -3.410  -8.356   0.439  0.00  0.00    +0.020 C 
ATOM     25  C   LIG    1       -3.162  -9.844   0.695  0.00  0.00    +0.010 C 
ATOM     26  C   LIG    1       -4.143 -10.349   1.754  0.00  0.00    +0.000 C 
ATOM     27  C   LIG    1       -3.938  -9.567   3.053  0.00  0.00    +0.010 C 
ATOM     28  C   LIG    1       -4.186  -8.079   2.797  0.00  0.00    +0.040 C 
ENDBRANCH  17  23
ENDBRANCH   1  21
TORSDOF 2
