REMARK  Name = ZINCpe000027pHoB.0
REMARK                            x       y       z     vdW  Elec       q    Type
REMARK                         _______ _______ _______ _____ _____    ______ ____
ROOT
ATOM      1  C   LIG    1       -1.561   3.730  -2.105  0.00  0.00    +0.430 A 
ATOM      2  C   LIG    1       -2.946   3.540  -1.968  0.00  0.00    -0.050 A 
ATOM      3  N   LIG    1       -3.730   2.800  -1.147  0.00  0.00    -0.440 NA
ATOM      4  C   LIG    1       -4.981   3.002  -1.444  0.00  0.00    +0.480 A 
ATOM      5  N   LIG    1       -5.077   3.892  -2.472  0.00  0.00    -0.470 N 
ATOM      6  C   LIG    1       -3.801   4.255  -2.824  0.00  0.00    +0.300 A 
ATOM      7  N   LIG    1       -3.274   5.068  -3.732  0.00  0.00    -0.530 NA
ATOM      8  C   LIG    1       -1.968   5.210  -3.828  0.00  0.00    +0.530 A 
ATOM      9  N   LIG    1       -1.126   4.565  -3.043  0.00  0.00    -0.550 NA
ENDROOT
BRANCH   1  10
ATOM     10  N   LIG    1       -0.669   3.058  -1.286  0.00  0.00    -0.450 N 
BRANCH  10  11
ATOM     11  C   LIG    1        0.647   3.710  -1.294  0.00  0.00    +0.170 C 
ATOM     12  C   LIG    1        1.264   3.664  -2.707  0.00  0.00    -0.010 C 
ATOM     13  C   LIG    1        1.989   5.005  -2.914  0.00  0.00    +0.020 C 
ATOM     14  C   LIG    1        1.788   5.820  -1.619  0.00  0.00    -0.020 C 
ATOM     15  C   LIG    1        1.586   7.301  -1.945  0.00  0.00    +0.020 C 
ATOM     16  C   LIG    1        0.504   5.223  -0.991  0.00  0.00    +0.030 C 
ENDBRANCH  10  11
BRANCH  10  17
ATOM     17  C   LIG    1       -0.559   1.646  -1.675  0.00  0.00    +0.230 C 
BRANCH  17  18
ATOM     18  C   LIG    1        0.231   0.884  -0.609  0.00  0.00    +0.180 C 
BRANCH  18  20
ATOM     19  C   LIG    1        0.151   0.193   1.685  0.00  0.00    +0.200 C 
ATOM     20  O   LIG    1       -0.503   0.883   0.618  0.00  0.00    -0.370 OA
ENDBRANCH  18  20
ENDBRANCH  17  18
ENDBRANCH  10  17
ENDBRANCH   1  10
BRANCH   5  21
ATOM     21  C   LIG    1       -6.316   4.373  -3.089  0.00  0.00    +0.290 C 
BRANCH  21  22
ATOM     22  C   LIG    1       -6.632   3.528  -4.325  0.00  0.00    +0.200 C 
BRANCH  22  23
ATOM     23  O   LIG    1       -5.617   3.728  -5.311  0.00  0.00    -0.540 OA
ATOM     24  H   LIG    1       -5.530   4.645  -5.606  0.00  0.00    +0.380 HD
ENDBRANCH  22  23
BRANCH  22  25
ATOM     25  C   LIG    1       -7.987   3.948  -4.897  0.00  0.00    +0.160 C 
BRANCH  25  26
ATOM     26  O   LIG    1       -8.336   3.083  -5.979  0.00  0.00    -0.560 OA
ATOM     27  H   LIG    1       -9.186   3.291  -6.391  0.00  0.00    +0.380 HD
ENDBRANCH  25  26
ENDBRANCH  22  25
ENDBRANCH  21  22
ENDBRANCH   5  21
TORSDOF 10
