REMARK  Name = ZINCkj00000NP7cp.0
REMARK                            x       y       z     vdW  Elec       q    Type
REMARK                         _______ _______ _______ _____ _____    ______ ____
ROOT
ATOM      1  C   LIG    1       -0.013   1.086   0.008  0.00  0.00    +0.290 C 
ENDROOT
BRANCH   1   2
ATOM      2  N   LIG    1       -0.723   1.572  -1.182  0.00  0.00    -0.510 N 
ATOM      3  H   LIG    1       -0.737   2.581  -1.177  0.00  0.00    +0.430 HD
ATOM      4  H   LIG    1       -1.670   1.223  -1.175  0.00  0.00    +0.430 HD
BRANCH   2   5
ATOM      5  C   LIG    1       -0.036   1.099  -2.391  0.00  0.00    +0.170 C 
ATOM      6  C   LIG    1        1.359   1.722  -2.459  0.00  0.00    +0.040 C 
ATOM      7  C   LIG    1        2.106   1.169  -3.677  0.00  0.00    +0.090 C 
ATOM      8  C   LIG    1        1.276   1.446  -4.934  0.00  0.00    -0.150 C 
ATOM      9  C   LIG    1        1.546   2.747  -5.690  0.00  0.00    +0.030 C 
ATOM     10  C   LIG    1       -0.168   0.940  -4.881  0.00  0.00    +0.090 C 
ATOM     11  C   LIG    1        1.994   1.409  -6.283  0.00  0.00    +0.040 C 
ATOM     12  C   LIG    1       -0.844   1.500  -3.626  0.00  0.00    +0.040 C 
ENDBRANCH   2   5
ENDBRANCH   1   2
BRANCH   1  13
ATOM     13  C   LIG    1       -0.729   1.579   1.267  0.00  0.00    +0.210 C 
BRANCH  13  16
ATOM     14  N   LIG    1        1.431   0.099   3.807  0.00  0.00    -0.450 N 
ATOM     15  N   LIG    1        1.065   0.349   2.476  0.00  0.00    -0.250 NA
ATOM     16  C   LIG    1        0.000   1.080   2.488  0.00  0.00    +0.230 A 
ATOM     17  O   LIG    1       -0.353   1.331   3.764  0.00  0.00    -0.260 OA
ATOM     18  C   LIG    1        0.521   0.725   4.584  0.00  0.00    +0.610 A 
ATOM     19  O   LIG    1        0.500   0.741   5.800  0.00  0.00    -0.450 OA
BRANCH  14  20
ATOM     20  C   LIG    1        2.578  -0.689   4.265  0.00  0.00    +0.530 C 
BRANCH  20  22
ATOM     21  C   LIG    1        4.620   0.923   4.744  0.00  0.00    +0.100 C 
ATOM     22  C   LIG    1        3.714   0.207   4.532  0.00  0.00    -0.250 C 
ENDBRANCH  20  22
ENDBRANCH  14  20
ENDBRANCH  13  16
ENDBRANCH   1  13
TORSDOF 6
