REMARK  Name = ZINCvU0000000FZU.0
REMARK                            x       y       z     vdW  Elec       q    Type
REMARK                         _______ _______ _______ _____ _____    ______ ____
ROOT
ATOM      1  C   LIG    1        2.630  -6.060  -1.392  0.00  0.00    +0.520 C 
ATOM      2  O   LIG    1        3.187  -7.070  -1.014  0.00  0.00    -0.490 OA
ENDROOT
BRANCH   1   3
ATOM      3  C   LIG    1        3.411  -4.979  -2.030  0.00  0.00    -0.070 A 
ATOM      4  C   LIG    1        2.789  -3.867  -2.576  0.00  0.00    +0.070 A 
ATOM      5  C   LIG    1        3.572  -2.863  -3.174  0.00  0.00    +0.230 A 
ATOM      6  N   LIG    1        4.887  -2.943  -3.240  0.00  0.00    -0.440 NA
ATOM      7  C   LIG    1        5.565  -3.975  -2.736  0.00  0.00    +0.130 A 
ATOM      8  C   LIG    1        6.968  -4.030  -2.816  0.00  0.00    +0.050 A 
ATOM      9  C   LIG    1        7.633  -5.099  -2.297  0.00  0.00    +0.040 A 
ATOM     10  C   LIG    1        6.946  -6.144  -1.684  0.00  0.00    +0.030 A 
ATOM     11  C   LIG    1        5.586  -6.125  -1.589  0.00  0.00    +0.050 A 
ATOM     12  C   LIG    1        4.872  -5.042  -2.111  0.00  0.00    -0.060 A 
BRANCH   5  13
ATOM     13  C   LIG    1        2.900  -1.685  -3.753  0.00  0.00    -0.170 A 
ATOM     14  C   LIG    1        3.522  -0.649  -4.355  0.00  0.00    +0.070 A 
ATOM     15  C   LIG    1        2.681   0.338  -4.818  0.00  0.00    +0.010 A 
ATOM     16  C   LIG    1        1.378   0.121  -4.601  0.00  0.00    -0.030 A 
ATOM     17  S   LIG    1        1.162  -1.411  -3.765  0.00  0.00    +0.150 S 
ENDBRANCH   5  13
ENDBRANCH   1   3
BRANCH   1  18
ATOM     18  O   LIG    1        1.299  -5.923  -1.229  0.00  0.00    -0.320 OA
BRANCH  18  19
ATOM     19  C   LIG    1        0.596  -7.024  -0.594  0.00  0.00    +0.270 C 
BRANCH  19  21
ATOM     20  N   LIG    1       -1.725  -7.575   0.059  0.00  0.00    -0.570 N 
ATOM     21  C   LIG    1       -0.871  -6.694  -0.498  0.00  0.00    +0.520 C 
ATOM     22  O   LIG    1       -1.284  -5.636  -0.923  0.00  0.00    -0.500 OA
BRANCH  20  23
ATOM     23  C   LIG    1       -3.100  -7.316   0.055  0.00  0.00    +0.140 A 
ATOM     24  C   LIG    1       -3.634  -6.378   0.928  0.00  0.00    +0.020 A 
ATOM     25  C   LIG    1       -4.991  -6.121   0.919  0.00  0.00    +0.020 A 
ATOM     26  C   LIG    1       -5.819  -6.804   0.047  0.00  0.00    +0.020 A 
ATOM     27  C   LIG    1       -5.291  -7.743  -0.820  0.00  0.00    +0.020 A 
ATOM     28  C   LIG    1       -3.934  -8.001  -0.819  0.00  0.00    +0.010 A 
ENDBRANCH  20  23
BRANCH  20  30
ATOM     29  C   LIG    1       -1.720  -8.908   2.110  0.00  0.00    +0.040 C 
ATOM     30  C   LIG    1       -1.213  -8.805   0.670  0.00  0.00    +0.220 C 
ATOM     31  C   LIG    1       -1.702 -10.013  -0.131  0.00  0.00    +0.030 C 
ENDBRANCH  20  30
ENDBRANCH  19  21
ENDBRANCH  18  19
ENDBRANCH   1  18
TORSDOF 7
