REMARK  Name = ZINCrD000001YLJm.0
REMARK                            x       y       z     vdW  Elec       q    Type
REMARK                         _______ _______ _______ _____ _____    ______ ____
ROOT
ATOM      1  C   LIG    1        0.002  -0.004   0.002  0.00  0.00    +0.290 C 
ATOM      2  C   LIG    1       -0.065  -0.538   1.417  0.00  0.00    -0.110 A 
ATOM      3  C   LIG    1       -0.859  -0.154   2.484  0.00  0.00    +0.040 A 
ATOM      4  C   LIG    1       -0.744  -0.796   3.702  0.00  0.00    +0.010 A 
ATOM      5  C   LIG    1        0.165  -1.825   3.856  0.00  0.00    +0.020 A 
ATOM      6  C   LIG    1        0.957  -2.211   2.792  0.00  0.00    +0.010 A 
ATOM      7  C   LIG    1        0.844  -1.568   1.571  0.00  0.00    -0.090 A 
ATOM      8  C   LIG    1        1.584  -1.797   0.270  0.00  0.00    +0.090 C 
ATOM      9  C   LIG    1        1.344  -0.518  -0.561  0.00  0.00    +0.260 C 
ENDROOT
BRANCH   1  11
ATOM     10  C   LIG    1       -1.194   2.119   0.019  0.00  0.00    +0.550 C 
ATOM     11  N   LIG    1       -0.018   1.461   0.010  0.00  0.00    -0.720 N 
ATOM     12  H   LIG    1        0.816   1.957   0.005  0.00  0.00    +0.400 HD
ATOM     13  O   LIG    1       -2.239   1.496   0.021  0.00  0.00    -0.540 OA
BRANCH  10  15
ATOM     14  C   LIG    1       -2.375   4.239   0.036  0.00  0.00    +0.150 C 
ATOM     15  C   LIG    1       -1.214   3.590   0.027  0.00  0.00    -0.090 C 
ENDBRANCH  10  15
ENDBRANCH   1  11
BRANCH   9  16
ATOM     16  N   LIG    1        1.223  -0.838  -1.985  0.00  0.00    -0.700 N 
ATOM     17  H   LIG    1        0.358  -1.069  -2.359  0.00  0.00    +0.410 HD
ATOM     18  C   LIG    1        2.314  -0.813  -2.776  0.00  0.00    +0.600 C 
ATOM     19  O   LIG    1        3.398  -0.524  -2.308  0.00  0.00    -0.520 OA
BRANCH  18  20
ATOM     20  C   LIG    1        2.192  -1.134  -4.210  0.00  0.00    +0.080 A 
ATOM     21  N   LIG    1        1.055  -1.452  -4.745  0.00  0.00    -0.490 NA
ATOM     22  S   LIG    1        1.195  -1.742  -6.271  0.00  0.00    +0.410 S 
ATOM     23  C   LIG    1        2.931  -1.464  -6.402  0.00  0.00    -0.210 A 
ATOM     24  C   LIG    1        3.843  -1.523  -7.444  0.00  0.00    +0.070 A 
ATOM     25  C   LIG    1        5.170  -1.240  -7.202  0.00  0.00    +0.050 A 
ATOM     26  C   LIG    1        5.589  -0.898  -5.923  0.00  0.00    -0.080 A 
ATOM     27  C   LIG    1        4.704  -0.836  -4.887  0.00  0.00    +0.100 A 
ATOM     28  C   LIG    1        7.043  -0.592  -5.676  0.00  0.00    +0.100 C 
ATOM     29  C   LIG    1        3.346  -1.119  -5.103  0.00  0.00    -0.080 A 
ENDBRANCH  18  20
ENDBRANCH   9  16
TORSDOF 4
