REMARK  Name = ZINCqH0000032v6M.0
REMARK                            x       y       z     vdW  Elec       q    Type
REMARK                         _______ _______ _______ _____ _____    ______ ____
ROOT
ATOM      1  N   LIG    1        1.044   3.358   0.065  0.00  0.00    -0.460 N 
ATOM      2  C   LIG    1        1.813   3.925   1.181  0.00  0.00    +0.210 C 
ATOM      3  C   LIG    1        1.876   5.449   1.030  0.00  0.00    +0.290 C 
ATOM      4  N   LIG    1        0.504   5.963   0.895  0.00  0.00    -0.630 N 
ATOM      5  C   LIG    1       -0.373   5.347  -0.112  0.00  0.00    +0.320 C 
ATOM      6  C   LIG    1        0.063   6.970   1.674  0.00  0.00    +0.710 C 
ATOM      7  N   LIG    1        0.847   7.454   2.658  0.00  0.00    -0.680 N 
ATOM      8  H   LIG    1        1.758   7.135   2.753  0.00  0.00    +0.410 HD
ATOM      9  O   LIG    1       -1.042   7.443   1.489  0.00  0.00    -0.560 OA
ATOM     10  C   LIG    1       -0.348   3.828   0.084  0.00  0.00    +0.230 C 
ENDROOT
BRANCH   7  11
ATOM     11  C   LIG    1        0.345   8.416   3.544  0.00  0.00    +0.150 A 
ATOM     12  C   LIG    1       -0.991   8.387   3.917  0.00  0.00    +0.060 A 
ATOM     13  C   LIG    1       -1.484   9.338   4.792  0.00  0.00    +0.060 A 
ATOM     14  C   LIG    1       -0.649  10.316   5.296  0.00  0.00    +0.050 A 
ATOM     15  C   LIG    1        0.685  10.349   4.926  0.00  0.00    -0.050 A 
ATOM     16 CL   LIG    1        1.731  11.581   5.561  0.00  0.00    -0.040 Cl
ATOM     17  C   LIG    1        1.186   9.397   4.056  0.00  0.00    +0.080 A 
ATOM     18  F   LIG    1        2.489   9.425   3.700  0.00  0.00    -0.130 F 
ENDBRANCH   7  11
BRANCH   1  23
ATOM     19  C   LIG    1        2.372   0.056   0.072  0.00  0.00    +0.210 A 
ATOM     20  C   LIG    1        1.210  -0.700   0.097  0.00  0.00    -0.110 A 
ATOM     21  C   LIG    1       -0.009  -0.041   0.112  0.00  0.00    +0.350 A 
ATOM     22  N   LIG    1       -0.028   1.281   0.101  0.00  0.00    -0.550 NA
ATOM     23  C   LIG    1        1.100   1.975   0.076  0.00  0.00    +0.490 A 
ATOM     24  N   LIG    1        2.282   1.376   0.062  0.00  0.00    -0.530 NA
BRANCH  19  26
ATOM     25  C   LIG    1        4.144  -0.945   1.488  0.00  0.00    +0.050 C 
ATOM     26  C   LIG    1        3.720  -0.617   0.055  0.00  0.00    +0.050 C 
ATOM     27  C   LIG    1        3.635  -1.909  -0.761  0.00  0.00    +0.040 C 
ENDBRANCH  19  26
ENDBRANCH   1  23
TORSDOF 3
