REMARK  Name = ZINCkj000005kRel.0
REMARK                            x       y       z     vdW  Elec       q    Type
REMARK                         _______ _______ _______ _____ _____    ______ ____
ROOT
ATOM      1  N   LIG    1       -1.861   5.386   1.506  0.00  0.00    -0.500 N 
ATOM      2  H   LIG    1       -0.920   5.688   1.305  0.00  0.00    +0.430 HD
ATOM      3  H   LIG    1       -1.957   5.222   2.498  0.00  0.00    +0.430 HD
ENDROOT
BRANCH   1   4
ATOM      4  C   LIG    1       -2.145   4.144   0.775  0.00  0.00    +0.180 C 
ATOM      5  C   LIG    1       -1.851   4.317  -0.733  0.00  0.00    +0.060 C 
ATOM      6  C   LIG    1       -1.199   2.993  -1.170  0.00  0.00    +0.220 C 
ATOM      7  N   LIG    1       -1.160   2.115   0.019  0.00  0.00    -0.430 N 
ATOM      8  C   LIG    1       -1.159   3.024   1.194  0.00  0.00    +0.230 C 
BRANCH   7   9
ATOM      9  C   LIG    1       -0.016   1.308   0.009  0.00  0.00    +0.220 A 
ATOM     10  N   LIG    1        0.002  -0.004   0.002  0.00  0.00    -0.250 NA
ATOM     11  N   LIG    1        1.339  -0.423  -0.013  0.00  0.00    -0.360 N 
ATOM     12  C   LIG    1        2.121   0.677  -0.015  0.00  0.00    +0.260 A 
ATOM     13  C   LIG    1        1.805  -1.811  -0.024  0.00  0.00    +0.370 C 
ATOM     14  C   LIG    1        1.313   1.761  -0.001  0.00  0.00    -0.160 A 
ENDBRANCH   7   9
ENDBRANCH   1   4
BRANCH   1  15
ATOM     15  C   LIG    1       -2.809   6.428   1.089  0.00  0.00    +0.390 C 
BRANCH  15  22
ATOM     16  C   LIG    1       -0.810   8.829   0.216  0.00  0.00    +0.170 C 
ATOM     17  C   LIG    1       -1.649   8.753   1.466  0.00  0.00    +0.040 A 
ATOM     18  N   LIG    1       -1.718   9.641   2.415  0.00  0.00    -0.340 NA
ATOM     19  O   LIG    1       -2.479   9.300   3.290  0.00  0.00    +0.120 OA
ATOM     20  C   LIG    1       -3.033   8.108   3.024  0.00  0.00    +0.040 A 
ATOM     21  C   LIG    1       -4.031   7.367   3.876  0.00  0.00    +0.200 C 
ATOM     22  C   LIG    1       -2.518   7.702   1.839  0.00  0.00    -0.300 A 
ENDBRANCH  15  22
ENDBRANCH   1  15
TORSDOF 4
