REMARK  Name = ZINCkj0000059CUl.2
REMARK                            x       y       z     vdW  Elec       q    Type
REMARK                         _______ _______ _______ _____ _____    ______ ____
ROOT
ATOM      1  C   LIG    1        0.104   1.291  -0.548  0.00  0.00    +0.500 C 
ATOM      2  N   LIG    1        1.177   1.844  -1.147  0.00  0.00    -0.620 N 
ATOM      3  H   LIG    1        1.139   2.761  -1.462  0.00  0.00    +0.430 HD
ATOM      4  O   LIG    1        0.118   0.118  -0.242  0.00  0.00    -0.500 OA
ENDROOT
BRANCH   1  10
ATOM      5  C   LIG    1       -1.908   0.295  -1.606  0.00  0.00    +0.330 C 
ATOM      6  N   LIG    1       -2.303   1.512  -0.884  0.00  0.00    -0.380 N 
ATOM      7  C   LIG    1       -3.265   1.167   0.184  0.00  0.00    +0.270 C 
ATOM      8  C   LIG    1       -2.919   2.123   1.352  0.00  0.00    +0.080 C 
ATOM      9  C   LIG    1       -1.372   2.188   1.255  0.00  0.00    +0.100 C 
ATOM     10  C   LIG    1       -1.116   2.130  -0.265  0.00  0.00    +0.170 C 
ATOM     11  H   LIG    1       -2.730   2.165  -1.525  0.00  0.00    +0.430 HD
ENDBRANCH   1  10
BRANCH   2  12
ATOM     12  C   LIG    1        2.349   1.095  -1.314  0.00  0.00    +0.090 A 
ATOM     13  C   LIG    1        2.571  -0.047  -0.553  0.00  0.00    +0.100 A 
ATOM     14  C   LIG    1        3.746  -0.755  -0.755  0.00  0.00    +0.010 A 
ATOM     15  C   LIG    1        4.653  -0.310  -1.696  0.00  0.00    +0.310 A 
ATOM     16  N   LIG    1        4.417   0.778  -2.405  0.00  0.00    -0.480 NA
ATOM     17  C   LIG    1        3.308   1.481  -2.251  0.00  0.00    +0.350 A 
BRANCH  17  18
ATOM     18  N   LIG    1        3.099   2.624  -3.029  0.00  0.00    -0.330 N 
ATOM     19  C   LIG    1        4.062   3.389  -3.604  0.00  0.00    +0.290 A 
ATOM     20  C   LIG    1        3.446   4.395  -4.267  0.00  0.00    -0.100 A 
ATOM     21  C   LIG    1        2.066   4.244  -4.094  0.00  0.00    +0.280 A 
ATOM     22  N   LIG    1        1.856   3.182  -3.358  0.00  0.00    -0.330 NA
ENDBRANCH  17  18
ENDBRANCH   2  12
TORSDOF 3
