REMARK  Name = ZINCkj0000059CUl.1
REMARK                            x       y       z     vdW  Elec       q    Type
REMARK                         _______ _______ _______ _____ _____    ______ ____
ROOT
ATOM      1  C   LIG    1       -3.616  -0.082  -1.420  0.00  0.00    +0.510 C 
ATOM      2  N   LIG    1       -2.430   0.418  -1.019  0.00  0.00    -0.620 N 
ATOM      3  H   LIG    1       -1.628  -0.122  -1.087  0.00  0.00    +0.420 HD
ATOM      4  O   LIG    1       -4.605   0.620  -1.410  0.00  0.00    -0.520 OA
ENDROOT
BRANCH   1  10
ATOM      5  C   LIG    1       -5.958  -2.148  -1.208  0.00  0.00    +0.330 C 
ATOM      6  N   LIG    1       -5.090  -1.816  -2.346  0.00  0.00    -0.380 N 
ATOM      7  C   LIG    1       -4.924  -2.996  -3.234  0.00  0.00    +0.280 C 
ATOM      8  C   LIG    1       -3.619  -2.718  -4.011  0.00  0.00    +0.080 C 
ATOM      9  C   LIG    1       -2.823  -1.743  -3.119  0.00  0.00    +0.080 C 
ATOM     10  C   LIG    1       -3.713  -1.514  -1.879  0.00  0.00    +0.180 C 
ATOM     11  H   LIG    1       -5.467  -1.036  -2.863  0.00  0.00    +0.430 HD
ENDBRANCH   1  10
BRANCH   2  12
ATOM     12  C   LIG    1       -2.357   1.718  -0.505  0.00  0.00    +0.080 A 
ATOM     13  C   LIG    1       -3.183   2.721  -1.000  0.00  0.00    +0.110 A 
ATOM     14  C   LIG    1       -3.070   3.995  -0.463  0.00  0.00    +0.000 A 
ATOM     15  C   LIG    1       -2.152   4.227   0.543  0.00  0.00    +0.320 A 
ATOM     16  N   LIG    1       -1.384   3.256   0.998  0.00  0.00    -0.480 NA
ATOM     17  C   LIG    1       -1.457   2.027   0.516  0.00  0.00    +0.360 A 
BRANCH  17  18
ATOM     18  N   LIG    1       -0.622   1.030   1.029  0.00  0.00    -0.330 N 
ATOM     19  C   LIG    1        0.583   1.223   1.626  0.00  0.00    +0.280 A 
ATOM     20  C   LIG    1        1.068   0.009   1.973  0.00  0.00    -0.100 A 
ATOM     21  C   LIG    1        0.136  -0.957   1.578  0.00  0.00    +0.280 A 
ATOM     22  N   LIG    1       -0.875  -0.348   1.013  0.00  0.00    -0.320 NA
ENDBRANCH  17  18
ENDBRANCH   2  12
TORSDOF 3
