REMARK  Name = ZINCpk00000jeKSx.0
REMARK                            x       y       z     vdW  Elec       q    Type
REMARK                         _______ _______ _______ _____ _____    ______ ____
ROOT
ATOM      1  C   LIG    1        1.308  -1.539   1.500  0.00  0.00    +0.540 C 
ATOM      2  N   LIG    1        1.153  -0.370   0.847  0.00  0.00    -0.620 N 
ATOM      3  C   LIG    1        2.105   0.750   0.860  0.00  0.00    +0.240 C 
ATOM      4  C   LIG    1        1.497   1.877  -0.002  0.00  0.00    +0.040 C 
ATOM      5  C   LIG    1       -0.019   1.545   0.011  0.00  0.00    -0.020 C 
ATOM      6  C   LIG    1        0.002  -0.004   0.002  0.00  0.00    +0.260 C 
ATOM      7  O   LIG    1        0.454  -2.397   1.419  0.00  0.00    -0.530 OA
ENDROOT
BRANCH   1  10
ATOM      8  C   LIG    1        4.083  -3.198   2.646  0.00  0.00    -0.010 C 
ATOM      9  C   LIG    1        2.583  -3.173   2.982  0.00  0.00    +0.060 C 
ATOM     10  C   LIG    1        2.541  -1.780   2.332  0.00  0.00    -0.030 C 
ATOM     11  C   LIG    1        3.765  -2.211   1.508  0.00  0.00    +0.030 C 
BRANCH   8  13
ATOM     12  C   LIG    1        6.077  -4.478   1.851  0.00  0.00    +0.000 C 
ATOM     13  C   LIG    1        4.580  -4.560   2.157  0.00  0.00    -0.020 C 
ATOM     14  C   LIG    1        4.338  -5.611   3.242  0.00  0.00    +0.010 C 
ENDBRANCH   8  13
ENDBRANCH   1  10
BRANCH   5  15
ATOM     15  C   LIG    1       -0.711   2.091  -1.240  0.00  0.00    +0.290 C 
BRANCH  15  16
ATOM     16  N   LIG    1       -0.818   3.549  -1.142  0.00  0.00    -0.710 N 
ATOM     17  H   LIG    1       -0.473   4.009  -0.361  0.00  0.00    +0.410 HD
ATOM     18  C   LIG    1       -1.397   4.250  -2.136  0.00  0.00    +0.600 C 
ATOM     19  O   LIG    1       -1.829   3.674  -3.115  0.00  0.00    -0.520 OA
BRANCH  18  20
ATOM     20  C   LIG    1       -1.506   5.726  -2.037  0.00  0.00    -0.030 A 
ATOM     21  N   LIG    1       -1.094   6.481  -1.049  0.00  0.00    -0.320 NA
ATOM     22  O   LIG    1       -1.321   7.649  -1.261  0.00  0.00    +0.130 OA
ATOM     23  C   LIG    1       -1.936   7.832  -2.437  0.00  0.00    -0.030 A 
ATOM     24  C   LIG    1       -2.084   6.607  -2.992  0.00  0.00    +0.030 A 
BRANCH  23  25
ATOM     25  C   LIG    1       -2.376   9.147  -3.028  0.00  0.00    +0.330 C 
BRANCH  25  26
ATOM     26  O   LIG    1       -3.712   9.434  -2.609  0.00  0.00    -0.570 OA
ATOM     27  H   LIG    1       -4.062  10.267  -2.952  0.00  0.00    +0.400 HD
ENDBRANCH  25  26
ENDBRANCH  23  25
ENDBRANCH  18  20
ENDBRANCH  15  16
ENDBRANCH   5  15
TORSDOF 7
