REMARK  Name = ZINCvU0000000E0Q.0
REMARK                            x       y       z     vdW  Elec       q    Type
REMARK                         _______ _______ _______ _____ _____    ______ ____
ROOT
ATOM      1  N   LIG    1       -2.651   0.333   4.288  0.00  0.00    -0.660 N 
ATOM      2  H   LIG    1       -2.566  -0.607   4.064  0.00  0.00    +0.420 HD
ATOM      3  C   LIG    1       -3.262   0.700   5.432  0.00  0.00    +0.610 C 
ATOM      4  O   LIG    1       -3.455   1.879   5.668  0.00  0.00    -0.490 OA
ENDROOT
BRANCH   1   7
ATOM      5  C   LIG    1       -1.650   2.058   1.200  0.00  0.00    -0.650 A 
ATOM      6  C   LIG    1       -2.159   1.097   2.051  0.00  0.00    +0.130 A 
ATOM      7  C   LIG    1       -2.141   1.307   3.424  0.00  0.00    +0.130 A 
ATOM      8  C   LIG    1       -1.622   2.489   3.936  0.00  0.00    +0.090 A 
ATOM      9  C   LIG    1       -1.119   3.449   3.080  0.00  0.00    +0.050 A 
ATOM     10  C   LIG    1       -1.133   3.234   1.713  0.00  0.00    +0.040 A 
ATOM     11 CL   LIG    1       -0.500   4.444   0.640  0.00  0.00    -0.040 Cl
BRANCH   5  12
ATOM     12  S   LIG    1       -1.665   1.789  -0.541  0.00  0.00    +2.690 S 
ATOM     13  O   LIG    1       -0.360   2.103  -1.008  0.00  0.00    -0.930 OA
ATOM     14  O   LIG    1       -2.281   0.525  -0.747  0.00  0.00    -0.950 OA
BRANCH  12  16
ATOM     15  C   LIG    1       -2.156   4.217  -1.627  0.00  0.00    +0.300 C 
ATOM     16  N   LIG    1       -2.682   2.917  -1.202  0.00  0.00    -1.000 NA
ATOM     17  C   LIG    1       -4.106   2.615  -1.362  0.00  0.00    +0.310 C 
ENDBRANCH  12  16
ENDBRANCH   5  12
ENDBRANCH   1   7
BRANCH   3  18
ATOM     18  C   LIG    1       -3.692  -0.319   6.393  0.00  0.00    -0.080 A 
ATOM     19  C   LIG    1       -4.319  -0.082   7.597  0.00  0.00    +0.070 A 
ATOM     20  C   LIG    1       -4.550  -1.331   8.183  0.00  0.00    -0.030 A 
ATOM     21  C   LIG    1       -4.053  -2.273   7.330  0.00  0.00    +0.070 A 
ATOM     22  O   LIG    1       -3.540  -1.653   6.255  0.00  0.00    -0.160 OA
BRANCH  21  23
ATOM     23  C   LIG    1       -4.077  -3.733   7.551  0.00  0.00    -0.030 A 
ATOM     24  C   LIG    1       -4.642  -4.257   8.716  0.00  0.00    +0.080 A 
ATOM     25  C   LIG    1       -4.661  -5.622   8.916  0.00  0.00    +0.040 A 
ATOM     26  C   LIG    1       -4.122  -6.471   7.966  0.00  0.00    +0.090 A 
ATOM     27  C   LIG    1       -3.560  -5.959   6.810  0.00  0.00    -0.180 A 
ATOM     28  C   LIG    1       -3.539  -4.597   6.595  0.00  0.00    +0.090 A 
BRANCH  27  29
ATOM     29  C   LIG    1       -2.975  -6.892   5.781  0.00  0.00    +0.510 C 
ATOM     30  F   LIG    1       -1.617  -6.602   5.607  0.00  0.00    -0.170 F 
ATOM     31  F   LIG    1       -3.647  -6.726   4.566  0.00  0.00    -0.170 F 
ATOM     32  F   LIG    1       -3.117  -8.214   6.216  0.00  0.00    -0.170 F 
ENDBRANCH  27  29
ENDBRANCH  21  23
ENDBRANCH   3  18
TORSDOF 6
