REMARK  Name = ZINCrH000004seXh.0
REMARK                            x       y       z     vdW  Elec       q    Type
REMARK                         _______ _______ _______ _____ _____    ______ ____
ROOT
ATOM      1  C   LIG    1       -1.161  -2.175  -0.073  0.00  0.00    +0.250 C 
ATOM      2  C   LIG    1       -0.579  -2.672  -1.426  0.00  0.00    +0.180 C 
ATOM      3  S   LIG    1       -1.219  -4.400  -1.425  0.00  0.00    -0.230 S 
ATOM      4  C   LIG    1       -2.774  -3.989  -0.541  0.00  0.00    +0.370 C 
ATOM      5  N   LIG    1       -2.520  -2.686   0.090  0.00  0.00    -0.600 N 
ATOM      6  C   LIG    1       -3.469  -2.014   0.770  0.00  0.00    +0.600 C 
ATOM      7  O   LIG    1       -3.240  -0.895   1.190  0.00  0.00    -0.490 OA
ENDROOT
BRANCH   6   8
ATOM      8  C   LIG    1       -4.783  -2.632   1.004  0.00  0.00    +0.030 A 
ATOM      9  C   LIG    1       -5.127  -3.902   0.668  0.00  0.00    +0.010 A 
ATOM     10  C   LIG    1       -6.472  -4.104   1.062  0.00  0.00    -0.110 A 
ATOM     11  C   LIG    1       -7.346  -5.195   0.975  0.00  0.00    +0.090 A 
ATOM     12  C   LIG    1       -8.620  -5.084   1.456  0.00  0.00    -0.060 A 
ATOM     13  C   LIG    1       -9.057  -3.898   2.033  0.00  0.00    +0.060 A 
ATOM     14  C   LIG    1       -8.216  -2.813   2.130  0.00  0.00    +0.020 A 
ATOM     15 CL   LIG    1       -9.701  -6.438   1.345  0.00  0.00    -0.070 Cl
ATOM     16  C   LIG    1       -6.913  -2.901   1.647  0.00  0.00    +0.110 A 
ATOM     17  N   LIG    1       -5.862  -2.015   1.607  0.00  0.00    -0.440 N 
ATOM     18  C   LIG    1       -5.885  -0.641   2.115  0.00  0.00    +0.330 C 
ENDBRANCH   6   8
BRANCH   1  21
ATOM     19  N   LIG    1       -0.128   0.019   0.414  0.00  0.00    -0.630 N 
ATOM     20  H   LIG    1        0.649  -0.455   0.747  0.00  0.00    +0.420 HD
ATOM     21  C   LIG    1       -1.186  -0.668  -0.061  0.00  0.00    +0.510 C 
ATOM     22  O   LIG    1       -2.157  -0.074  -0.478  0.00  0.00    -0.430 OA
BRANCH  19  27
ATOM     23  C   LIG    1        0.611   5.270   0.820  0.00  0.00    +0.160 C 
ATOM     24  C   LIG    1        0.175   3.843   0.606  0.00  0.00    -0.240 A 
ATOM     25  C   LIG    1       -0.990   3.448   0.089  0.00  0.00    +0.240 A 
ATOM     26  N   LIG    1       -1.134   2.139  -0.001  0.00  0.00    -0.470 NA
ATOM     27  C   LIG    1       -0.151   1.409   0.425  0.00  0.00    +0.270 A 
ATOM     28  S   LIG    1        1.116   2.405   0.996  0.00  0.00    +0.120 S 
ENDBRANCH  19  27
ENDBRANCH   1  21
TORSDOF 3
