REMARK  Name = ZINCpe00000MJISo.0
REMARK                            x       y       z     vdW  Elec       q    Type
REMARK                         _______ _______ _______ _____ _____    ______ ____
ROOT
ATOM      1  C   LIG    1       -0.086   1.044   0.018  0.00  0.00    +0.060 C 
ATOM      2  C   LIG    1       -0.486   1.805   1.284  0.00  0.00    +0.230 C 
ATOM      3  C   LIG    1       -0.042   3.267   1.169  0.00  0.00    +0.170 C 
ATOM      4  N   LIG    1       -0.289   3.953   2.444  0.00  0.00    -0.520 NA
ATOM      5  C   LIG    1        0.512   3.368   3.527  0.00  0.00    +0.170 C 
ATOM      6  C   LIG    1        0.091   1.910   3.740  0.00  0.00    +0.280 C 
ATOM      7  N   LIG    1        0.179   1.206   2.451  0.00  0.00    -0.600 N 
ATOM      8  C   LIG    1        0.850   0.042   2.343  0.00  0.00    +0.590 C 
ATOM      9  O   LIG    1        1.012  -0.468   1.250  0.00  0.00    -0.540 OA
ENDROOT
BRANCH   8  10
ATOM     10  C   LIG    1        1.386  -0.611   3.544  0.00  0.00    -0.050 A 
ATOM     11  C   LIG    1        0.968  -0.394   4.824  0.00  0.00    +0.080 A 
ATOM     12  C   LIG    1        1.747  -1.227   5.659  0.00  0.00    -0.230 A 
ATOM     13  C   LIG    1        2.622  -1.917   4.842  0.00  0.00    +0.250 A 
ATOM     14  N   LIG    1        2.401  -1.542   3.572  0.00  0.00    -0.400 N 
ATOM     15  C   LIG    1        3.124  -2.044   2.401  0.00  0.00    +0.340 C 
BRANCH  12  16
ATOM     16  C   LIG    1        1.647  -1.336   7.126  0.00  0.00    +0.590 C 
ATOM     17  O   LIG    1        0.829  -0.670   7.731  0.00  0.00    -0.540 OA
ATOM     18  N   LIG    1        2.463  -2.173   7.796  0.00  0.00    -0.850 N 
ATOM     19  H   LIG    1        2.398  -2.245   8.761  0.00  0.00    +0.410 HD
ATOM     20  H   LIG    1        3.116  -2.704   7.314  0.00  0.00    +0.400 HD
ENDBRANCH  12  16
ENDBRANCH   8  10
BRANCH   4  21
ATOM     21  C   LIG    1       -0.038   5.395   2.323  0.00  0.00    +0.280 C 
BRANCH  21  22
ATOM     22  C   LIG    1        1.384   5.622   1.880  0.00  0.00    -0.180 A 
ATOM     23  C   LIG    1        2.396   5.768   2.816  0.00  0.00    +0.060 A 
ATOM     24  C   LIG    1        3.691   5.970   2.362  0.00  0.00    -0.030 A 
ATOM     25  C   LIG    1        3.926   6.030   1.002  0.00  0.00    +0.260 A 
ATOM     26  N   LIG    1        2.938   5.892   0.140  0.00  0.00    -0.480 NA
ATOM     27  C   LIG    1        1.695   5.693   0.535  0.00  0.00    +0.260 A 
ENDBRANCH  21  22
ENDBRANCH   4  21
TORSDOF 4
