REMARK  Name = ZINCfl000000kv4f.1
REMARK                            x       y       z     vdW  Elec       q    Type
REMARK                         _______ _______ _______ _____ _____    ______ ____
ROOT
ATOM      1  C   LIG    1       -0.014   1.209   0.009  0.00  0.00    +0.500 C 
ATOM      2  N   LIG    1        1.143   1.898   0.001  0.00  0.00    -0.670 NA
ATOM      3  O   LIG    1        0.002  -0.004   0.002  0.00  0.00    -0.570 OA
ENDROOT
BRANCH   2   4
ATOM      4  C   LIG    1        2.357   1.220  -0.014  0.00  0.00    +0.350 A 
ATOM      5  N   LIG    1        2.486  -0.070  -0.016  0.00  0.00    -0.570 NA
ATOM      6  C   LIG    1        3.717  -0.547  -0.036  0.00  0.00    +0.300 A 
ATOM      7  C   LIG    1        4.673   0.384  -0.041  0.00  0.00    -0.360 A 
ATOM      8 BR   LIG    1        6.537   0.063  -0.059  0.00  0.00    -0.050 Br
ATOM      9  S   LIG    1        3.895   1.965  -0.025  0.00  0.00    +0.050 S 
ENDBRANCH   2   4
BRANCH   1  12
ATOM     10  C   LIG    1       -2.609   1.105   0.020  0.00  0.00    -0.080 C 
ATOM     11  C   LIG    1       -2.194   1.864  -1.241  0.00  0.00    +0.010 C 
ATOM     12  C   LIG    1       -1.330   1.944   0.019  0.00  0.00    -0.030 C 
BRANCH  10  14
ATOM     13  O   LIG    1       -4.922   1.371   0.435  0.00  0.00    -0.710 OA
ATOM     14  C   LIG    1       -3.788   1.634   0.796  0.00  0.00    +0.520 C 
ATOM     15  O   LIG    1       -3.607   2.326   1.783  0.00  0.00    -0.700 OA
ENDBRANCH  10  14
ENDBRANCH   1  12
TORSDOF 3
