REMARK  Name = ZINCrH000004msvX.0
REMARK                            x       y       z     vdW  Elec       q    Type
REMARK                         _______ _______ _______ _____ _____    ______ ____
ROOT
ATOM      1  S   LIG    1       -0.881   2.077   1.415  0.00  0.00    +0.060 S 
ENDROOT
BRANCH   1   2
ATOM      2  C   LIG    1       -0.753   3.824   1.223  0.00  0.00    +0.150 A 
ATOM      3  N   LIG    1       -0.163   4.458   0.235  0.00  0.00    -0.290 NA
ATOM      4  N   LIG    1       -0.255   5.728   0.409  0.00  0.00    -0.260 NA
ATOM      5  C   LIG    1       -0.909   5.983   1.518  0.00  0.00    +0.230 A 
ATOM      6  N   LIG    1       -1.253   4.771   2.071  0.00  0.00    -0.460 N 
ATOM      7  C   LIG    1       -1.998   4.543   3.312  0.00  0.00    +0.360 C 
BRANCH   5   8
ATOM      8  C   LIG    1       -1.222   7.319   2.067  0.00  0.00    -0.030 A 
ATOM      9  C   LIG    1       -2.519   7.619   2.486  0.00  0.00    +0.020 A 
ATOM     10  C   LIG    1       -2.804   8.868   2.998  0.00  0.00    +0.010 A 
ATOM     11  C   LIG    1       -1.807   9.822   3.096  0.00  0.00    +0.030 A 
ATOM     12  C   LIG    1       -0.519   9.532   2.683  0.00  0.00    +0.010 A 
ATOM     13  C   LIG    1       -0.220   8.285   2.174  0.00  0.00    -0.040 A 
ATOM     14  C   LIG    1        1.185   7.968   1.730  0.00  0.00    +0.100 C 
ENDBRANCH   5   8
ENDBRANCH   1   2
BRANCH   1  15
ATOM     15  C   LIG    1       -0.006   1.532  -0.073  0.00  0.00    +0.090 C 
BRANCH  15  16
ATOM     16  C   LIG    1        0.011   0.026  -0.123  0.00  0.00    +0.420 C 
ATOM     17  O   LIG    1       -0.518  -0.616   0.761  0.00  0.00    -0.430 OA
BRANCH  16  21
ATOM     18  C   LIG    1        1.903  -1.959  -3.351  0.00  0.00    +0.210 A 
ATOM     19  C   LIG    1        1.884  -0.568  -3.299  0.00  0.00    -0.120 A 
ATOM     20  C   LIG    1        1.271   0.076  -2.263  0.00  0.00    +0.150 A 
ATOM     21  C   LIG    1        0.665  -0.662  -1.238  0.00  0.00    -0.240 A 
ATOM     22  C   LIG    1        0.682  -2.068  -1.288  0.00  0.00    +0.230 A 
ATOM     23  C   LIG    1        1.303  -2.707  -2.348  0.00  0.00    -0.110 A 
BRANCH  18  25
ATOM     24  C   LIG    1        3.109  -1.759  -5.388  0.00  0.00    +0.250 C 
ATOM     25  O   LIG    1        2.511  -2.587  -4.389  0.00  0.00    -0.310 OA
ENDBRANCH  18  25
BRANCH  22  26
ATOM     26  O   LIG    1        0.094  -2.793  -0.305  0.00  0.00    -0.280 OA
ATOM     27  C   LIG    1        0.152  -4.216  -0.425  0.00  0.00    +0.250 C 
ENDBRANCH  22  26
ENDBRANCH  16  21
ENDBRANCH  15  16
ENDBRANCH   1  15
TORSDOF 7
