REMARK  Name = ZINCrH000004smpE.0
REMARK                            x       y       z     vdW  Elec       q    Type
REMARK                         _______ _______ _______ _____ _____    ______ ____
ROOT
ATOM      1  N   LIG    1        5.259  -1.687   1.329  0.00  0.00    -0.730 N 
ATOM      2  H   LIG    1        4.922  -1.162   2.072  0.00  0.00    +0.400 HD
ATOM      3  C   LIG    1        5.964  -2.811   1.564  0.00  0.00    +0.560 C 
ATOM      4  O   LIG    1        6.386  -3.470   0.634  0.00  0.00    -0.520 OA
ENDROOT
BRANCH   3   5
ATOM      5  C   LIG    1        6.223  -3.244   2.954  0.00  0.00    -0.110 A 
ATOM      6  C   LIG    1        5.745  -2.487   4.024  0.00  0.00    +0.020 A 
ATOM      7  C   LIG    1        5.982  -2.897   5.321  0.00  0.00    +0.040 A 
ATOM      8  C   LIG    1        6.705  -4.050   5.564  0.00  0.00    +0.000 A 
ATOM      9  C   LIG    1        7.192  -4.808   4.505  0.00  0.00    +0.160 A 
ATOM     10  C   LIG    1        6.952  -4.408   3.200  0.00  0.00    +0.070 A 
BRANCH   9  11
ATOM     11  N   LIG    1        7.923  -5.974   4.757  0.00  0.00    -0.560 N 
ATOM     12  C   LIG    1        8.339  -6.418   6.093  0.00  0.00    +0.260 C 
ATOM     13  C   LIG    1        8.706  -7.912   5.932  0.00  0.00    +0.060 C 
ATOM     14  C   LIG    1        9.089  -7.982   4.436  0.00  0.00    +0.070 C 
ATOM     15  C   LIG    1        8.338  -6.829   3.807  0.00  0.00    +0.510 C 
ATOM     16  O   LIG    1        8.140  -6.696   2.618  0.00  0.00    -0.500 OA
ENDBRANCH   9  11
ENDBRANCH   3   5
BRANCH   1  17
ATOM     17  C   LIG    1        5.002  -1.258  -0.047  0.00  0.00    +0.400 C 
BRANCH  17  21
ATOM     18  C   LIG    1        2.489   1.395  -0.021  0.00  0.00    +0.060 A 
ATOM     19  C   LIG    1        3.615   2.156  -0.017  0.00  0.00    +0.000 A 
ATOM     20  C   LIG    1        4.708   1.265  -0.019  0.00  0.00    -0.020 A 
ATOM     21  C   LIG    1        4.200   0.018  -0.035  0.00  0.00    -0.030 A 
ATOM     22  O   LIG    1        2.858   0.100  -0.036  0.00  0.00    -0.160 OA
BRANCH  18  26
ATOM     23  C   LIG    1       -0.976   4.919   0.015  0.00  0.00    +0.190 C 
ATOM     24  C   LIG    1       -0.446   3.509  -0.001  0.00  0.00    +0.060 A 
ATOM     25  N   LIG    1        0.802   3.194  -0.003  0.00  0.00    -0.460 NA
ATOM     26  C   LIG    1        1.100   1.901  -0.018  0.00  0.00    +0.140 A 
ATOM     27  C   LIG    1        0.021   1.089  -0.029  0.00  0.00    -0.060 A 
ATOM     28  S   LIG    1       -1.419   2.104  -0.025  0.00  0.00    +0.150 S 
ENDBRANCH  18  26
ENDBRANCH  17  21
ENDBRANCH   1  17
TORSDOF 5
