REMARK  Name = ZINCtV00000tRSi6.0
REMARK                            x       y       z     vdW  Elec       q    Type
REMARK                         _______ _______ _______ _____ _____    ______ ____
ROOT
ATOM      1  N   LIG    1       -2.350   1.490  -0.080  0.00  0.00    -0.640 N 
ATOM      2  H   LIG    1       -2.363   0.520  -0.086  0.00  0.00    +0.420 HD
ATOM      3  C   LIG    1       -1.178   2.148   0.019  0.00  0.00    +0.710 C 
ATOM      4  N   LIG    1       -0.018   1.463   0.007  0.00  0.00    -0.620 N 
ATOM      5  C   LIG    1        1.281   2.157   0.000  0.00  0.00    +0.320 C 
ATOM      6  C   LIG    1        1.980   1.832  -1.319  0.00  0.00    +0.090 C 
ATOM      7  C   LIG    1        1.929   0.354  -1.603  0.00  0.00    -0.050 A 
ATOM      8  C   LIG    1        2.846  -0.159  -2.512  0.00  0.00    +0.050 A 
ATOM      9  C   LIG    1        2.838  -1.500  -2.837  0.00  0.00    -0.020 A 
ATOM     10  C   LIG    1        1.910  -2.345  -2.251  0.00  0.00    -0.030 A 
ATOM     11  C   LIG    1        1.003  -1.838  -1.342  0.00  0.00    +0.060 A 
ATOM     12 CL   LIG    1        1.887  -4.032  -2.659  0.00  0.00    -0.040 Cl
ATOM     13 CL   LIG    1        3.989  -2.127  -3.976  0.00  0.00    -0.040 Cl
ATOM     14  C   LIG    1        1.014  -0.489  -1.013  0.00  0.00    -0.080 A 
ATOM     15  C   LIG    1        0.002  -0.004  -0.005  0.00  0.00    +0.270 C 
ATOM     16  C   LIG    1        0.381  -0.520   1.385  0.00  0.00    +0.060 C 
ATOM     17  O   LIG    1       -1.168   3.359   0.120  0.00  0.00    -0.510 OA
ENDROOT
BRANCH   1  26
ATOM     18  C   LIG    1      -11.125   3.996  -0.797  0.00  0.00    +0.200 C 
ATOM     19  C   LIG    1       -9.624   3.962  -0.672  0.00  0.00    +0.090 A 
ATOM     20  N   LIG    1       -8.882   5.002  -0.607  0.00  0.00    -0.460 NA
ATOM     21  C   LIG    1       -7.552   4.820  -0.497  0.00  0.00    +0.100 A 
ATOM     22  C   LIG    1       -7.213   3.468  -0.473  0.00  0.00    -0.140 A 
ATOM     23  C   LIG    1       -5.870   3.073  -0.364  0.00  0.00    -0.140 A 
ATOM     24  C   LIG    1       -4.859   4.027  -0.277  0.00  0.00    +0.130 A 
ATOM     25  N   LIG    1       -3.630   3.483  -0.177  0.00  0.00    -0.460 NA
ATOM     26  C   LIG    1       -3.538   2.199  -0.175  0.00  0.00    +0.350 A 
ATOM     27  C   LIG    1       -5.222   5.396  -0.301  0.00  0.00    +0.100 A 
ATOM     28  S   LIG    1       -5.133   1.473  -0.317  0.00  0.00    +0.090 S 
ATOM     29  C   LIG    1       -6.514   5.777  -0.407  0.00  0.00    +0.100 A 
ATOM     30  S   LIG    1       -8.698   2.530  -0.601  0.00  0.00    +0.120 S 
ENDBRANCH   1  26
TORSDOF 1
