REMARK  Name = ZINCrD000000CHB3.0
REMARK                            x       y       z     vdW  Elec       q    Type
REMARK                         _______ _______ _______ _____ _____    ______ ____
ROOT
ATOM      1  C   LIG    1       -0.285   1.678   3.215  0.00  0.00    +0.600 C 
ATOM      2  N   LIG    1       -0.650   0.717   2.343  0.00  0.00    -0.590 N 
ATOM      3  C   LIG    1        0.313  -0.302   1.905  0.00  0.00    +0.260 C 
ATOM      4  C   LIG    1        0.354  -0.320   0.374  0.00  0.00    +0.030 C 
ATOM      5  C   LIG    1       -1.062  -0.524  -0.169  0.00  0.00    +0.010 C 
ATOM      6  C   LIG    1       -1.953   0.638   0.278  0.00  0.00    +0.040 C 
ATOM      7  C   LIG    1       -2.021   0.666   1.808  0.00  0.00    +0.320 C 
ATOM      8  O   LIG    1       -1.114   2.459   3.642  0.00  0.00    -0.520 OA
ENDROOT
BRANCH   1  11
ATOM      9  O   LIG    1        1.929   1.462   1.540  0.00  0.00    -0.500 OA
ATOM     10  C   LIG    1        2.171   1.659   2.718  0.00  0.00    +0.540 A 
ATOM     11  C   LIG    1        1.114   1.782   3.648  0.00  0.00    -0.320 A 
ATOM     12  C   LIG    1        1.431   2.011   4.988  0.00  0.00    +0.440 A 
ATOM     13  N   LIG    1        2.701   2.094   5.338  0.00  0.00    -0.520 NA
ATOM     14  C   LIG    1        3.695   1.978   4.460  0.00  0.00    +0.380 A 
ATOM     15  S   LIG    1        5.439   2.070   4.765  0.00  0.00    +0.050 S 
ATOM     16  C   LIG    1        5.954   1.805   3.043  0.00  0.00    +0.140 C 
ATOM     17  C   LIG    1        4.642   1.650   2.280  0.00  0.00    +0.300 C 
ATOM     18  N   LIG    1        3.469   1.760   3.144  0.00  0.00    -0.530 N 
ENDBRANCH   1  11
BRANCH   7  19
ATOM     19  C   LIG    1       -2.786   1.884   2.257  0.00  0.00    +0.130 A 
ATOM     20  N   LIG    1       -2.534   3.076   1.868  0.00  0.00    -0.450 NA
ATOM     21  C   LIG    1       -3.304   4.071   2.350  0.00  0.00    +0.100 A 
ATOM     22  C   LIG    1       -3.251   5.455   2.091  0.00  0.00    +0.060 A 
ATOM     23  C   LIG    1       -4.131   6.303   2.694  0.00  0.00    +0.020 A 
ATOM     24  C   LIG    1       -5.092   5.823   3.572  0.00  0.00    +0.020 A 
ATOM     25  C   LIG    1       -5.166   4.475   3.843  0.00  0.00    +0.060 A 
ATOM     26  C   LIG    1       -4.276   3.593   3.236  0.00  0.00    -0.180 A 
ATOM     27  S   LIG    1       -4.092   1.846   3.354  0.00  0.00    +0.090 S 
ENDBRANCH   7  19
TORSDOF 2
