REMARK  Name = ZINCrg000000tQRZ.1
REMARK                            x       y       z     vdW  Elec       q    Type
REMARK                         _______ _______ _______ _____ _____    ______ ____
ROOT
ATOM      1  O   LIG    1        1.091   3.310   0.054  0.00  0.00    -0.510 OA
ATOM      2  C   LIG    1        1.131   2.099   0.003  0.00  0.00    +0.510 C 
ATOM      3  C   LIG    1        2.465   1.400  -0.068  0.00  0.00    +0.330 C 
ATOM      4  N   LIG    1        2.345   0.074   0.556  0.00  0.00    -0.560 N 
ATOM      5  C   LIG    1        1.192  -0.678   0.282  0.00  0.00    +0.110 A 
ATOM      6  C   LIG    1        1.225  -2.061   0.283  0.00  0.00    +0.060 A 
ATOM      7  C   LIG    1        0.073  -2.775   0.003  0.00  0.00    +0.010 A 
ATOM      8  C   LIG    1       -1.106  -2.110  -0.278  0.00  0.00    +0.030 A 
ATOM      9  C   LIG    1       -1.146  -0.727  -0.279  0.00  0.00    +0.000 A 
ATOM     10  C   LIG    1        0.002  -0.004   0.002  0.00  0.00    +0.130 A 
ATOM     11  C   LIG    1        3.311  -0.403   1.365  0.00  0.00    +0.520 C 
ATOM     12  O   LIG    1        3.193  -1.500   1.869  0.00  0.00    -0.490 OA
ATOM     13  N   LIG    1       -0.017   1.395   0.010  0.00  0.00    -0.660 N 
ATOM     14  H   LIG    1       -0.867   1.863   0.016  0.00  0.00    +0.420 HD
ENDROOT
BRANCH  11  15
ATOM     15  C   LIG    1        4.539   0.425   1.643  0.00  0.00    +0.220 C 
BRANCH  15  16
ATOM     16  N   LIG    1        5.433  -0.312   2.546  0.00  0.00    -0.520 NA
ATOM     17  C   LIG    1        5.965  -1.516   1.893  0.00  0.00    +0.170 C 
ATOM     18  C   LIG    1        6.772  -2.332   2.905  0.00  0.00    +0.020 C 
ATOM     19  C   LIG    1        7.918  -1.474   3.447  0.00  0.00    +0.030 C 
ATOM     20  C   LIG    1        7.341  -0.204   4.078  0.00  0.00    +0.000 C 
ATOM     21  C   LIG    1        6.518   0.550   3.032  0.00  0.00    +0.180 C 
BRANCH  20  22
ATOM     22  C   LIG    1        8.484   0.686   4.570  0.00  0.00    +0.180 C 
BRANCH  22  23
ATOM     23  N   LIG    1        9.203   0.006   5.655  0.00  0.00    -0.530 NA
ATOM     24  C   LIG    1        8.349  -0.142   6.842  0.00  0.00    +0.140 C 
ATOM     25  C   LIG    1        9.115  -0.907   7.924  0.00  0.00    +0.220 C 
ATOM     26  O   LIG    1       10.333  -0.217   8.216  0.00  0.00    -0.390 OA
ATOM     27  C   LIG    1       11.190  -0.056   7.083  0.00  0.00    +0.220 C 
ATOM     28  C   LIG    1       10.444   0.718   5.992  0.00  0.00    +0.150 C 
ENDBRANCH  22  23
ENDBRANCH  20  22
ENDBRANCH  15  16
ENDBRANCH  11  15
TORSDOF 4
