REMARK  Name = ZINCtV00000tRTWP.0
REMARK                            x       y       z     vdW  Elec       q    Type
REMARK                         _______ _______ _______ _____ _____    ______ ____
ROOT
ATOM      1  C   LIG    1       -0.425   4.393   0.693  0.00  0.00    +0.320 A 
ATOM      2  C   LIG    1       -0.731   5.605   1.220  0.00  0.00    -0.380 A 
ATOM      3  S   LIG    1       -1.614   5.433   2.724  0.00  0.00    +0.210 S 
ATOM      4  C   LIG    1       -1.556   3.676   2.646  0.00  0.00    +0.110 A 
ATOM      5  N   LIG    1       -2.038   2.767   3.497  0.00  0.00    -0.430 NA
ATOM      6  C   LIG    1       -1.905   1.468   3.282  0.00  0.00    +0.270 A 
ATOM      7  C   LIG    1       -1.246   0.993   2.141  0.00  0.00    +0.040 A 
ATOM      8  C   LIG    1       -0.737   1.881   1.242  0.00  0.00    -0.070 A 
ATOM      9  C   LIG    1       -0.882   3.268   1.489  0.00  0.00    -0.140 A 
ENDROOT
BRANCH   6  10
ATOM     10  C   LIG    1       -2.458   0.508   4.256  0.00  0.00    -0.190 A 
ATOM     11  C   LIG    1       -3.107   0.838   5.393  0.00  0.00    +0.090 A 
ATOM     12  C   LIG    1       -3.537  -0.234   6.143  0.00  0.00    +0.010 A 
ATOM     13  C   LIG    1       -3.237  -1.436   5.637  0.00  0.00    -0.020 A 
ATOM     14  S   LIG    1       -2.367  -1.243   4.121  0.00  0.00    +0.150 S 
ENDBRANCH   6  10
BRANCH   8  15
ATOM     15  C   LIG    1       -0.023   1.395   0.007  0.00  0.00    +0.500 C 
ATOM     16  F   LIG    1       -0.691   1.861  -1.131  0.00  0.00    -0.160 F 
ATOM     17  F   LIG    1        1.290   1.876   0.007  0.00  0.00    -0.160 F 
ATOM     18  F   LIG    1       -0.008  -0.004  -0.002  0.00  0.00    -0.160 F 
ENDBRANCH   8  15
BRANCH   2  19
ATOM     19  C   LIG    1       -0.391   6.846   0.627  0.00  0.00    +0.610 C 
ATOM     20  N   LIG    1       -0.741   7.999   1.231  0.00  0.00    -0.670 N 
ATOM     21  H   LIG    1       -1.282   7.981   2.035  0.00  0.00    +0.410 HD
ATOM     22  O   LIG    1        0.216   6.870  -0.428  0.00  0.00    -0.530 OA
BRANCH  20  23
ATOM     23  C   LIG    1       -0.323   9.223   0.696  0.00  0.00    +0.140 A 
ATOM     24  C   LIG    1       -0.012  10.280   1.541  0.00  0.00    +0.030 A 
ATOM     25  C   LIG    1        0.405  11.486   1.012  0.00  0.00    +0.010 A 
ATOM     26  C   LIG    1        0.503  11.644  -0.360  0.00  0.00    +0.080 A 
ATOM     27  C   LIG    1        0.188  10.592  -1.205  0.00  0.00    +0.010 A 
ATOM     28  F   LIG    1        0.905  12.826  -0.876  0.00  0.00    -0.140 F 
ATOM     29  C   LIG    1       -0.224   9.383  -0.679  0.00  0.00    +0.060 A 
ENDBRANCH  20  23
ENDBRANCH   2  19
BRANCH   1  30
ATOM     30  N   LIG    1        0.265   4.241  -0.502  0.00  0.00    -0.820 N 
ATOM     31  H   LIG    1        0.551   5.023  -1.000  0.00  0.00    +0.430 HD
ATOM     32  H   LIG    1        0.462   3.353  -0.839  0.00  0.00    +0.390 HD
ENDBRANCH   1  30
TORSDOF 5
