REMARK  Name = ZINCvU000000077r.0
REMARK                            x       y       z     vdW  Elec       q    Type
REMARK                         _______ _______ _______ _____ _____    ______ ____
ROOT
ATOM      1  N   LIG    1        0.769   1.945  -3.145  0.00  0.00    -0.560 N 
ATOM      2  C   LIG    1        0.453   1.319  -2.024  0.00  0.00    +0.530 C 
ATOM      3  C   LIG    1       -0.924   1.649  -1.496  0.00  0.00    +0.060 C 
ATOM      4  S   LIG    1       -1.574   2.837  -2.717  0.00  0.00    +0.050 S 
ATOM      5  O   LIG    1        1.204   0.546  -1.468  0.00  0.00    -0.450 OA
ATOM      6  C   LIG    1       -0.119   2.807  -3.729  0.00  0.00    +0.390 C 
ATOM      7  N   LIG    1        0.072   3.487  -4.835  0.00  0.00    -0.490 NA
ENDROOT
BRANCH   7   8
ATOM      8  C   LIG    1        0.972   3.042  -5.765  0.00  0.00    +0.120 A 
ATOM      9  C   LIG    1        2.046   3.850  -6.145  0.00  0.00    +0.020 A 
ATOM     10  C   LIG    1        2.953   3.394  -7.079  0.00  0.00    +0.050 A 
ATOM     11  C   LIG    1        2.795   2.144  -7.648  0.00  0.00    -0.090 A 
ATOM     12  C   LIG    1        1.730   1.338  -7.281  0.00  0.00    -0.020 A 
ATOM     13 CL   LIG    1        1.540  -0.230  -8.001  0.00  0.00    -0.060 Cl
ATOM     14  C   LIG    1        3.786   1.655  -8.673  0.00  0.00    +0.100 C 
ATOM     15  C   LIG    1        0.818   1.780  -6.343  0.00  0.00    -0.010 A 
ENDBRANCH   7   8
BRANCH   1  16
ATOM     16  C   LIG    1        2.076   1.715  -3.765  0.00  0.00    +0.300 C 
BRANCH  16  17
ATOM     17  C   LIG    1        3.099   2.687  -3.174  0.00  0.00    +0.170 C 
BRANCH  17  19
ATOM     18  C   LIG    1        4.243   3.238  -1.141  0.00  0.00    +0.200 C 
ATOM     19  O   LIG    1        3.300   2.384  -1.792  0.00  0.00    -0.380 OA
ENDBRANCH  17  19
ENDBRANCH  16  17
ENDBRANCH   1  16
BRANCH   3  20
ATOM     20  C   LIG    1       -0.829   2.295  -0.113  0.00  0.00    +0.130 C 
BRANCH  20  21
ATOM     21  C   LIG    1       -2.215   2.602   0.395  0.00  0.00    +0.520 C 
ATOM     22  N   LIG    1       -2.378   3.178   1.602  0.00  0.00    -0.660 N 
ATOM     23  H   LIG    1       -1.604   3.454   2.117  0.00  0.00    +0.420 HD
ATOM     24  O   LIG    1       -3.183   2.329  -0.284  0.00  0.00    -0.510 OA
BRANCH  22  25
ATOM     25  C   LIG    1       -3.666   3.377   2.113  0.00  0.00    +0.150 A 
ATOM     26  C   LIG    1       -4.743   3.517   1.249  0.00  0.00    +0.040 A 
ATOM     27  C   LIG    1       -6.013   3.713   1.756  0.00  0.00    +0.050 A 
ATOM     28  C   LIG    1       -6.212   3.772   3.122  0.00  0.00    +0.020 A 
ATOM     29  C   LIG    1       -5.140   3.635   3.987  0.00  0.00    -0.020 A 
ATOM     30 CL   LIG    1       -5.395   3.710   5.703  0.00  0.00    -0.060 Cl
ATOM     31  C   LIG    1       -3.869   3.431   3.486  0.00  0.00    -0.110 A 
ATOM     32  C   LIG    1       -2.702   3.275   4.428  0.00  0.00    +0.110 C 
ENDBRANCH  22  25
ENDBRANCH  20  21
ENDBRANCH   3  20
TORSDOF 7
