REMARK  Name = ZINCqH0000036q97.0
REMARK                            x       y       z     vdW  Elec       q    Type
REMARK                         _______ _______ _______ _____ _____    ______ ____
ROOT
ATOM      1  C   LIG    1       -5.417   6.282   1.334  0.00  0.00    -0.080 A 
ATOM      2  C   LIG    1       -4.778   7.502   1.334  0.00  0.00    +0.070 A 
ATOM      3  C   LIG    1       -3.405   7.238   1.320  0.00  0.00    -0.040 A 
ATOM      4  C   LIG    1       -3.257   5.880   1.313  0.00  0.00    +0.070 A 
ATOM      5  O   LIG    1       -4.476   5.315   1.315  0.00  0.00    -0.160 OA
ENDROOT
BRANCH   4   6
ATOM      6  C   LIG    1       -1.971   5.154   1.297  0.00  0.00    -0.030 A 
ATOM      7  C   LIG    1       -0.767   5.861   1.290  0.00  0.00    +0.040 A 
ATOM      8  C   LIG    1        0.431   5.176   1.275  0.00  0.00    +0.020 A 
ATOM      9  C   LIG    1        0.441   3.793   1.268  0.00  0.00    +0.030 A 
ATOM     10  C   LIG    1       -0.749   3.086   1.275  0.00  0.00    -0.070 A 
ATOM     11  C   LIG    1       -1.954   3.758   1.284  0.00  0.00    +0.040 A 
BRANCH  10  12
ATOM     12  C   LIG    1       -0.729   1.579   1.267  0.00  0.00    +0.020 C 
ATOM     13  C   LIG    1        0.011   1.072   2.506  0.00  0.00    +0.030 C 
ATOM     14  C   LIG    1       -0.013   1.086   0.008  0.00  0.00    +0.030 C 
ENDBRANCH  10  12
ENDBRANCH   4   6
BRANCH   1  17
ATOM     15  N   LIG    1       -7.366   4.818   1.345  0.00  0.00    -0.720 N 
ATOM     16  H   LIG    1       -6.764   4.057   1.336  0.00  0.00    +0.410 HD
ATOM     17  C   LIG    1       -6.867   6.070   1.346  0.00  0.00    +0.610 C 
ATOM     18  O   LIG    1       -7.622   7.025   1.357  0.00  0.00    -0.510 OA
BRANCH  15  19
ATOM     19  C   LIG    1       -8.815   4.606   1.357  0.00  0.00    +0.380 C 
BRANCH  19  24
ATOM     20  C   LIG    1       -9.404   1.166   0.206  0.00  0.00    +0.280 A 
ATOM     21  C   LIG    1       -9.631   0.502   1.407  0.00  0.00    +0.230 A 
ATOM     22  N   LIG    1       -9.589   1.168   2.545  0.00  0.00    -0.400 NA
ATOM     23  C   LIG    1       -9.333   2.465   2.545  0.00  0.00    +0.210 A 
ATOM     24  C   LIG    1       -9.107   3.128   1.353  0.00  0.00    +0.100 A 
ATOM     25  N   LIG    1       -9.153   2.467   0.208  0.00  0.00    -0.480 NA
BRANCH  20  27
ATOM     26  C   LIG    1       -9.204   1.231  -2.160  0.00  0.00    +0.260 C 
ATOM     27  O   LIG    1       -9.446   0.484  -0.966  0.00  0.00    -0.300 OA
ENDBRANCH  20  27
ENDBRANCH  19  24
ENDBRANCH  15  19
ENDBRANCH   1  17
TORSDOF 6
