REMARK  Name = ZINCrD00000kZFMz.0
REMARK                            x       y       z     vdW  Elec       q    Type
REMARK                         _______ _______ _______ _____ _____    ______ ____
ROOT
ATOM      1  C   LIG    1       -7.125   5.064  -0.881  0.00  0.00    +0.040 C 
ATOM      2  C   LIG    1       -7.223   3.996   0.210  0.00  0.00    +0.150 C 
ATOM      3  C   LIG    1       -8.259   2.945  -0.197  0.00  0.00    +0.050 C 
ATOM      4  C   LIG    1       -8.344   1.873   0.893  0.00  0.00    +0.010 C 
ATOM      5  C   LIG    1       -6.960   1.262   1.105  0.00  0.00    +0.160 C 
ATOM      6  O   LIG    1       -6.542   0.576  -0.085  0.00  0.00    -0.330 OA
ATOM      7  C   LIG    1       -7.002  -0.778   0.087  0.00  0.00    +0.260 C 
ATOM      8  C   LIG    1       -7.036  -1.019   1.579  0.00  0.00    -0.130 A 
ATOM      9  C   LIG    1       -7.084  -2.168   2.339  0.00  0.00    +0.030 A 
ATOM     10  C   LIG    1       -7.109  -2.083   3.719  0.00  0.00    +0.020 A 
ATOM     11  C   LIG    1       -7.083  -0.846   4.336  0.00  0.00    +0.010 A 
ATOM     12  C   LIG    1       -7.034   0.307   3.574  0.00  0.00    +0.030 A 
ATOM     13  C   LIG    1       -5.952   2.353   1.459  0.00  0.00    +0.230 C 
ATOM     14  C   LIG    1       -7.011   0.223   2.197  0.00  0.00    -0.120 A 
ATOM     15  N   LIG    1       -5.914   3.354   0.384  0.00  0.00    -0.470 N 
ENDROOT
BRANCH  15  16
ATOM     16  C   LIG    1       -4.926   4.296   0.619  0.00  0.00    +0.350 A 
ATOM     17  C   LIG    1       -3.833   4.407  -0.243  0.00  0.00    +0.030 A 
ATOM     18  C   LIG    1       -2.869   5.370   0.038  0.00  0.00    +0.220 A 
ATOM     19  N   LIG    1       -3.020   6.142   1.114  0.00  0.00    -0.480 NA
ATOM     20  C   LIG    1       -4.068   6.009   1.899  0.00  0.00    +0.510 A 
ATOM     21  N   LIG    1       -5.004   5.109   1.668  0.00  0.00    -0.540 NA
BRANCH  18  22
ATOM     22  C   LIG    1       -1.685   5.531  -0.845  0.00  0.00    +0.350 A 
ATOM     23  N   LIG    1       -1.560   4.750  -1.908  0.00  0.00    -0.500 NA
ATOM     24  C   LIG    1       -0.516   4.863  -2.711  0.00  0.00    +0.330 A 
ATOM     25  C   LIG    1        0.448   5.822  -2.435  0.00  0.00    -0.070 A 
ATOM     26  C   LIG    1        0.282   6.626  -1.317  0.00  0.00    +0.330 A 
ATOM     27  N   LIG    1       -0.782   6.457  -0.553  0.00  0.00    -0.480 NA
ENDBRANCH  18  22
ENDBRANCH  15  16
TORSDOF 2
