REMARK  Name = ZINCrg00000SjSyi.1
REMARK                            x       y       z     vdW  Elec       q    Type
REMARK                         _______ _______ _______ _____ _____    ______ ____
ROOT
ATOM      1  C   LIG    1       -3.204   3.204   3.035  0.00  0.00    +0.200 A 
ATOM      2  C   LIG    1       -2.331   2.823   4.045  0.00  0.00    -0.030 A 
ATOM      3  C   LIG    1       -2.639   3.098   5.363  0.00  0.00    +0.190 A 
ATOM      4  C   LIG    1       -3.822   3.741   5.679  0.00  0.00    -0.680 A 
ATOM      5  C   LIG    1       -4.697   4.117   4.676  0.00  0.00    +0.140 A 
ATOM      6  C   LIG    1       -4.391   3.850   3.356  0.00  0.00    +0.000 A 
ENDROOT
BRANCH   1   9
ATOM      7  O   LIG    1       -3.918   4.776   1.011  0.00  0.00    -0.500 OA
ATOM      8  C   LIG    1       -3.252   3.801   0.733  0.00  0.00    +0.500 C 
ATOM      9  N   LIG    1       -2.892   2.933   1.699  0.00  0.00    -0.670 N 
ATOM     10  H   LIG    1       -2.417   2.119   1.467  0.00  0.00    +0.420 HD
BRANCH   8  11
ATOM     11  C   LIG    1       -2.825   3.562  -0.692  0.00  0.00    +0.340 C 
BRANCH  11  12
ATOM     12  N   LIG    1       -3.338   4.639  -1.543  0.00  0.00    -0.480 N 
ATOM     13  C   LIG    1       -2.587   5.753  -1.742  0.00  0.00    +0.290 A 
ATOM     14  C   LIG    1       -3.037   6.758  -2.528  0.00  0.00    -0.070 A 
ATOM     15  C   LIG    1       -4.291   6.656  -3.146  0.00  0.00    +0.130 A 
ATOM     16  C   LIG    1       -5.045   5.537  -2.945  0.00  0.00    -0.090 A 
ATOM     17  C   LIG    1       -4.547   4.511  -2.123  0.00  0.00    +0.520 A 
ATOM     18  O   LIG    1       -5.210   3.504  -1.935  0.00  0.00    -0.550 OA
ENDBRANCH  11  12
ENDBRANCH   8  11
ENDBRANCH   1   9
BRANCH   4  19
ATOM     19  S   LIG    1       -4.215   4.082   7.362  0.00  0.00    +2.700 S 
ATOM     20  O   LIG    1       -5.126   5.173   7.348  0.00  0.00    -0.940 OA
ATOM     21  O   LIG    1       -2.980   4.110   8.065  0.00  0.00    -0.930 OA
BRANCH  19  22
ATOM     22  N   LIG    1       -5.055   2.779   7.943  0.00  0.00    -1.020 N 
ATOM     23  H   LIG    1       -5.982   2.880   8.212  0.00  0.00    +0.440 HD
BRANCH  22  24
ATOM     24  C   LIG    1       -4.435   1.546   8.046  0.00  0.00    +0.560 A 
ATOM     25  N   LIG    1       -3.293   1.341   7.407  0.00  0.00    -0.560 NA
ATOM     26  C   LIG    1       -2.672   0.176   7.489  0.00  0.00    +0.370 A 
ATOM     27  C   LIG    1       -3.236  -0.839   8.246  0.00  0.00    -0.110 A 
ATOM     28  C   LIG    1       -4.434  -0.593   8.897  0.00  0.00    +0.370 A 
ATOM     29  N   LIG    1       -5.001   0.597   8.777  0.00  0.00    -0.540 NA
ENDBRANCH  22  24
ENDBRANCH  19  22
ENDBRANCH   4  19
TORSDOF 6
