REMARK  Name = ZINCpk00000y6vDM.0
REMARK                            x       y       z     vdW  Elec       q    Type
REMARK                         _______ _______ _______ _____ _____    ______ ____
ROOT
ATOM      1  C   LIG    1        3.696   1.998  -0.022  0.00  0.00    +0.230 C 
ATOM      2  C   LIG    1        4.550   1.499   1.146  0.00  0.00    +0.230 C 
ATOM      3  N   LIG    1        5.873   2.138   1.087  0.00  0.00    -0.470 N 
ATOM      4  C   LIG    1        6.540   1.840  -0.188  0.00  0.00    +0.180 C 
ATOM      5  C   LIG    1        5.665   2.336  -1.343  0.00  0.00    +0.240 C 
ATOM      6  O   LIG    1        4.374   1.728  -1.252  0.00  0.00    -0.370 OA
ENDROOT
BRANCH   1  11
ATOM      7  C   LIG    1        1.150  -0.666  -0.013  0.00  0.00    +0.560 A 
ATOM      8  N   LIG    1        0.002  -0.004   0.002  0.00  0.00    -0.570 NA
ATOM      9  C   LIG    1       -0.016   1.319   0.009  0.00  0.00    +0.370 A 
ATOM     10  C   LIG    1        1.185   2.011   0.002  0.00  0.00    -0.130 A 
ATOM     11  C   LIG    1        2.367   1.288  -0.013  0.00  0.00    +0.230 A 
ATOM     12  N   LIG    1        2.314  -0.034  -0.020  0.00  0.00    -0.550 NA
BRANCH   7  14
ATOM     13  C   LIG    1       -0.146  -2.765  -0.011  0.00  0.00    +0.300 C 
ATOM     14  N   LIG    1        1.132  -2.050  -0.020  0.00  0.00    -0.590 N 
ATOM     15  C   LIG    1        2.391  -2.799  -0.036  0.00  0.00    +0.300 C 
ENDBRANCH   7  14
ENDBRANCH   1  11
BRANCH   3  16
ATOM     16  C   LIG    1        6.660   1.752   2.162  0.00  0.00    +0.380 A 
ATOM     17  C   LIG    1        7.957   2.237   2.297  0.00  0.00    -0.170 A 
ATOM     18  C   LIG    1        8.705   1.819   3.393  0.00  0.00    +0.460 A 
ATOM     19  N   LIG    1        8.157   0.976   4.266  0.00  0.00    -0.590 NA
ATOM     20  C   LIG    1        6.925   0.539   4.103  0.00  0.00    +0.570 A 
ATOM     21  N   LIG    1        6.183   0.915   3.082  0.00  0.00    -0.590 NA
BRANCH  18  22
ATOM     22  N   LIG    1       10.002   2.274   3.573  0.00  0.00    -0.680 N 
ATOM     23  H   LIG    1       10.518   1.978   4.340  0.00  0.00    +0.410 HD
BRANCH  22  24
ATOM     24  C   LIG    1       10.595   3.201   2.606  0.00  0.00    +0.210 C 
ATOM     25  C   LIG    1       12.035   2.937   2.164  0.00  0.00    +0.020 C 
ATOM     26  C   LIG    1       11.724   4.109   3.098  0.00  0.00    +0.020 C 
ENDBRANCH  22  24
ENDBRANCH  18  22
ENDBRANCH   3  16
TORSDOF 5
