REMARK  Name = ZINCpe00000FUf7j.0
REMARK                            x       y       z     vdW  Elec       q    Type
REMARK                         _______ _______ _______ _____ _____    ______ ____
ROOT
ATOM      1  C   LIG    1        3.015   1.322  -1.440  0.00  0.00    +0.520 C 
ATOM      2  N   LIG    1        4.277   0.930  -1.700  0.00  0.00    -0.610 N 
ATOM      3  C   LIG    1        5.211   0.637  -0.604  0.00  0.00    +0.260 C 
ATOM      4  C   LIG    1        6.485   1.463  -0.807  0.00  0.00    +0.030 C 
ATOM      5  C   LIG    1        7.049   1.190  -2.203  0.00  0.00    +0.060 C 
ATOM      6  C   LIG    1        6.026   1.612  -3.260  0.00  0.00    +0.130 C 
ATOM      7  C   LIG    1        4.745   0.782  -3.085  0.00  0.00    +0.250 C 
ATOM      8  O   LIG    1        2.254   1.561  -2.353  0.00  0.00    -0.530 OA
ENDROOT
BRANCH   6   9
ATOM      9  O   LIG    1        5.724   3.000  -3.104  0.00  0.00    -0.540 OA
ATOM     10  H   LIG    1        5.080   3.337  -3.742  0.00  0.00    +0.380 HD
ENDBRANCH   6   9
BRANCH   1  11
ATOM     11  C   LIG    1        2.548   1.464  -0.014  0.00  0.00    +0.140 C 
BRANCH  11  15
ATOM     12  C   LIG    1       -1.558   4.338   0.040  0.00  0.00    +0.350 C 
ATOM     13  N   LIG    1       -0.675   3.169   0.025  0.00  0.00    -0.370 N 
ATOM     14  C   LIG    1        0.674   3.192   0.013  0.00  0.00    +0.240 A 
ATOM     15  C   LIG    1        1.109   1.911   0.002  0.00  0.00    -0.230 A 
ATOM     16  C   LIG    1       -0.013   1.076   0.008  0.00  0.00    +0.240 A 
ATOM     17  N   LIG    1       -1.083   1.829   0.017  0.00  0.00    -0.300 NA
ENDBRANCH  11  15
ENDBRANCH   1  11
BRANCH   6  18
ATOM     18  C   LIG    1        6.604   1.369  -4.655  0.00  0.00    +0.190 C 
BRANCH  18  19
ATOM     19  C   LIG    1        5.596   1.785  -5.696  0.00  0.00    +0.170 A 
ATOM     20  N   LIG    1        5.477   2.973  -6.237  0.00  0.00    -0.470 NA
ATOM     21  C   LIG    1        4.453   2.876  -7.103  0.00  0.00    +0.200 A 
ATOM     22  N   LIG    1        4.009   1.656  -7.046  0.00  0.00    -0.380 NA
ATOM     23  O   LIG    1        4.655   1.011  -6.247  0.00  0.00    +0.080 OA
BRANCH  21  24
ATOM     24  C   LIG    1        3.918   3.979  -7.980  0.00  0.00    +0.060 C 
ATOM     25  C   LIG    1        2.620   3.709  -8.742  0.00  0.00    +0.050 C 
ATOM     26  C   LIG    1        3.952   3.758  -9.493  0.00  0.00    +0.060 C 
ENDBRANCH  21  24
ENDBRANCH  18  19
ENDBRANCH   6  18
TORSDOF 6
