REMARK  Name = ZINCpe00000MJLnS.2
REMARK                            x       y       z     vdW  Elec       q    Type
REMARK                         _______ _______ _______ _____ _____    ______ ____
ROOT
ATOM      1  N   LIG    1       -0.018   1.465   0.010  0.00  0.00    -0.510 NA
ATOM      2  C   LIG    1        1.346   2.010   0.000  0.00  0.00    +0.190 C 
ENDROOT
BRANCH   1   3
ATOM      3  C   LIG    1        0.002  -0.004   0.002  0.00  0.00    +0.120 C 
ATOM      4  C   LIG    1        0.780  -0.549   1.228  0.00  0.00    +0.060 C 
ATOM      5  C   LIG    1        0.131  -1.945   1.413  0.00  0.00    +0.220 C 
ATOM      6  N   LIG    1       -1.297  -1.747   1.088  0.00  0.00    -0.450 N 
ATOM      7  C   LIG    1       -1.419  -0.570   0.207  0.00  0.00    +0.240 C 
BRANCH   6   8
ATOM      8  C   LIG    1       -1.830  -2.875   0.485  0.00  0.00    +0.480 A 
ATOM      9  N   LIG    1       -2.357  -2.772  -0.726  0.00  0.00    -0.530 NA
ATOM     10  C   LIG    1       -2.870  -3.830  -1.332  0.00  0.00    +0.330 A 
ATOM     11  C   LIG    1       -2.862  -5.054  -0.679  0.00  0.00    -0.040 A 
ATOM     12  C   LIG    1       -2.307  -5.124   0.591  0.00  0.00    +0.340 A 
ATOM     13  F   LIG    1       -3.383  -6.154  -1.266  0.00  0.00    -0.120 F 
ATOM     14  N   LIG    1       -1.806  -4.028   1.137  0.00  0.00    -0.500 NA
ENDBRANCH   6   8
ENDBRANCH   1   3
BRANCH   1  15
ATOM     15  C   LIG    1       -0.802   1.987  -1.117  0.00  0.00    +0.260 C 
BRANCH  15  18
ATOM     16  C   LIG    1       -1.925   5.216   0.258  0.00  0.00    +0.630 A 
ATOM     17  N   LIG    1       -1.732   3.925   0.076  0.00  0.00    -0.570 NA
ATOM     18  C   LIG    1       -1.007   3.470  -0.943  0.00  0.00    +0.240 A 
ATOM     19  C   LIG    1       -0.453   4.343  -1.833  0.00  0.00    -0.200 A 
ATOM     20  C   LIG    1       -0.659   5.722  -1.649  0.00  0.00    +0.540 A 
ATOM     21  O   LIG    1       -0.178   6.532  -2.425  0.00  0.00    -0.550 OA
ATOM     22  N   LIG    1       -1.398   6.133  -0.597  0.00  0.00    -0.660 N 
ATOM     23  H   LIG    1       -1.553   7.080  -0.450  0.00  0.00    +0.410 HD
BRANCH  16  25
ATOM     24  C   LIG    1       -3.247   4.663   2.252  0.00  0.00    +0.330 C 
ATOM     25  N   LIG    1       -2.674   5.641   1.323  0.00  0.00    -0.590 N 
ATOM     26  C   LIG    1       -2.901   7.072   1.534  0.00  0.00    +0.300 C 
ENDBRANCH  16  25
ENDBRANCH  15  18
ENDBRANCH   1  15
TORSDOF 5
