REMARK  Name = ZINCBu000000085C.1
REMARK                            x       y       z     vdW  Elec       q    Type
REMARK                         _______ _______ _______ _____ _____    ______ ____
ROOT
ATOM      1  N   LIG    1       -4.075  -1.945  -4.077  0.00  0.00    -0.730 N 
ATOM      2  H   LIG    1       -4.128  -1.032  -4.401  0.00  0.00    +0.410 HD
ATOM      3  C   LIG    1       -4.303  -2.973  -4.918  0.00  0.00    +0.520 C 
ATOM      4  O   LIG    1       -4.237  -4.114  -4.514  0.00  0.00    -0.520 OA
ENDROOT
BRANCH   1   5
ATOM      5  C   LIG    1       -3.747  -2.206  -2.674  0.00  0.00    +0.330 C 
BRANCH   5  10
ATOM      6  C   LIG    1       -2.092   0.870  -1.242  0.00  0.00    -0.160 A 
ATOM      7  C   LIG    1       -3.161   1.501  -0.634  0.00  0.00    +0.040 A 
ATOM      8  C   LIG    1       -4.420   0.932  -0.686  0.00  0.00    +0.030 A 
ATOM      9  C   LIG    1       -4.609  -0.267  -1.346  0.00  0.00    +0.080 A 
ATOM     10  C   LIG    1       -3.540  -0.898  -1.954  0.00  0.00    -0.100 A 
ATOM     11  C   LIG    1       -2.282  -0.327  -1.906  0.00  0.00    +0.050 A 
BRANCH   6  12
ATOM     12  C   LIG    1       -0.719   1.490  -1.185  0.00  0.00    +0.320 C 
BRANCH  12  17
ATOM     13  C   LIG    1        2.131   0.945   1.195  0.00  0.00    -0.010 C 
ATOM     14  C   LIG    1        1.436   1.379   2.489  0.00  0.00    +0.060 C 
ATOM     15  C   LIG    1       -0.022   0.909   2.456  0.00  0.00    +0.070 C 
ATOM     16  C   LIG    1       -0.707   1.477   1.211  0.00  0.00    +0.240 C 
ATOM     17  N   LIG    1       -0.012   1.005   0.008  0.00  0.00    -0.380 N 
ATOM     18  H   LIG    1        0.002  -0.004   0.002  0.00  0.00    +0.420 HD
ATOM     19  C   LIG    1        1.366   1.511  -0.003  0.00  0.00    +0.290 C 
BRANCH  13  23
ATOM     20  N   LIG    1        4.407   1.100   2.150  0.00  0.00    -0.840 N 
ATOM     21  H   LIG    1        5.317   1.436   2.142  0.00  0.00    +0.420 HD
ATOM     22  H   LIG    1        4.119   0.498   2.854  0.00  0.00    +0.410 HD
ATOM     23  C   LIG    1        3.544   1.468   1.183  0.00  0.00    +0.530 C 
ATOM     24  O   LIG    1        3.905   2.220   0.302  0.00  0.00    -0.530 OA
ENDBRANCH  13  23
ENDBRANCH  12  17
ENDBRANCH   6  12
ENDBRANCH   5  10
ENDBRANCH   1   5
BRANCH   3  25
ATOM     25  C   LIG    1       -4.641  -2.704  -6.362  0.00  0.00    +0.260 C 
BRANCH  25  26
ATOM     26  N   LIG    1       -4.842  -3.975  -7.062  0.00  0.00    -0.710 N 
ATOM     27  H   LIG    1       -5.110  -4.765  -6.566  0.00  0.00    +0.410 HD
ATOM     28  C   LIG    1       -4.655  -4.048  -8.395  0.00  0.00    +0.570 C 
ATOM     29  O   LIG    1       -4.319  -3.059  -9.016  0.00  0.00    -0.510 OA
BRANCH  28  30
ATOM     30  C   LIG    1       -4.858  -5.331  -9.100  0.00  0.00    -0.190 A 
ATOM     31  C   LIG    1       -4.672  -5.419 -10.485  0.00  0.00    +0.140 A 
ATOM     32  C   LIG    1       -4.869  -6.645 -11.097  0.00  0.00    -0.030 A 
ATOM     33  C   LIG    1       -5.251  -7.731 -10.330  0.00  0.00    +0.290 A 
ATOM     34  N   LIG    1       -5.423  -7.617  -9.027  0.00  0.00    -0.490 NA
ATOM     35  C   LIG    1       -5.243  -6.474  -8.398  0.00  0.00    +0.290 A 
ENDBRANCH  28  30
ENDBRANCH  25  26
BRANCH  25  36
ATOM     36  C   LIG    1       -5.922  -1.871  -6.440  0.00  0.00    +0.070 C 
BRANCH  36  37
ATOM     37  C   LIG    1       -6.193  -1.498  -7.875  0.00  0.00    -0.070 A 
ATOM     38  C   LIG    1       -5.679  -0.324  -8.393  0.00  0.00    +0.000 A 
ATOM     39  C   LIG    1       -5.923   0.016  -9.710  0.00  0.00    +0.010 A 
ATOM     40  C   LIG    1       -6.690  -0.814 -10.507  0.00  0.00    +0.010 A 
ATOM     41  C   LIG    1       -7.207  -1.986  -9.988  0.00  0.00    +0.010 A 
ATOM     42  C   LIG    1       -6.959  -2.328  -8.672  0.00  0.00    +0.000 A 
ENDBRANCH  36  37
ENDBRANCH  25  36
ENDBRANCH   3  25
TORSDOF 10
