REMARK  Name = ZINCtV00001bB3Fj.0
REMARK                            x       y       z     vdW  Elec       q    Type
REMARK                         _______ _______ _______ _____ _____    ______ ____
ROOT
ATOM      1 BR   LIG    1        4.030  -0.924  -0.041  0.00  0.00    -0.040 Br
ATOM      2  C   LIG    1        2.400   0.034  -0.021  0.00  0.00    -0.080 A 
ATOM      3  C   LIG    1        2.420   1.397  -0.013  0.00  0.00    +0.080 A 
ATOM      4  C   LIG    1        1.213   2.108   0.002  0.00  0.00    -0.080 A 
ATOM      5  C   LIG    1        1.195   3.526   0.009  0.00  0.00    +0.020 A 
ATOM      6  C   LIG    1       -0.038   4.161   0.025  0.00  0.00    +0.040 A 
ATOM      7  C   LIG    1       -1.209   3.392   0.032  0.00  0.00    +0.290 A 
ATOM      8  N   LIG    1       -1.171   2.072   0.019  0.00  0.00    -0.450 NA
ATOM      9  C   LIG    1       -0.017   1.404   0.010  0.00  0.00    +0.150 A 
ATOM     10  C   LIG    1        0.002  -0.004   0.002  0.00  0.00    +0.080 A 
ATOM     11  C   LIG    1        1.192  -0.663  -0.013  0.00  0.00    +0.060 A 
ENDROOT
BRANCH   5  12
ATOM     12  C   LIG    1        2.455   4.306   0.002  0.00  0.00    -0.060 A 
ATOM     13  C   LIG    1        3.465   4.014   0.919  0.00  0.00    +0.030 A 
ATOM     14  C   LIG    1        4.638   4.739   0.903  0.00  0.00    +0.010 A 
ATOM     15  C   LIG    1        4.810   5.763  -0.012  0.00  0.00    +0.020 A 
ATOM     16  C   LIG    1        3.810   6.061  -0.920  0.00  0.00    +0.010 A 
ATOM     17  C   LIG    1        2.634   5.338  -0.918  0.00  0.00    +0.030 A 
ENDBRANCH   5  12
BRANCH   7  18
ATOM     18  N   LIG    1       -2.426   4.027   0.046  0.00  0.00    -0.210 NA
ATOM     19  N   LIG    1       -3.473   3.361   0.053  0.00  0.00    -0.150 NA
BRANCH  19  20
ATOM     20  C   LIG    1       -4.771   4.039   0.068  0.00  0.00    +0.280 C 
BRANCH  20  21
ATOM     21  C   LIG    1       -5.557   3.647  -1.157  0.00  0.00    -0.170 A 
ATOM     22  C   LIG    1       -5.699   4.370  -2.279  0.00  0.00    +0.240 A 
ATOM     23  N   LIG    1       -6.479   3.691  -3.176  0.00  0.00    -0.590 N 
ATOM     24  H   LIG    1       -6.719   4.011  -4.059  0.00  0.00    +0.420 HD
ATOM     25  C   LIG    1       -6.875   2.489  -2.635  0.00  0.00    +0.090 A 
ATOM     26  C   LIG    1       -7.661   1.441  -3.103  0.00  0.00    -0.010 A 
ATOM     27  C   LIG    1       -7.881   0.341  -2.303  0.00  0.00    +0.030 A 
ATOM     28  C   LIG    1       -7.327   0.266  -1.033  0.00  0.00    -0.020 A 
ATOM     29  C   LIG    1       -6.552   1.284  -0.553  0.00  0.00    +0.060 A 
ATOM     30  C   LIG    1       -6.315   2.408  -1.347  0.00  0.00    -0.090 A 
ENDBRANCH  20  21
ENDBRANCH  19  20
ENDBRANCH   7  18
TORSDOF 4
