REMARK  Name = ZINCtV00001bB3Fj.1
REMARK                            x       y       z     vdW  Elec       q    Type
REMARK                         _______ _______ _______ _____ _____    ______ ____
ROOT
ATOM      1 BR   LIG    1        8.212  -7.290  -0.122  0.00  0.00    -0.050 Br
ATOM      2  C   LIG    1        7.652  -5.483  -0.105  0.00  0.00    -0.110 A 
ATOM      3  C   LIG    1        8.585  -4.488  -0.107  0.00  0.00    +0.090 A 
ATOM      4  C   LIG    1        8.170  -3.152  -0.096  0.00  0.00    -0.130 A 
ATOM      5  C   LIG    1        9.135  -2.051  -0.099  0.00  0.00    +0.060 A 
ATOM      6  C   LIG    1        8.629  -0.761  -0.086  0.00  0.00    -0.060 A 
ATOM      7  C   LIG    1        7.244  -0.564  -0.072  0.00  0.00    +0.450 A 
ATOM      8  N   LIG    1        6.390  -1.567  -0.064  0.00  0.00    -0.510 NA
ATOM      9  C   LIG    1        6.789  -2.843  -0.081  0.00  0.00    +0.190 A 
ATOM     10  C   LIG    1        5.856  -3.895  -0.078  0.00  0.00    +0.050 A 
ATOM     11  C   LIG    1        6.291  -5.185  -0.090  0.00  0.00    +0.070 A 
ENDROOT
BRANCH   5  12
ATOM     12  C   LIG    1       10.594  -2.306  -0.114  0.00  0.00    -0.060 A 
ATOM     13  C   LIG    1       11.159  -3.192   0.803  0.00  0.00    +0.030 A 
ATOM     14  C   LIG    1       12.519  -3.429   0.781  0.00  0.00    +0.010 A 
ATOM     15  C   LIG    1       13.321  -2.781  -0.141  0.00  0.00    +0.020 A 
ATOM     16  C   LIG    1       12.767  -1.898  -1.050  0.00  0.00    +0.010 A 
ATOM     17  C   LIG    1       11.408  -1.657  -1.042  0.00  0.00    +0.030 A 
ENDBRANCH   5  12
BRANCH   7  18
ATOM     18  N   LIG    1        6.752   0.732  -0.059  0.00  0.00    -0.570 N 
ATOM     19  H   LIG    1        7.366   1.483  -0.061  0.00  0.00    +0.390 HD
BRANCH  18  20
ATOM     20  N   LIG    1        5.370   0.957  -0.045  0.00  0.00    -0.220 NA
ATOM     21  C   LIG    1        4.909   2.171  -0.033  0.00  0.00    +0.250 C 
BRANCH  21  22
ATOM     22  C   LIG    1        3.456   2.408  -0.018  0.00  0.00    -0.140 A 
ATOM     23  C   LIG    1        2.829   3.614  -0.005  0.00  0.00    +0.280 A 
ATOM     24  N   LIG    1        1.477   3.430   0.007  0.00  0.00    -0.590 N 
ATOM     25  H   LIG    1        0.820   4.143   0.017  0.00  0.00    +0.420 HD
ATOM     26  C   LIG    1        1.179   2.084   0.002  0.00  0.00    +0.090 A 
ATOM     27  C   LIG    1       -0.017   1.373   0.010  0.00  0.00    -0.010 A 
ATOM     28  C   LIG    1        0.002  -0.004   0.002  0.00  0.00    +0.030 A 
ATOM     29  C   LIG    1        1.205  -0.695  -0.013  0.00  0.00    -0.030 A 
ATOM     30  C   LIG    1        2.400  -0.010  -0.021  0.00  0.00    +0.080 A 
ATOM     31  C   LIG    1        2.397   1.383  -0.013  0.00  0.00    -0.080 A 
ENDBRANCH  21  22
ENDBRANCH  18  20
ENDBRANCH   7  18
TORSDOF 4
