REMARK  Name = ZINCrD000000AqRt.0
REMARK                            x       y       z     vdW  Elec       q    Type
REMARK                         _______ _______ _______ _____ _____    ______ ____
ROOT
ATOM      1  O   LIG    1       -4.619   0.345   0.026  0.00  0.00    -0.510 OA
ATOM      2  C   LIG    1       -4.793   1.546   0.033  0.00  0.00    +0.520 C 
ATOM      3  N   LIG    1       -6.045   2.045   0.042  0.00  0.00    -0.610 N 
ATOM      4  C   LIG    1       -6.272   3.497   0.057  0.00  0.00    +0.270 C 
ATOM      5  C   LIG    1       -7.204   3.858  -1.110  0.00  0.00    +0.030 C 
ATOM      6  C   LIG    1       -8.482   3.021  -1.012  0.00  0.00    +0.040 C 
ATOM      7  C   LIG    1       -8.130   1.536  -1.118  0.00  0.00    +0.090 C 
ATOM      8  C   LIG    1       -7.209   1.148   0.043  0.00  0.00    +0.320 C 
ENDROOT
BRANCH   7   9
ATOM      9  C   LIG    1       -9.392   0.714  -1.054  0.00  0.00    +0.140 A 
ATOM     10  N   LIG    1      -10.246   0.684  -0.064  0.00  0.00    -0.240 NA
ATOM     11  N   LIG    1      -11.214  -0.120  -0.334  0.00  0.00    -0.290 NA
ATOM     12  C   LIG    1      -11.020  -0.660  -1.526  0.00  0.00    +0.190 A 
ATOM     13  C   LIG    1      -11.744  -1.588  -2.299  0.00  0.00    +0.080 A 
ATOM     14  C   LIG    1      -11.267  -1.952  -3.520  0.00  0.00    +0.060 A 
ATOM     15  C   LIG    1      -10.064  -1.399  -3.991  0.00  0.00    +0.030 A 
ATOM     16  C   LIG    1       -9.381  -0.510  -3.240  0.00  0.00    +0.230 A 
ATOM     17  N   LIG    1       -9.848  -0.137  -2.014  0.00  0.00    -0.390 N 
ENDBRANCH   7   9
BRANCH   2  18
ATOM     18  C   LIG    1       -3.610   2.479   0.033  0.00  0.00    +0.240 C 
BRANCH  18  19
ATOM     19  O   LIG    1       -2.402   1.716   0.023  0.00  0.00    -0.270 OA
BRANCH  19  20
ATOM     20  C   LIG    1       -1.233   2.410   0.021  0.00  0.00    +0.130 A 
ATOM     21  C   LIG    1       -1.249   3.796   0.033  0.00  0.00    -0.020 A 
ATOM     22  C   LIG    1       -0.061   4.501   0.027  0.00  0.00    +0.040 A 
ATOM     23  C   LIG    1        1.147   3.824   0.012  0.00  0.00    +0.080 A 
ATOM     24  C   LIG    1        1.166   2.440   0.004  0.00  0.00    +0.050 A 
ATOM     25  F   LIG    1        2.308   4.515   0.005  0.00  0.00    -0.130 F 
ATOM     26  C   LIG    1       -0.021   1.732   0.012  0.00  0.00    -0.040 A 
ATOM     27 CL   LIG    1        0.002  -0.004   0.002  0.00  0.00    -0.030 Cl
ENDBRANCH  19  20
ENDBRANCH  18  19
ENDBRANCH   2  18
TORSDOF 4
