REMARK  Name = ZINCpe000000TwwZ.0
REMARK                            x       y       z     vdW  Elec       q    Type
REMARK                         _______ _______ _______ _____ _____    ______ ____
ROOT
ATOM      1  N   LIG    1        0.922  -4.444   2.227  0.00  0.00    -0.700 N 
ATOM      2  H   LIG    1        0.700  -3.808   2.924  0.00  0.00    +0.400 HD
ATOM      3  C   LIG    1        1.226  -5.718   2.549  0.00  0.00    +0.590 C 
ATOM      4  O   LIG    1        1.504  -6.516   1.674  0.00  0.00    -0.490 OA
ENDROOT
BRANCH   3   5
ATOM      5  C   LIG    1        1.221  -6.141   3.954  0.00  0.00    -0.020 A 
ATOM      6  C   LIG    1        1.499  -7.389   4.435  0.00  0.00    -0.000 A 
ATOM      7  N   LIG    1        1.385  -7.349   5.763  0.00  0.00    -0.460 NA
ATOM      8  C   LIG    1        1.042  -6.144   6.139  0.00  0.00    +0.470 A 
ATOM      9  N   LIG    1        0.927  -5.358   5.054  0.00  0.00    -0.540 N 
ATOM     10  H   LIG    1        0.684  -4.419   5.045  0.00  0.00    +0.430 HD
BRANCH   6  11
ATOM     11  C   LIG    1        1.872  -8.595   3.612  0.00  0.00    +0.550 C 
ATOM     12  F   LIG    1        1.267  -8.506   2.353  0.00  0.00    -0.150 F 
ATOM     13  F   LIG    1        1.433  -9.755   4.259  0.00  0.00    -0.170 F 
ATOM     14  F   LIG    1        3.262  -8.644   3.459  0.00  0.00    -0.170 F 
ENDBRANCH   6  11
ENDBRANCH   3   5
BRANCH   1  17
ATOM     15  N   LIG    1        1.165  -1.946   0.870  0.00  0.00    -0.460 NA
ATOM     16  C   LIG    1        2.056  -3.048   0.460  0.00  0.00    +0.170 C 
ATOM     17  C   LIG    1        0.927  -4.022   0.824  0.00  0.00    +0.230 C 
ATOM     18  C   LIG    1        0.025  -2.816   0.527  0.00  0.00    +0.200 C 
BRANCH  15  23
ATOM     19  N   LIG    1       -0.016   1.329   0.009  0.00  0.00    -0.600 N 
ATOM     20  C   LIG    1        1.180   2.163   0.002  0.00  0.00    +0.260 C 
ATOM     21  C   LIG    1        2.388   1.361  -0.482  0.00  0.00    +0.020 C 
ATOM     22  C   LIG    1        2.464   0.055   0.318  0.00  0.00    +0.050 C 
ATOM     23  C   LIG    1        1.264  -0.816  -0.063  0.00  0.00    +0.120 C 
ATOM     24  C   LIG    1        0.002  -0.004   0.002  0.00  0.00    +0.520 C 
ATOM     25  O   LIG    1       -1.057  -0.593   0.051  0.00  0.00    -0.540 OA
BRANCH  19  27
ATOM     26  C   LIG    1       -1.766   2.223   1.465  0.00  0.00    +0.020 C 
ATOM     27  C   LIG    1       -1.319   1.998   0.019  0.00  0.00    +0.270 C 
ENDBRANCH  19  27
ENDBRANCH  15  23
ENDBRANCH   1  17
TORSDOF 5
