REMARK  Name = ZINCqH0000008wtP.0
REMARK                            x       y       z     vdW  Elec       q    Type
REMARK                         _______ _______ _______ _____ _____    ______ ____
ROOT
ATOM      1  C   LIG    1       -5.524  -3.899   1.054  0.00  0.00    +0.060 C 
ATOM      2  C   LIG    1       -4.476  -3.468   0.026  0.00  0.00    +0.290 C 
ENDROOT
BRANCH   2   3
ATOM      3  C   LIG    1       -3.168  -3.199   0.724  0.00  0.00    -0.100 A 
ATOM      4  C   LIG    1       -2.871  -1.923   1.166  0.00  0.00    +0.060 A 
ATOM      5  C   LIG    1       -1.673  -1.674   1.806  0.00  0.00    +0.030 A 
ATOM      6  C   LIG    1       -0.767  -2.706   2.007  0.00  0.00    +0.150 A 
ATOM      7  C   LIG    1       -1.066  -3.986   1.557  0.00  0.00    +0.000 A 
ATOM      8  C   LIG    1       -2.268  -4.230   0.922  0.00  0.00    +0.050 A 
BRANCH   6   9
ATOM      9  N   LIG    1        0.450  -2.457   2.656  0.00  0.00    -0.330 N 
ATOM     10  C   LIG    1        1.423  -3.350   2.921  0.00  0.00    +0.480 A 
ATOM     11  N   LIG    1        2.392  -2.724   3.538  0.00  0.00    -0.540 NA
ATOM     12  C   LIG    1        2.078  -1.437   3.684  0.00  0.00    +0.440 A 
ATOM     13  N   LIG    1        0.898  -1.225   3.161  0.00  0.00    -0.310 NA
ENDBRANCH   6   9
ENDBRANCH   2   3
BRANCH   2  14
ATOM     14  N   LIG    1       -4.293  -4.535  -0.961  0.00  0.00    -0.610 N 
ATOM     15  C   LIG    1       -4.141  -4.228  -2.264  0.00  0.00    +0.540 C 
ATOM     16  O   LIG    1       -4.156  -3.069  -2.620  0.00  0.00    -0.510 OA
ATOM     17  C   LIG    1       -4.275  -5.935  -0.531  0.00  0.00    +0.290 C 
BRANCH  15  18
ATOM     18  C   LIG    1       -3.952  -5.326  -3.280  0.00  0.00    +0.090 C 
BRANCH  18  19
ATOM     19  S   LIG    1       -3.777  -4.598  -4.932  0.00  0.00    -0.020 S 
BRANCH  19  20
ATOM     20  C   LIG    1       -3.570  -6.009  -5.967  0.00  0.00    -0.110 A 
ATOM     21  C   LIG    1       -3.568  -7.283  -5.414  0.00  0.00    +0.020 A 
ATOM     22  C   LIG    1       -3.411  -8.388  -6.228  0.00  0.00    +0.010 A 
ATOM     23  C   LIG    1       -3.244  -8.225  -7.593  0.00  0.00    +0.090 A 
ATOM     24  C   LIG    1       -3.239  -6.955  -8.146  0.00  0.00    +0.010 A 
ATOM     25  F   LIG    1       -3.084  -9.307  -8.386  0.00  0.00    -0.140 F 
ATOM     26  C   LIG    1       -3.401  -5.848  -7.337  0.00  0.00    +0.070 A 
ENDBRANCH  19  20
ENDBRANCH  18  19
ENDBRANCH  15  18
ENDBRANCH   2  14
TORSDOF 6
