REMARK  Name = ZINCpk00000y6yPz.0
REMARK                            x       y       z     vdW  Elec       q    Type
REMARK                         _______ _______ _______ _____ _____    ______ ____
ROOT
ATOM      1  C   LIG    1       -1.296   2.438  -4.709  0.00  0.00    +0.210 C 
ATOM      2  C   LIG    1       -1.175   3.951  -4.989  0.00  0.00    +0.040 C 
ATOM      3  C   LIG    1       -2.051   4.199  -6.234  0.00  0.00    +0.030 C 
ATOM      4  C   LIG    1       -2.628   2.815  -6.601  0.00  0.00    +0.180 C 
ATOM      5  N   LIG    1       -2.585   2.043  -5.332  0.00  0.00    -0.480 NA
ENDROOT
BRANCH   1   8
ATOM      6  C   LIG    1        0.995   1.241  -2.993  0.00  0.00    +0.320 C 
ATOM      7  N   LIG    1       -0.318   1.657  -2.493  0.00  0.00    -0.450 N 
ATOM      8  C   LIG    1       -1.329   2.180  -3.224  0.00  0.00    +0.210 A 
ATOM      9  N   LIG    1       -2.339   2.425  -2.431  0.00  0.00    -0.450 NA
ATOM     10  C   LIG    1       -2.013   2.072  -1.185  0.00  0.00    +0.000 A 
ATOM     11  C   LIG    1       -2.860   2.168   0.060  0.00  0.00    +0.120 C 
ATOM     12  C   LIG    1       -2.236   1.275   1.140  0.00  0.00    +0.010 C 
ATOM     13  C   LIG    1       -0.741   1.586   1.262  0.00  0.00    +0.030 C 
ATOM     14  C   LIG    1       -0.013   1.086   0.008  0.00  0.00    +0.100 C 
ATOM     15  C   LIG    1       -0.751   1.590  -1.204  0.00  0.00    -0.030 A 
ENDBRANCH   1   8
BRANCH   5  16
ATOM     16  C   LIG    1       -2.623   0.598  -5.593  0.00  0.00    +0.140 C 
BRANCH  16  17
ATOM     17  C   LIG    1       -4.041   0.190  -5.998  0.00  0.00    +0.210 C 
BRANCH  17  18
ATOM     18  O   LIG    1       -4.377   0.808  -7.242  0.00  0.00    -0.550 OA
ATOM     19  H   LIG    1       -3.791   0.567  -7.972  0.00  0.00    +0.360 HD
ENDBRANCH  17  18
BRANCH  17  20
ATOM     20  C   LIG    1       -4.110  -1.331  -6.149  0.00  0.00    +0.270 C 
BRANCH  20  21
ATOM     21  N   LIG    1       -5.468  -1.721  -6.537  0.00  0.00    -0.610 N 
ATOM     22  C   LIG    1       -5.931  -1.840  -7.924  0.00  0.00    +0.250 C 
ATOM     23  C   LIG    1       -7.474  -1.836  -7.846  0.00  0.00    +0.040 C 
ATOM     24  C   LIG    1       -7.718  -2.367  -6.414  0.00  0.00    +0.040 C 
ATOM     25  C   LIG    1       -6.448  -2.022  -5.667  0.00  0.00    +0.520 C 
ATOM     26  O   LIG    1       -6.332  -2.016  -4.460  0.00  0.00    -0.530 OA
ENDBRANCH  20  21
ENDBRANCH  17  20
ENDBRANCH  16  17
ENDBRANCH   5  16
TORSDOF 6
