REMARK  Name = ZINCrD00000F5Lno.0
REMARK                            x       y       z     vdW  Elec       q    Type
REMARK                         _______ _______ _______ _____ _____    ______ ____
ROOT
ATOM      1  C   LIG    1        3.631   3.675  -0.015  0.00  0.00    +0.090 C 
ATOM      2  C   LIG    1        3.654   2.168  -0.023  0.00  0.00    +0.140 C 
ATOM      3  N   LIG    1        4.788   1.537  -0.038  0.00  0.00    -0.220 NA
ENDROOT
BRANCH   2   4
ATOM      4  C   LIG    1        2.389   1.411  -0.014  0.00  0.00    -0.040 A 
ATOM      5  C   LIG    1        1.168   2.089   0.002  0.00  0.00    +0.060 A 
ATOM      6  C   LIG    1       -0.017   1.381   0.010  0.00  0.00    +0.040 A 
ATOM      7  C   LIG    1        0.002  -0.004   0.002  0.00  0.00    +0.090 A 
ATOM      8  O   LIG    1       -1.160  -0.710   0.008  0.00  0.00    -0.300 OA
ATOM      9  C   LIG    1       -1.159  -1.957  -0.692  0.00  0.00    +0.300 C 
ATOM     10  C   LIG    1        0.074  -2.742  -0.326  0.00  0.00    +0.490 C 
ATOM     11  N   LIG    1        1.217  -2.091  -0.018  0.00  0.00    -0.660 N 
ATOM     12  H   LIG    1        2.024  -2.585   0.195  0.00  0.00    +0.420 HD
ATOM     13  O   LIG    1        0.041  -3.955  -0.308  0.00  0.00    -0.510 OA
ATOM     14  C   LIG    1        1.219  -0.688  -0.013  0.00  0.00    +0.090 A 
ATOM     15  C   LIG    1        2.409   0.013  -0.021  0.00  0.00    +0.070 A 
ENDBRANCH   2   4
BRANCH   3  16
ATOM     16  N   LIG    1        5.990   2.256  -0.046  0.00  0.00    -0.580 N 
ATOM     17  H   LIG    1        5.975   3.226  -0.041  0.00  0.00    +0.380 HD
ATOM     18  C   LIG    1        7.168   1.601  -0.061  0.00  0.00    +0.610 C 
ATOM     19  O   LIG    1        7.187   0.384  -0.067  0.00  0.00    -0.490 OA
BRANCH  18  20
ATOM     20  C   LIG    1        8.425   2.353  -0.070  0.00  0.00    -0.280 A 
ATOM     21  C   LIG    1        9.672   1.807  -0.079  0.00  0.00    +0.120 A 
ATOM     22  C   LIG    1       10.696   2.737  -0.089  0.00  0.00    -0.120 A 
ATOM     23  C   LIG    1       10.270   4.021  -0.079  0.00  0.00    -0.180 A 
ATOM     24  C   LIG    1       11.191   5.227  -0.082  0.00  0.00    +0.120 C 
ATOM     25  C   LIG    1       12.598   4.774   0.316  0.00  0.00    +0.040 C 
ATOM     26  C   LIG    1       12.992   3.566  -0.539  0.00  0.00    -0.020 C 
ATOM     27  C   LIG    1       14.481   3.268  -0.350  0.00  0.00    +0.030 C 
ATOM     28  C   LIG    1       12.169   2.352  -0.105  0.00  0.00    +0.110 C 
ATOM     29  S   LIG    1        8.565   4.104  -0.062  0.00  0.00    +0.190 S 
ENDBRANCH  18  20
ENDBRANCH   3  16
TORSDOF 3
