REMARK  Name = ZINCrD00000l1Y75.0
REMARK                            x       y       z     vdW  Elec       q    Type
REMARK                         _______ _______ _______ _____ _____    ______ ____
ROOT
ATOM      1  C   LIG    1       -0.462   2.200  -2.296  0.00  0.00    +0.520 C 
ATOM      2  N   LIG    1       -0.990   1.501  -1.272  0.00  0.00    -0.620 N 
ATOM      3  C   LIG    1       -0.174   1.160  -0.099  0.00  0.00    +0.280 C 
ATOM      4  C   LIG    1       -0.894   1.643   1.164  0.00  0.00    +0.030 C 
ATOM      5  C   LIG    1       -2.312   1.058   1.190  0.00  0.00    +0.010 C 
ATOM      6  C   LIG    1       -3.092   1.549  -0.032  0.00  0.00    +0.050 C 
ATOM      7  C   LIG    1       -2.393   1.065  -1.307  0.00  0.00    +0.270 C 
ATOM      8  O   LIG    1        0.697   2.553  -2.255  0.00  0.00    -0.530 OA
ENDROOT
BRANCH   5   9
ATOM      9  C   LIG    1       -3.015   1.503   2.446  0.00  0.00    +0.520 C 
ATOM     10  N   LIG    1       -2.506   1.183   3.652  0.00  0.00    -0.670 N 
ATOM     11  H   LIG    1       -1.731   0.603   3.713  0.00  0.00    +0.410 HD
ATOM     12  O   LIG    1       -4.039   2.149   2.372  0.00  0.00    -0.510 OA
BRANCH  10  13
ATOM     13  C   LIG    1       -3.095   1.687   4.813  0.00  0.00    +0.190 A 
ATOM     14  C   LIG    1       -3.692   2.946   4.824  0.00  0.00    -0.040 A 
ATOM     15  C   LIG    1       -4.266   3.406   5.991  0.00  0.00    +0.280 A 
ATOM     16  N   LIG    1       -4.246   2.674   7.089  0.00  0.00    -0.500 NA
ATOM     17  C   LIG    1       -3.687   1.479   7.120  0.00  0.00    +0.280 A 
ATOM     18  C   LIG    1       -3.095   0.945   5.994  0.00  0.00    -0.060 A 
ENDBRANCH  10  13
ENDBRANCH   5   9
BRANCH   1  19
ATOM     19  C   LIG    1       -1.312   2.542  -3.493  0.00  0.00    +0.060 C 
BRANCH  19  20
ATOM     20  C   LIG    1       -0.477   3.332  -4.502  0.00  0.00    +0.070 C 
BRANCH  20  21
ATOM     21  C   LIG    1       -1.341   3.679  -5.717  0.00  0.00    +0.030 C 
BRANCH  21  23
ATOM     22  O   LIG    1        0.645   4.710  -6.472  0.00  0.00    -0.440 OA
ATOM     23  C   LIG    1       -0.518   4.457  -6.711  0.00  0.00    +0.420 C 
BRANCH  23  24
ATOM     24  C   LIG    1       -1.101   4.893  -7.922  0.00  0.00    -0.310 A 
ATOM     25  C   LIG    1       -0.459   5.606  -8.903  0.00  0.00    +0.110 A 
ATOM     26  C   LIG    1       -1.265   5.898  -9.975  0.00  0.00    -0.010 A 
ATOM     27  C   LIG    1       -2.522   5.444  -9.882  0.00  0.00    -0.050 A 
ATOM     28  S   LIG    1       -2.763   4.603  -8.418  0.00  0.00    +0.220 S 
ENDBRANCH  23  24
ENDBRANCH  21  23
ENDBRANCH  20  21
ENDBRANCH  19  20
ENDBRANCH   1  19
TORSDOF 7
