REMARK  Name = ZINCrg000000mRIT.0
REMARK                            x       y       z     vdW  Elec       q    Type
REMARK                         _______ _______ _______ _____ _____    ______ ____
ROOT
ATOM      1  S   LIG    1       -0.911   0.979   2.226  0.00  0.00    +2.690 S 
ATOM      2  O   LIG    1       -1.001  -0.360   1.758  0.00  0.00    -0.960 OA
ATOM      3  O   LIG    1       -2.035   1.719   2.684  0.00  0.00    -0.950 OA
ENDROOT
BRANCH   1  10
ATOM      4  C   LIG    1        4.440   1.269   8.601  0.00  0.00    +0.110 C 
ATOM      5  C   LIG    1        3.294   1.551   7.663  0.00  0.00    +0.520 C 
ATOM      6  N   LIG    1        3.080   0.750   6.601  0.00  0.00    -0.550 N 
ATOM      7  C   LIG    1        2.080   0.941   5.641  0.00  0.00    +0.200 A 
ATOM      8  C   LIG    1        1.117   1.947   5.555  0.00  0.00    +0.000 A 
ATOM      9  C   LIG    1        0.211   1.955   4.516  0.00  0.00    +0.150 A 
ATOM     10  C   LIG    1        0.249   0.965   3.552  0.00  0.00    -0.700 A 
ATOM     11  C   LIG    1        1.197  -0.038   3.633  0.00  0.00    +0.160 A 
ATOM     12  C   LIG    1        2.110  -0.047   4.670  0.00  0.00    -0.160 A 
ATOM     13  C   LIG    1        3.235  -1.005   4.992  0.00  0.00    +0.120 C 
ATOM     14  C   LIG    1        3.861  -0.448   6.281  0.00  0.00    +0.220 C 
ATOM     15  C   LIG    1        3.749  -1.474   7.411  0.00  0.00    +0.050 C 
ATOM     16  O   LIG    1        2.565   2.499   7.865  0.00  0.00    -0.510 OA
ENDBRANCH   1  10
BRANCH   1  17
ATOM     17  N   LIG    1       -0.240   1.861   0.996  0.00  0.00    -0.990 NA
ATOM     18  C   LIG    1        0.460   1.197  -0.115  0.00  0.00    +0.300 C 
ATOM     19  C   LIG    1       -0.106   1.725  -1.437  0.00  0.00    +0.170 C 
ATOM     20  N   LIG    1       -0.033   3.192  -1.446  0.00  0.00    -0.530 NA
ATOM     21  C   LIG    1       -0.866   3.774  -0.385  0.00  0.00    +0.200 C 
ATOM     22  C   LIG    1       -0.332   3.329   0.981  0.00  0.00    +0.230 C 
ATOM     23  C   LIG    1       -1.282   3.801   2.083  0.00  0.00    +0.060 C 
BRANCH  20  24
ATOM     24  C   LIG    1       -0.405   3.730  -2.761  0.00  0.00    +0.190 C 
BRANCH  24  25
ATOM     25  C   LIG    1       -1.882   3.438  -3.033  0.00  0.00    +0.160 C 
ATOM     26  C   LIG    1       -2.239   3.886  -4.451  0.00  0.00    +0.010 C 
BRANCH  25  27
ATOM     27  O   LIG    1       -2.689   4.148  -2.092  0.00  0.00    -0.560 OA
ATOM     28  H   LIG    1       -2.578   5.108  -2.124  0.00  0.00    +0.370 HD
ENDBRANCH  25  27
ENDBRANCH  24  25
ENDBRANCH  20  24
ENDBRANCH   1  17
TORSDOF 5
