REMARK  Name = ZINCrg000000rwo1.0
REMARK                            x       y       z     vdW  Elec       q    Type
REMARK                         _______ _______ _______ _____ _____    ______ ____
ROOT
ATOM      1  C   LIG    1       -1.705  -1.116   1.444  0.00  0.00    +0.110 C 
ATOM      2  C   LIG    1       -1.294  -0.774   0.010  0.00  0.00    +0.180 C 
ATOM      3  N   LIG    1       -1.176  -1.995  -0.805  0.00  0.00    -0.720 N 
ATOM      4  H   LIG    1       -0.568  -2.736  -0.654  0.00  0.00    +0.440 HD
ATOM      5  C   LIG    1       -2.077  -1.883  -1.798  0.00  0.00    +0.710 C 
ATOM      6  N   LIG    1       -2.769  -0.740  -1.734  0.00  0.00    -0.560 N 
ATOM      7  O   LIG    1       -2.243  -2.726  -2.657  0.00  0.00    -0.530 OA
ATOM      8  C   LIG    1       -2.386   0.014  -0.684  0.00  0.00    +0.540 C 
ATOM      9  O   LIG    1       -2.825   1.098  -0.363  0.00  0.00    -0.450 OA
ENDROOT
BRANCH   2  10
ATOM     10  C   LIG    1        0.002  -0.004   0.002  0.00  0.00    -0.090 A 
ATOM     11  C   LIG    1       -0.017   1.378   0.010  0.00  0.00    +0.060 A 
ATOM     12  C   LIG    1        1.170   2.088   0.002  0.00  0.00    +0.050 A 
ATOM     13  C   LIG    1        2.380   1.416  -0.014  0.00  0.00    +0.040 A 
ATOM     14  O   LIG    1        3.668   1.870  -0.024  0.00  0.00    -0.310 OA
ATOM     15  C   LIG    1        4.475   0.746   0.375  0.00  0.00    +0.430 C 
ATOM     16  O   LIG    1        3.698  -0.395  -0.036  0.00  0.00    -0.310 OA
ATOM     17  C   LIG    1        2.399   0.023  -0.021  0.00  0.00    +0.030 A 
ATOM     18  C   LIG    1        1.207  -0.682  -0.013  0.00  0.00    +0.060 A 
ENDBRANCH   2  10
BRANCH   6  19
ATOM     19  C   LIG    1       -3.814  -0.356  -2.686  0.00  0.00    +0.360 C 
BRANCH  19  20
ATOM     20  C   LIG    1       -3.197   0.412  -3.826  0.00  0.00    +0.500 C 
ATOM     21  N   LIG    1       -3.973   0.870  -4.828  0.00  0.00    -0.720 N 
ATOM     22  H   LIG    1       -4.928   0.705  -4.816  0.00  0.00    +0.410 HD
ATOM     23  O   LIG    1       -2.002   0.619  -3.841  0.00  0.00    -0.520 OA
BRANCH  21  24
ATOM     24  C   LIG    1       -3.373   1.617  -5.937  0.00  0.00    +0.400 C 
BRANCH  24  25
ATOM     25  C   LIG    1       -4.448   2.012  -6.916  0.00  0.00    -0.040 A 
ATOM     26  C   LIG    1       -5.167   3.148  -6.879  0.00  0.00    -0.030 A 
ATOM     27  C   LIG    1       -6.053   3.108  -7.981  0.00  0.00    -0.070 A 
ATOM     28  C   LIG    1       -5.827   1.946  -8.620  0.00  0.00    +0.190 A 
ATOM     29  O   LIG    1       -4.854   1.286  -7.971  0.00  0.00    -0.170 OA
ENDBRANCH  24  25
ENDBRANCH  21  24
ENDBRANCH  19  20
ENDBRANCH   6  19
TORSDOF 5
