REMARK  Name = ZINCrg000000sS1I.1
REMARK                            x       y       z     vdW  Elec       q    Type
REMARK                         _______ _______ _______ _____ _____    ______ ____
ROOT
ATOM      1  N   LIG    1        0.013   1.592  -2.388  0.00  0.00    -0.650 NA
ATOM      2  H   LIG    1        0.607   2.407  -2.393  0.00  0.00    +0.350 HD
ENDROOT
BRANCH   1   3
ATOM      3  C   LIG    1       -0.839   1.569  -1.191  0.00  0.00    +0.190 C 
ATOM      4  C   LIG    1       -1.204   3.005  -0.751  0.00  0.00    -0.010 C 
ATOM      5  C   LIG    1       -1.133   2.986   0.787  0.00  0.00    +0.170 C 
ATOM      6  N   LIG    1       -0.774   1.607   1.190  0.00  0.00    -0.470 N 
ATOM      7  C   LIG    1       -0.055   1.022   0.029  0.00  0.00    +0.200 C 
BRANCH   6   8
ATOM      8  C   LIG    1        0.028   1.608   2.323  0.00  0.00    +0.140 A 
ATOM      9  C   LIG    1        1.194   2.362   2.352  0.00  0.00    -0.030 A 
ATOM     10  C   LIG    1        1.987   2.367   3.482  0.00  0.00    +0.050 A 
ATOM     11  C   LIG    1        1.634   1.613   4.589  0.00  0.00    +0.000 A 
ATOM     12  C   LIG    1        0.484   0.854   4.577  0.00  0.00    +0.050 A 
ATOM     13  C   LIG    1       -0.332   0.843   3.444  0.00  0.00    -0.120 A 
BRANCH  13  14
ATOM     14  C   LIG    1       -1.564   0.034   3.424  0.00  0.00    +0.560 C 
ATOM     15  O   LIG    1       -2.220  -0.051   2.404  0.00  0.00    -0.500 OA
ATOM     16  N   LIG    1       -1.964  -0.613   4.537  0.00  0.00    -0.860 N 
ATOM     17  H   LIG    1       -2.774  -1.145   4.525  0.00  0.00    +0.400 HD
ATOM     18  H   LIG    1       -1.440  -0.545   5.351  0.00  0.00    +0.400 HD
ENDBRANCH  13  14
ENDBRANCH   6   8
ENDBRANCH   1   3
BRANCH   1  19
ATOM     19  C   LIG    1       -0.797   1.523  -3.611  0.00  0.00    +0.200 C 
BRANCH  19  23
ATOM     20  C   LIG    1        1.365   3.285  -6.853  0.00  0.00    -0.020 A 
ATOM     21  C   LIG    1       -0.008   3.506  -6.723  0.00  0.00    +0.070 A 
ATOM     22  C   LIG    1       -0.699   2.935  -5.675  0.00  0.00    +0.030 A 
ATOM     23  C   LIG    1       -0.035   2.144  -4.754  0.00  0.00    -0.070 A 
ATOM     24  C   LIG    1        1.325   1.925  -4.873  0.00  0.00    +0.060 A 
ATOM     25  C   LIG    1        2.028   2.486  -5.919  0.00  0.00    +0.070 A 
BRANCH  20  27
ATOM     26  N   LIG    1        2.664   4.344  -8.799  0.00  0.00    -0.410 NA
ATOM     27  C   LIG    1        2.089   3.876  -7.938  0.00  0.00    +0.250 C 
ENDBRANCH  20  27
ENDBRANCH  19  23
BRANCH  19  28
ATOM     28  C   LIG    1       -1.100   0.082  -3.933  0.00  0.00    +0.520 C 
ATOM     29  O   LIG    1       -0.682  -0.800  -3.215  0.00  0.00    -0.510 OA
ATOM     30  N   LIG    1       -1.835  -0.225  -5.020  0.00  0.00    -0.860 N 
ATOM     31  H   LIG    1       -2.030  -1.153  -5.228  0.00  0.00    +0.400 HD
ATOM     32  H   LIG    1       -2.169   0.481  -5.595  0.00  0.00    +0.400 HD
ENDBRANCH  19  28
ENDBRANCH   1  19
TORSDOF 7
