REMARK  Name = ZINCpe000000YHWI.1
REMARK                            x       y       z     vdW  Elec       q    Type
REMARK                         _______ _______ _______ _____ _____    ______ ____
ROOT
ATOM      1  N   LIG    1       -7.022   6.547  -4.396  0.00  0.00    -0.540 NA
ATOM      2  C   LIG    1       -7.514   7.657  -3.568  0.00  0.00    +0.190 C 
ATOM      3  C   LIG    1       -6.324   8.383  -2.935  0.00  0.00    +0.180 C 
ATOM      4  N   LIG    1       -5.546   7.433  -2.129  0.00  0.00    -0.530 NA
ATOM      5  C   LIG    1       -5.054   6.323  -2.958  0.00  0.00    +0.180 C 
ATOM      6  C   LIG    1       -6.244   5.597  -3.590  0.00  0.00    +0.180 C 
ENDROOT
BRANCH   1   7
ATOM      7  C   LIG    1       -8.131   5.871  -5.082  0.00  0.00    +0.180 C 
BRANCH   7   8
ATOM      8  C   LIG    1       -7.571   4.894  -6.118  0.00  0.00    +0.060 C 
BRANCH   8   9
ATOM      9  C   LIG    1       -8.726   4.190  -6.833  0.00  0.00    -0.340 C 
BRANCH   9  10
ATOM     10  S   LIG    1       -8.061   3.032  -8.061  0.00  0.00    +2.610 S 
ATOM     11  O   LIG    1       -7.404   1.948  -7.419  0.00  0.00    -0.960 OA
ATOM     12  O   LIG    1       -7.440   3.738  -9.126  0.00  0.00    -0.960 OA
BRANCH  10  13
ATOM     13  N   LIG    1       -9.402   2.348  -8.751  0.00  0.00    -1.250 NA
ATOM     14  H   LIG    1       -9.301   1.683  -9.450  0.00  0.00    +0.420 HD
ATOM     15  H   LIG    1      -10.287   2.611  -8.456  0.00  0.00    +0.410 HD
ENDBRANCH  10  13
ENDBRANCH   9  10
ENDBRANCH   8   9
ENDBRANCH   7   8
ENDBRANCH   1   7
BRANCH   4  16
ATOM     16  C   LIG    1       -4.437   8.109  -1.443  0.00  0.00    +0.210 C 
BRANCH  16  17
ATOM     17  C   LIG    1       -4.981   8.902  -0.253  0.00  0.00    +0.200 C 
BRANCH  17  18
ATOM     18  O   LIG    1       -5.526   7.999   0.712  0.00  0.00    -0.300 OA
BRANCH  18  19
ATOM     19  C   LIG    1       -6.055   8.545   1.838  0.00  0.00    +0.130 A 
ATOM     20  C   LIG    1       -6.049   9.921   2.013  0.00  0.00    -0.080 A 
ATOM     21  C   LIG    1       -6.587  10.471   3.159  0.00  0.00    +0.050 A 
ATOM     22  C   LIG    1       -7.132   9.655   4.136  0.00  0.00    -0.140 A 
ATOM     23  C   LIG    1       -7.771  10.009   5.465  0.00  0.00    +0.070 C 
ATOM     24  C   LIG    1       -7.775   8.693   6.271  0.00  0.00    +0.030 C 
ATOM     25  C   LIG    1       -7.785   7.620   5.162  0.00  0.00    +0.080 C 
ATOM     26  C   LIG    1       -7.139   8.282   3.964  0.00  0.00    -0.060 A 
ATOM     27  C   LIG    1       -6.600   7.728   2.817  0.00  0.00    -0.010 A 
ENDBRANCH  18  19
ENDBRANCH  17  18
ENDBRANCH  16  17
ENDBRANCH   4  16
TORSDOF 9
