REMARK  Name = ZINCvU00000003Xd.0
REMARK                            x       y       z     vdW  Elec       q    Type
REMARK                         _______ _______ _______ _____ _____    ______ ____
ROOT
ATOM      1  N   LIG    1        4.875   4.002  -0.024  0.00  0.00    -0.650 N 
ATOM      2  H   LIG    1        4.952   4.901   0.332  0.00  0.00    +0.420 HD
ATOM      3  C   LIG    1        5.959   3.383  -0.530  0.00  0.00    +0.540 C 
ATOM      4  O   LIG    1        5.846   2.298  -1.061  0.00  0.00    -0.500 OA
ENDROOT
BRANCH   3   5
ATOM      5  C   LIG    1        7.313   4.038  -0.438  0.00  0.00    +0.120 C 
ATOM      6  C   LIG    1        8.211   3.515  -1.559  0.00  0.00    +0.130 C 
ATOM      7  C   LIG    1        9.475   4.330  -1.640  0.00  0.00    -0.020 A 
ATOM      8  C   LIG    1       10.595   3.803  -2.251  0.00  0.00    +0.030 A 
ATOM      9  C   LIG    1       11.757   4.552  -2.336  0.00  0.00    +0.000 A 
ATOM     10  C   LIG    1       11.807   5.833  -1.811  0.00  0.00    +0.030 A 
ATOM     11  C   LIG    1       10.694   6.371  -1.196  0.00  0.00    +0.120 A 
ATOM     12 CL   LIG    1       13.161   3.881  -3.106  0.00  0.00    -0.050 Cl
ATOM     13  C   LIG    1        9.524   5.619  -1.107  0.00  0.00    -0.180 A 
ATOM     14  C   LIG    1        8.323   6.179  -0.447  0.00  0.00    +0.540 C 
ATOM     15  O   LIG    1        8.371   7.219   0.180  0.00  0.00    -0.430 OA
ATOM     16  C   LIG    1        7.946   3.714   0.917  0.00  0.00    +0.080 C 
ATOM     17  O   LIG    1        7.165   5.481  -0.573  0.00  0.00    -0.350 OA
ENDBRANCH   3   5
BRANCH   1  21
ATOM     18  C   LIG    1        1.189   2.052   0.017  0.00  0.00    +0.130 A 
ATOM     19  C   LIG    1        2.360   1.325   0.176  0.00  0.00    -0.060 A 
ATOM     20  C   LIG    1        3.581   1.970   0.162  0.00  0.00    +0.060 A 
ATOM     21  C   LIG    1        3.636   3.347  -0.010  0.00  0.00    +0.100 A 
ATOM     22  C   LIG    1        2.464   4.074  -0.168  0.00  0.00    +0.030 A 
ATOM     23  C   LIG    1        1.244   3.427  -0.161  0.00  0.00    -0.090 A 
BRANCH  18  25
ATOM     24  C   LIG    1        0.005  -0.001   0.212  0.00  0.00    +0.240 C 
ATOM     25  O   LIG    1       -0.013   1.416   0.030  0.00  0.00    -0.310 OA
ENDBRANCH  18  25
BRANCH  23  26
ATOM     26  C   LIG    1       -0.028   4.215  -0.339  0.00  0.00    +0.140 C 
BRANCH  26  27
ATOM     27  C   LIG    1       -0.600   4.558   1.012  0.00  0.00    -0.080 A 
ATOM     28  C   LIG    1       -1.496   3.700   1.621  0.00  0.00    +0.020 A 
ATOM     29  C   LIG    1       -2.018   4.012   2.862  0.00  0.00    +0.000 A 
ATOM     30  C   LIG    1       -1.651   5.188   3.491  0.00  0.00    +0.000 A 
ATOM     31  C   LIG    1       -0.758   6.048   2.880  0.00  0.00    +0.000 A 
ATOM     32  C   LIG    1       -0.233   5.734   1.640  0.00  0.00    +0.000 A 
ENDBRANCH  26  27
ENDBRANCH  23  26
ENDBRANCH   1  21
TORSDOF 5
