REMARK  Name = ZINCpk000000oSK9.0
REMARK                            x       y       z     vdW  Elec       q    Type
REMARK                         _______ _______ _______ _____ _____    ______ ____
ROOT
ATOM      1  C   LIG    1        2.094   4.336   0.108  0.00  0.00    -0.290 C 
ATOM      2  C   LIG    1        1.029   3.510   0.024  0.00  0.00    +0.270 C 
ATOM      3  N   LIG    1       -0.241   4.004  -0.059  0.00  0.00    -0.640 N 
ATOM      4  H   LIG    1       -0.975   3.373  -0.114  0.00  0.00    +0.440 HD
ATOM      5  C   LIG    1       -0.530   5.312  -0.070  0.00  0.00    +0.710 C 
ATOM      6  N   LIG    1        0.426   6.258   0.001  0.00  0.00    -0.720 N 
ATOM      7  H   LIG    1        0.195   7.200  -0.008  0.00  0.00    +0.430 HD
ATOM      8  O   LIG    1       -1.694   5.656  -0.147  0.00  0.00    -0.560 OA
ATOM      9  C   LIG    1        1.832   5.829   0.094  0.00  0.00    +0.330 C 
ENDROOT
BRANCH   1  10
ATOM     10  C   LIG    1        3.410   3.826   0.200  0.00  0.00    +0.540 C 
ATOM     11  O   LIG    1        3.607   2.629   0.101  0.00  0.00    -0.520 OA
BRANCH  10  12
ATOM     12  O   LIG    1        4.448   4.666   0.397  0.00  0.00    -0.350 OA
BRANCH  12  14
ATOM     13  C   LIG    1        6.789   5.182   0.704  0.00  0.00    +0.070 C 
ATOM     14  C   LIG    1        5.749   4.082   0.480  0.00  0.00    +0.200 C 
ENDBRANCH  12  14
ENDBRANCH  10  12
ENDBRANCH   1  10
BRANCH   2  15
ATOM     15  C   LIG    1        1.246   2.019   0.029  0.00  0.00    +0.330 C 
BRANCH  15  16
ATOM     16  O   LIG    1       -0.019   1.354   0.043  0.00  0.00    -0.310 OA
BRANCH  16  17
ATOM     17  C   LIG    1       -0.002  -0.003   0.049  0.00  0.00    +0.140 A 
ATOM     18  C   LIG    1        1.211  -0.680   0.036  0.00  0.00    -0.030 A 
ATOM     19  C   LIG    1        1.235  -2.057   0.048  0.00  0.00    +0.080 A 
ATOM     20  C   LIG    1        0.035  -2.778   0.062  0.00  0.00    -0.170 A 
ATOM     21  C   LIG    1       -1.187  -2.094   0.069  0.00  0.00    +0.030 A 
ATOM     22  C   LIG    1       -1.202  -0.714   0.063  0.00  0.00    +0.090 A 
BRANCH  20  23
ATOM     23  C   LIG    1        0.058  -4.246   0.069  0.00  0.00    +0.400 C 
ATOM     24  O   LIG    1       -0.983  -4.869   0.081  0.00  0.00    -0.460 OA
ATOM     25  C   LIG    1        1.375  -4.979   0.060  0.00  0.00    +0.090 C 
ENDBRANCH  20  23
BRANCH  22  26
ATOM     26  O   LIG    1       -2.387  -0.047   0.070  0.00  0.00    -0.310 OA
ATOM     27  C   LIG    1       -3.577  -0.839   0.085  0.00  0.00    +0.250 C 
ENDBRANCH  22  26
ENDBRANCH  16  17
ENDBRANCH  15  16
ENDBRANCH   2  15
TORSDOF 8
