REMARK  Name = ZINC650000002BwM.0
REMARK                            x       y       z     vdW  Elec       q    Type
REMARK                         _______ _______ _______ _____ _____    ______ ____
ROOT
ATOM      1  C   LIG    1       -0.013   1.086   0.008  0.00  0.00    +0.150 C 
ATOM      2  C   LIG    1       -0.939   1.683   1.080  0.00  0.00    +0.130 C 
ATOM      3  C   LIG    1       -2.063   1.621   0.029  0.00  0.00    +0.180 C 
ATOM      4  C   LIG    1       -0.959   1.695  -1.040  0.00  0.00    +0.120 C 
ENDROOT
BRANCH   1   5
ATOM      5  N   LIG    1        1.333   1.675  -0.002  0.00  0.00    -0.630 N 
ATOM      6  H   LIG    1        1.765   1.511  -0.899  0.00  0.00    +0.450 HD
ATOM      7  H   LIG    1        1.892   1.249   0.723  0.00  0.00    +0.450 HD
ATOM      8  H   LIG    1        1.267   2.668   0.164  0.00  0.00    +0.440 HD
ENDBRANCH   1   5
BRANCH   3   9
ATOM      9  N   LIG    1       -2.799   0.350   0.027  0.00  0.00    -0.630 N 
ATOM     10  H   LIG    1       -3.240   0.218  -0.871  0.00  0.00    +0.450 HD
ATOM     11  H   LIG    1       -3.504   0.369   0.748  0.00  0.00    +0.450 HD
ATOM     12  H   LIG    1       -2.159  -0.410   0.202  0.00  0.00    +0.430 HD
ENDBRANCH   3   9
TORSDOF 2
