REMARK  Name = ZINCtV000002FZOZ.0
REMARK                            x       y       z     vdW  Elec       q    Type
REMARK                         _______ _______ _______ _____ _____    ______ ____
ROOT
ATOM      1  C   LIG    1        5.313   0.887   0.367  0.00  0.00    -0.130 A 
ATOM      2  C   LIG    1        5.259   2.056   1.131  0.00  0.00    +0.110 A 
ATOM      3  C   LIG    1        4.122   2.832   1.120  0.00  0.00    +0.020 A 
ATOM      4  C   LIG    1        3.028   2.453   0.350  0.00  0.00    +0.120 A 
ATOM      5  C   LIG    1        3.075   1.288  -0.407  0.00  0.00    +0.020 A 
ATOM      6  C   LIG    1        4.212   0.510  -0.405  0.00  0.00    +0.060 A 
ENDROOT
BRANCH   1   9
ATOM      7  N   LIG    1        6.581  -1.075  -0.360  0.00  0.00    -0.670 N 
ATOM      8  H   LIG    1        5.851  -1.295  -0.959  0.00  0.00    +0.410 HD
ATOM      9  C   LIG    1        6.531   0.053   0.377  0.00  0.00    +0.560 C 
ATOM     10  O   LIG    1        7.489   0.383   1.049  0.00  0.00    -0.510 OA
BRANCH   7  15
ATOM     11  C   LIG    1       11.064  -4.527   0.039  0.00  0.00    +0.090 C 
ATOM     12  C   LIG    1        9.873  -3.610  -0.068  0.00  0.00    -0.080 A 
ATOM     13  C   LIG    1        8.602  -4.099   0.173  0.00  0.00    +0.010 A 
ATOM     14  C   LIG    1        7.508  -3.261   0.077  0.00  0.00    -0.080 A 
ATOM     15  C   LIG    1        7.686  -1.926  -0.262  0.00  0.00    +0.120 A 
ATOM     16  C   LIG    1        8.963  -1.439  -0.509  0.00  0.00    -0.060 A 
ATOM     17  C   LIG    1        9.161   0.007  -0.883  0.00  0.00    +0.100 C 
ATOM     18  C   LIG    1        6.124  -3.794   0.340  0.00  0.00    +0.080 C 
ATOM     19  C   LIG    1       10.053  -2.281  -0.406  0.00  0.00    +0.010 A 
ENDBRANCH   7  15
ENDBRANCH   1   9
BRANCH   4  20
ATOM     20  O   LIG    1        1.908   3.220   0.342  0.00  0.00    -0.240 OA
BRANCH  20  21
ATOM     21  C   LIG    1        1.922   4.360  -0.392  0.00  0.00    +0.350 A 
ATOM     22  C   LIG    1        0.765   5.119  -0.507  0.00  0.00    -0.020 A 
ATOM     23  C   LIG    1        0.793   6.281  -1.259  0.00  0.00    +0.170 A 
ATOM     24  C   LIG    1        1.985   6.647  -1.868  0.00  0.00    -0.270 A 
ATOM     25  C   LIG    1        3.096   5.841  -1.716  0.00  0.00    +0.380 A 
ATOM     26  N   LIG    1        3.038   4.739  -0.992  0.00  0.00    -0.520 NA
BRANCH  24  27
ATOM     27  C   LIG    1        2.064   7.907  -2.691  0.00  0.00    +0.520 C 
ATOM     28  F   LIG    1        1.754   9.009  -1.887  0.00  0.00    -0.170 F 
ATOM     29  F   LIG    1        1.154   7.830  -3.750  0.00  0.00    -0.170 F 
ATOM     30  F   LIG    1        3.360   8.050  -3.199  0.00  0.00    -0.170 F 
ENDBRANCH  24  27
ENDBRANCH  20  21
ENDBRANCH   4  20
TORSDOF 5
