REMARK  Name = ZINCpk00000eaPBN.0
REMARK                            x       y       z     vdW  Elec       q    Type
REMARK                         _______ _______ _______ _____ _____    ______ ____
ROOT
ATOM      1  N   LIG    1       -1.679  -0.311   3.550  0.00  0.00    -0.710 N 
ATOM      2  H   LIG    1       -1.889  -0.793   2.735  0.00  0.00    +0.410 HD
ATOM      3  C   LIG    1       -1.055  -0.942   4.564  0.00  0.00    +0.560 C 
ATOM      4  O   LIG    1       -0.792  -0.338   5.586  0.00  0.00    -0.530 OA
ENDROOT
BRANCH   3   5
ATOM      5  C   LIG    1       -0.689  -2.366   4.434  0.00  0.00    -0.140 A 
ATOM      6  C   LIG    1       -0.995  -3.064   3.262  0.00  0.00    +0.080 A 
ATOM      7  C   LIG    1       -0.647  -4.391   3.142  0.00  0.00    +0.000 A 
ATOM      8  C   LIG    1       -0.003  -5.040   4.189  0.00  0.00    +0.180 A 
ATOM      9  C   LIG    1        0.298  -4.351   5.359  0.00  0.00    +0.030 A 
ATOM     10  C   LIG    1       -0.041  -3.022   5.484  0.00  0.00    +0.120 A 
BRANCH   8  11
ATOM     11  N   LIG    1        0.344  -6.389   4.066  0.00  0.00    -0.340 N 
ATOM     12  C   LIG    1        0.116  -7.189   3.005  0.00  0.00    +0.500 A 
ATOM     13  N   LIG    1        0.593  -8.375   3.281  0.00  0.00    -0.530 NA
ATOM     14  C   LIG    1        1.122  -8.376   4.505  0.00  0.00    +0.440 A 
ATOM     15  N   LIG    1        0.993  -7.183   5.025  0.00  0.00    -0.310 NA
ENDBRANCH   8  11
ENDBRANCH   3   5
BRANCH   1  16
ATOM     16  C   LIG    1       -2.043   1.102   3.679  0.00  0.00    +0.270 C 
BRANCH  16  17
ATOM     17  C   LIG    1       -2.844   1.538   2.451  0.00  0.00    +0.130 C 
ATOM     18  C   LIG    1       -4.180   0.793   2.423  0.00  0.00    +0.040 C 
BRANCH  17  22
ATOM     19  C   LIG    1        1.423   2.066   0.053  0.00  0.00    +0.050 C 
ATOM     20  C   LIG    1        0.044   1.403   0.036  0.00  0.00    +0.160 C 
ATOM     21  C   LIG    1       -0.731   1.803   1.294  0.00  0.00    +0.160 C 
ATOM     22  N   LIG    1       -2.083   1.224   1.234  0.00  0.00    -0.530 NA
ATOM     23  C   LIG    1       -2.795   1.686   0.033  0.00  0.00    +0.160 C 
ATOM     24  C   LIG    1       -1.998   1.288  -1.211  0.00  0.00    +0.160 C 
ATOM     25  C   LIG    1       -2.692   1.835  -2.460  0.00  0.00    +0.050 C 
ATOM     26  O   LIG    1       -0.678   1.832  -1.121  0.00  0.00    -0.380 OA
ENDBRANCH  17  22
ENDBRANCH  16  17
ENDBRANCH   1  16
TORSDOF 5
