REMARK  Name = ZINCvU0000000JLT.0
REMARK                            x       y       z     vdW  Elec       q    Type
REMARK                         _______ _______ _______ _____ _____    ______ ____
ROOT
ATOM      1  C   LIG    1        3.550   0.756  -0.028  0.00  0.00    +0.600 C 
ATOM      2  N   LIG    1        4.236   0.767   1.132  0.00  0.00    -0.710 N 
ATOM      3  H   LIG    1        3.759   0.750   1.977  0.00  0.00    +0.410 HD
ATOM      4  O   LIG    1        4.148   0.777  -1.087  0.00  0.00    -0.520 OA
ENDROOT
BRANCH   1  11
ATOM      5  C   LIG    1        1.631   3.283   0.004  0.00  0.00    +0.190 C 
ATOM      6  C   LIG    1        1.211   1.836   0.000  0.00  0.00    +0.130 A 
ATOM      7  N   LIG    1       -0.017   1.395   0.010  0.00  0.00    -0.260 NA
ATOM      8  N   LIG    1        0.002  -0.004   0.002  0.00  0.00    -0.300 N 
ATOM      9  C   LIG    1        1.284  -0.413  -0.012  0.00  0.00    +0.160 A 
ATOM     10 CL   LIG    1        1.839  -2.058  -0.027  0.00  0.00    +0.030 Cl
ATOM     11  C   LIG    1        2.078   0.720  -0.014  0.00  0.00    -0.250 A 
BRANCH   8  12
ATOM     12  C   LIG    1       -1.124  -0.839   0.009  0.00  0.00    +0.120 A 
ATOM     13  C   LIG    1       -1.105  -2.038  -0.692  0.00  0.00    +0.050 A 
ATOM     14  C   LIG    1       -2.214  -2.861  -0.680  0.00  0.00    +0.020 A 
ATOM     15  C   LIG    1       -3.348  -2.487   0.021  0.00  0.00    +0.110 A 
ATOM     16  C   LIG    1       -3.371  -1.289   0.716  0.00  0.00    +0.020 A 
ATOM     17  F   LIG    1       -4.434  -3.291   0.028  0.00  0.00    -0.130 F 
ATOM     18  C   LIG    1       -2.262  -0.466   0.711  0.00  0.00    +0.080 A 
ENDBRANCH   8  12
ENDBRANCH   1  11
BRANCH   2  19
ATOM     19  C   LIG    1        5.700   0.803   1.118  0.00  0.00    +0.260 C 
ATOM     20  C   LIG    1        6.244  -0.620   0.980  0.00  0.00    +0.040 C 
BRANCH  19  21
ATOM     21  C   LIG    1        6.208   1.418   2.424  0.00  0.00    +0.220 C 
BRANCH  21  22
ATOM     22  O   LIG    1        5.861   0.567   3.518  0.00  0.00    -0.300 OA
BRANCH  22  23
ATOM     23  C   LIG    1        6.242   0.971   4.758  0.00  0.00    +0.180 A 
ATOM     24  C   LIG    1        6.934   2.162   4.919  0.00  0.00    -0.070 A 
ATOM     25  C   LIG    1        7.319   2.571   6.182  0.00  0.00    +0.090 A 
ATOM     26  C   LIG    1        7.016   1.793   7.284  0.00  0.00    -0.020 A 
ATOM     27  C   LIG    1        6.326   0.605   7.126  0.00  0.00    +0.120 A 
ATOM     28  C   LIG    1        5.933   0.195   5.867  0.00  0.00    -0.220 A 
BRANCH  28  29
ATOM     29  C   LIG    1        5.175  -1.096   5.696  0.00  0.00    +0.520 C 
ATOM     30  F   LIG    1        5.905  -1.960   4.873  0.00  0.00    -0.170 F 
ATOM     31  F   LIG    1        3.932  -0.833   5.112  0.00  0.00    -0.170 F 
ATOM     32  F   LIG    1        4.985  -1.694   6.947  0.00  0.00    -0.180 F 
ENDBRANCH  28  29
ENDBRANCH  22  23
ENDBRANCH  21  22
ENDBRANCH  19  21
ENDBRANCH   2  19
TORSDOF 7
