REMARK  Name = ZINCvU0000000BZh.0
REMARK                            x       y       z     vdW  Elec       q    Type
REMARK                         _______ _______ _______ _____ _____    ______ ____
ROOT
ATOM      1  N   LIG    1       -0.202   0.772   4.071  0.00  0.00    -0.450 N 
ATOM      2  C   LIG    1        0.106   0.881   2.744  0.00  0.00    +0.160 A 
ATOM      3  N   LIG    1        1.204   0.187   2.542  0.00  0.00    -0.290 NA
ATOM      4  N   LIG    1        1.605  -0.337   3.645  0.00  0.00    -0.240 NA
ATOM      5  C   LIG    1        0.783  -0.018   4.617  0.00  0.00    +0.220 A 
ENDROOT
BRANCH   5   6
ATOM      6  C   LIG    1        0.894  -0.429   6.033  0.00  0.00    -0.010 A 
ATOM      7  C   LIG    1        0.782   0.520   7.049  0.00  0.00    +0.040 A 
ATOM      8  C   LIG    1        0.882   0.129   8.369  0.00  0.00    +0.030 A 
ATOM      9  C   LIG    1        1.105  -1.199   8.685  0.00  0.00    +0.050 A 
ATOM     10  C   LIG    1        1.223  -2.145   7.683  0.00  0.00    +0.030 A 
ATOM     11  C   LIG    1        1.119  -1.769   6.359  0.00  0.00    +0.000 A 
ATOM     12 CL   LIG    1        1.268  -2.957   5.102  0.00  0.00    -0.040 Cl
ENDBRANCH   5   6
BRANCH   1  13
ATOM     13  C   LIG    1       -1.344   1.371   4.766  0.00  0.00    +0.310 C 
BRANCH  13  14
ATOM     14  C   LIG    1       -2.510   0.380   4.781  0.00  0.00    +0.030 C 
BRANCH  14  15
ATOM     15  C   LIG    1       -3.702   1.005   5.507  0.00  0.00    +0.180 C 
BRANCH  15  17
ATOM     16  C   LIG    1       -5.961   0.568   6.179  0.00  0.00    +0.200 C 
ATOM     17  O   LIG    1       -4.790   0.079   5.521  0.00  0.00    -0.390 OA
ENDBRANCH  15  17
ENDBRANCH  14  15
ENDBRANCH  13  14
ENDBRANCH   1  13
BRANCH   2  18
ATOM     18  S   LIG    1       -0.803   1.777   1.530  0.00  0.00    +0.050 S 
BRANCH  18  19
ATOM     19  C   LIG    1        0.212   1.445   0.069  0.00  0.00    +0.000 C 
ATOM     20  C   LIG    1        1.591   2.083   0.250  0.00  0.00    +0.090 C 
BRANCH  19  21
ATOM     21  C   LIG    1       -0.455   2.029  -1.150  0.00  0.00    +0.420 C 
ATOM     22  O   LIG    1       -1.221   2.961  -1.033  0.00  0.00    -0.430 OA
BRANCH  21  23
ATOM     23  C   LIG    1       -0.176   1.467  -2.481  0.00  0.00    -0.170 A 
ATOM     24  C   LIG    1        0.712   0.396  -2.622  0.00  0.00    +0.070 A 
ATOM     25  C   LIG    1        0.963  -0.125  -3.872  0.00  0.00    +0.010 A 
ATOM     26  C   LIG    1        0.349   0.412  -4.993  0.00  0.00    -0.060 A 
ATOM     27  C   LIG    1        0.465   0.023  -6.452  0.00  0.00    +0.080 C 
ATOM     28  C   LIG    1       -0.085   1.232  -7.238  0.00  0.00    +0.030 C 
ATOM     29  C   LIG    1       -1.057   1.873  -6.225  0.00  0.00    +0.080 C 
ATOM     30  C   LIG    1       -0.528   1.476  -4.863  0.00  0.00    -0.110 A 
ATOM     31  C   LIG    1       -0.792   2.005  -3.615  0.00  0.00    +0.090 A 
ENDBRANCH  21  23
ENDBRANCH  19  21
ENDBRANCH  18  19
ENDBRANCH   2  18
TORSDOF 9
