REMARK  Name = ZINCpk00000KfKO6.0
REMARK                            x       y       z     vdW  Elec       q    Type
REMARK                         _______ _______ _______ _____ _____    ______ ____
ROOT
ATOM      1  N   LIG    1       -0.471   1.677  -1.324  0.00  0.00    -0.540 NA
ATOM      2  C   LIG    1       -1.811   1.074  -1.314  0.00  0.00    +0.180 C 
ATOM      3  C   LIG    1       -2.627   1.631  -2.482  0.00  0.00    +0.190 C 
ATOM      4  N   LIG    1       -1.932   1.341  -3.744  0.00  0.00    -0.530 NA
ATOM      5  C   LIG    1       -0.592   1.945  -3.755  0.00  0.00    +0.190 C 
ATOM      6  C   LIG    1        0.224   1.387  -2.586  0.00  0.00    +0.180 C 
ENDROOT
BRANCH   1   7
ATOM      7  C   LIG    1        0.319   1.224  -0.172  0.00  0.00    +0.210 C 
BRANCH   7   8
ATOM      8  C   LIG    1       -0.307   1.759   1.118  0.00  0.00    +0.130 C 
BRANCH   8   9
ATOM      9  C   LIG    1       -0.215   3.228   1.136  0.00  0.00    +0.210 C 
ATOM     10  N   LIG    1       -0.144   4.362   1.150  0.00  0.00    -0.420 NA
ENDBRANCH   8   9
BRANCH   8  11
ATOM     11  C   LIG    1        0.441   1.186   2.323  0.00  0.00    +0.080 C 
BRANCH  11  12
ATOM     12  C   LIG    1       -0.261   1.620   3.612  0.00  0.00    +0.200 C 
BRANCH  12  14
ATOM     13  N   LIG    1        1.014   0.644   5.667  0.00  0.00    -0.430 NA
ATOM     14  C   LIG    1        0.459   1.069   4.772  0.00  0.00    +0.200 C 
ENDBRANCH  12  14
ENDBRANCH  11  12
ENDBRANCH   8  11
ENDBRANCH   7   8
ENDBRANCH   1   7
BRANCH   4  15
ATOM     15  C   LIG    1       -2.723   1.794  -4.897  0.00  0.00    +0.200 C 
BRANCH  15  16
ATOM     16  C   LIG    1       -3.208   3.225  -4.652  0.00  0.00    +0.180 C 
BRANCH  16  17
ATOM     17  O   LIG    1       -2.086   4.109  -4.620  0.00  0.00    -0.540 OA
ATOM     18  H   LIG    1       -1.569   4.119  -5.437  0.00  0.00    +0.370 HD
ENDBRANCH  16  17
BRANCH  16  19
ATOM     19  C   LIG    1       -4.154   3.642  -5.779  0.00  0.00    +0.170 C 
BRANCH  19  20
ATOM     20  O   LIG    1       -4.698   4.932  -5.491  0.00  0.00    -0.300 OA
BRANCH  20  21
ATOM     21  C   LIG    1       -5.564   5.453  -6.400  0.00  0.00    +0.130 A 
ATOM     22  C   LIG    1       -5.880   4.740  -7.547  0.00  0.00    -0.080 A 
ATOM     23  C   LIG    1       -6.765   5.269  -8.466  0.00  0.00    +0.040 A 
ATOM     24  C   LIG    1       -7.328   6.513  -8.248  0.00  0.00    -0.040 A 
ATOM     25  C   LIG    1       -7.011   7.228  -7.108  0.00  0.00    +0.050 A 
ATOM     26  C   LIG    1       -6.130   6.701  -6.184  0.00  0.00    -0.020 A 
ENDBRANCH  20  21
ENDBRANCH  19  20
ENDBRANCH  16  19
ENDBRANCH  15  16
ENDBRANCH   4  15
TORSDOF 12
