REMARK  Name = ZINCrH000004mW9K.0
REMARK                            x       y       z     vdW  Elec       q    Type
REMARK                         _______ _______ _______ _____ _____    ______ ____
ROOT
ATOM      1  N   LIG    1       -0.646   2.232   1.470  0.00  0.00    -1.110 NA
ATOM      2  H   LIG    1       -1.494   2.703   1.505  0.00  0.00    +0.420 HD
ENDROOT
BRANCH   1   3
ATOM      3  S   LIG    1       -0.022   1.758   0.012  0.00  0.00    +2.690 S 
ATOM      4  O   LIG    1       -0.965   2.152  -0.976  0.00  0.00    -0.960 OA
ATOM      5  O   LIG    1        1.336   2.178   0.001  0.00  0.00    -0.940 OA
BRANCH   3   9
ATOM      6  C   LIG    1        0.046  -2.773  -0.012  0.00  0.00    +0.160 A 
ATOM      7  C   LIG    1        1.138  -2.064   0.460  0.00  0.00    -0.050 A 
ATOM      8  C   LIG    1        1.116  -0.681   0.461  0.00  0.00    +0.140 A 
ATOM      9  C   LIG    1        0.002  -0.004   0.002  0.00  0.00    -0.680 A 
ATOM     10  C   LIG    1       -1.092  -0.706  -0.470  0.00  0.00    +0.070 A 
ATOM     11  C   LIG    1       -1.074  -2.091  -0.479  0.00  0.00    +0.080 A 
BRANCH   6  13
ATOM     12  C   LIG    1        1.250  -4.765   0.475  0.00  0.00    +0.250 C 
ATOM     13  O   LIG    1        0.068  -4.133  -0.019  0.00  0.00    -0.300 OA
ENDBRANCH   6  13
BRANCH  11  14
ATOM     14  O   LIG    1       -2.149  -2.784  -0.942  0.00  0.00    -0.300 OA
ATOM     15  C   LIG    1       -3.264  -2.018  -1.405  0.00  0.00    +0.250 C 
ENDBRANCH  11  14
ENDBRANCH   3   9
ENDBRANCH   1   3
BRANCH   1  16
ATOM     16  C   LIG    1        0.081   1.939   2.708  0.00  0.00    +0.340 C 
BRANCH  16  17
ATOM     17  C   LIG    1       -0.903   1.646   3.812  0.00  0.00    -0.090 A 
ATOM     18  C   LIG    1       -2.061   2.393   3.922  0.00  0.00    +0.010 A 
ATOM     19  C   LIG    1       -2.966   2.122   4.931  0.00  0.00    +0.000 A 
ATOM     20  C   LIG    1       -2.707   1.109   5.836  0.00  0.00    +0.000 A 
ATOM     21  C   LIG    1       -1.547   0.366   5.729  0.00  0.00    +0.010 A 
ATOM     22  C   LIG    1       -0.645   0.634   4.717  0.00  0.00    +0.010 A 
ENDBRANCH  16  17
BRANCH  16  23
ATOM     23  C   LIG    1        0.923   3.129   3.089  0.00  0.00    -0.100 A 
ATOM     24  C   LIG    1        0.424   4.409   2.930  0.00  0.00    +0.020 A 
ATOM     25  C   LIG    1        1.195   5.500   3.283  0.00  0.00    +0.000 A 
ATOM     26  C   LIG    1        2.469   5.313   3.787  0.00  0.00    +0.000 A 
ATOM     27  C   LIG    1        2.970   4.034   3.942  0.00  0.00    +0.000 A 
ATOM     28  C   LIG    1        2.197   2.942   3.593  0.00  0.00    +0.020 A 
ENDBRANCH  16  23
ENDBRANCH   1  16
TORSDOF 7
