REMARK  Name = ZINCrH000004nMHi.0
REMARK                            x       y       z     vdW  Elec       q    Type
REMARK                         _______ _______ _______ _____ _____    ______ ____
ROOT
ATOM      1  C   LIG    1        0.836  -4.972  -0.592  0.00  0.00    +0.520 C 
ATOM      2  N   LIG    1        2.033  -4.381  -0.403  0.00  0.00    -0.670 N 
ATOM      3  H   LIG    1        2.836  -4.921  -0.342  0.00  0.00    +0.410 HD
ATOM      4  O   LIG    1       -0.177  -4.306  -0.588  0.00  0.00    -0.520 OA
ENDROOT
BRANCH   1   8
ATOM      5  N   LIG    1        0.099  -8.778  -2.294  0.00  0.00    -1.000 NA
ATOM      6  C   LIG    1       -0.783  -8.391  -1.185  0.00  0.00    +0.300 C 
ATOM      7  C   LIG    1       -0.704  -6.873  -0.998  0.00  0.00    +0.050 C 
ATOM      8  C   LIG    1        0.758  -6.461  -0.810  0.00  0.00    +0.010 C 
ATOM      9  C   LIG    1        1.559  -6.837  -2.059  0.00  0.00    +0.030 C 
ATOM     10  C   LIG    1        1.506  -8.355  -2.258  0.00  0.00    +0.300 C 
BRANCH   5  12
ATOM     11  C   LIG    1       -1.061  -8.441  -4.758  0.00  0.00    -0.280 C 
ATOM     12  S   LIG    1       -0.480  -9.674  -3.561  0.00  0.00    +2.610 S 
ATOM     13  O   LIG    1       -1.577 -10.390  -3.011  0.00  0.00    -0.950 OA
ATOM     14  O   LIG    1        0.663 -10.354  -4.060  0.00  0.00    -0.950 OA
ENDBRANCH   5  12
ENDBRANCH   1   8
BRANCH   2  15
ATOM     15  C   LIG    1        2.116  -2.987  -0.293  0.00  0.00    +0.110 A 
ATOM     16  C   LIG    1        1.098  -2.278   0.331  0.00  0.00    +0.070 A 
ATOM     17  C   LIG    1        1.180  -0.903   0.438  0.00  0.00    +0.020 A 
ATOM     18  C   LIG    1        2.279  -0.232  -0.078  0.00  0.00    +0.110 A 
ATOM     19  C   LIG    1        3.294  -0.939  -0.706  0.00  0.00    -0.040 A 
ATOM     20  C   LIG    1        3.215  -2.314  -0.809  0.00  0.00    +0.030 A 
BRANCH  18  21
ATOM     21  O   LIG    1        2.359   1.121   0.028  0.00  0.00    -0.250 OA
BRANCH  21  22
ATOM     22  C   LIG    1        3.398   1.749  -0.584  0.00  0.00    +0.090 A 
ATOM     23  C   LIG    1        4.510   2.131   0.152  0.00  0.00    +0.030 A 
ATOM     24  C   LIG    1        5.562   2.774  -0.471  0.00  0.00    +0.040 A 
ATOM     25  C   LIG    1        5.514   3.025  -1.830  0.00  0.00    +0.040 A 
ATOM     26  C   LIG    1        4.407   2.645  -2.567  0.00  0.00    +0.040 A 
ATOM     27  C   LIG    1        3.349   2.007  -1.947  0.00  0.00    -0.050 A 
ATOM     28 CL   LIG    1        1.960   1.530  -2.873  0.00  0.00    -0.050 Cl
ENDBRANCH  21  22
ENDBRANCH  18  21
ENDBRANCH   2  15
TORSDOF 5
