REMARK  Name = ZINCrg00001Jdv7V.0
REMARK                            x       y       z     vdW  Elec       q    Type
REMARK                         _______ _______ _______ _____ _____    ______ ____
ROOT
ATOM      1  N   LIG    1        1.391  -0.413  -0.279  0.00  0.00    -1.010 NA
ATOM      2  C   LIG    1        2.478   0.298   0.412  0.00  0.00    +0.330 C 
ATOM      3  C   LIG    1        2.478   1.768  -0.024  0.00  0.00    +0.290 C 
ATOM      4  N   LIG    1        1.109   2.277   0.004  0.00  0.00    -0.470 N 
ATOM      5  C   LIG    1       -0.018   1.506   0.010  0.00  0.00    +0.160 A 
ATOM      6  N   LIG    1       -1.040   2.304   0.030  0.00  0.00    -0.270 NA
ATOM      7  N   LIG    1       -0.639   3.529   0.035  0.00  0.00    -0.290 NA
ATOM      8  C   LIG    1        0.678   3.567   0.024  0.00  0.00    +0.280 A 
ATOM      9  C   LIG    1        0.002  -0.004   0.002  0.00  0.00    +0.450 C 
ENDROOT
BRANCH   8  10
ATOM     10  C   LIG    1        1.526   4.780   0.032  0.00  0.00    -0.190 A 
ATOM     11  C   LIG    1        1.113   6.056  -0.233  0.00  0.00    +0.310 A 
ATOM     12  N   LIG    1        2.187   6.863  -0.120  0.00  0.00    -0.360 N 
ATOM     13  N   LIG    1        3.293   6.076   0.223  0.00  0.00    -0.280 NA
ATOM     14  C   LIG    1        2.195   8.314  -0.321  0.00  0.00    +0.370 C 
ATOM     15  C   LIG    1        2.905   4.832   0.321  0.00  0.00    +0.250 A 
ENDBRANCH   8  10
BRANCH   1  16
ATOM     16  S   LIG    1        1.719  -1.639  -1.343  0.00  0.00    +2.610 S 
ATOM     17  O   LIG    1        0.551  -2.447  -1.317  0.00  0.00    -0.930 OA
ATOM     18  O   LIG    1        2.973  -2.150  -0.913  0.00  0.00    -0.930 OA
BRANCH  16  19
ATOM     19  C   LIG    1        1.885  -0.812  -2.949  0.00  0.00    -0.290 C 
BRANCH  19  24
ATOM     20  C   LIG    1        3.776  -3.103  -5.284  0.00  0.00    +0.130 A 
ATOM     21  C   LIG    1        2.737  -3.716  -5.968  0.00  0.00    -0.060 A 
ATOM     22  C   LIG    1        1.428  -3.388  -5.672  0.00  0.00    +0.070 A 
ATOM     23  C   LIG    1        1.154  -2.449  -4.695  0.00  0.00    -0.010 A 
ATOM     24  C   LIG    1        2.188  -1.836  -4.012  0.00  0.00    -0.060 A 
ATOM     25  C   LIG    1        3.498  -2.157  -4.308  0.00  0.00    +0.000 A 
BRANCH  20  27
ATOM     26  C   LIG    1        5.276  -4.401  -6.594  0.00  0.00    +0.240 C 
ATOM     27  O   LIG    1        5.065  -3.424  -5.574  0.00  0.00    -0.310 OA
ENDBRANCH  20  27
ENDBRANCH  19  24
ENDBRANCH  16  19
ENDBRANCH   1  16
TORSDOF 5
