REMARK  Name = ZINCrD0000075eTM.0
REMARK                            x       y       z     vdW  Elec       q    Type
REMARK                         _______ _______ _______ _____ _____    ______ ____
ROOT
ATOM      1  C   LIG    1       -5.954   0.407   3.593  0.00  0.00    +0.350 C 
ATOM      2  N   LIG    1       -5.014   1.485   3.276  0.00  0.00    -0.360 N 
ATOM      3  N   LIG    1       -3.640   1.338   3.028  0.00  0.00    -0.300 NA
ATOM      4  C   LIG    1       -3.135   2.526   2.796  0.00  0.00    +0.240 A 
ATOM      5  C   LIG    1       -4.166   3.453   2.890  0.00  0.00    -0.270 A 
ATOM      6  C   LIG    1       -4.094   4.960   2.720  0.00  0.00    +0.360 C 
ATOM      7  N   LIG    1       -4.950   5.303   1.571  0.00  0.00    -0.620 N 
ATOM      8  C   LIG    1       -4.384   5.572   0.378  0.00  0.00    +0.710 C 
ATOM      9  N   LIG    1       -3.054   5.425   0.214  0.00  0.00    -0.660 N 
ATOM     10  H   LIG    1       -2.517   5.047   0.927  0.00  0.00    +0.400 HD
ATOM     11  O   LIG    1       -5.073   5.949  -0.551  0.00  0.00    -0.570 OA
ATOM     12  C   LIG    1       -6.394   5.360   1.707  0.00  0.00    +0.300 C 
ATOM     13  C   LIG    1       -7.056   4.010   1.937  0.00  0.00    +0.030 C 
ATOM     14  C   LIG    1       -6.670   3.444   3.312  0.00  0.00    +0.110 C 
ATOM     15  C   LIG    1       -5.312   2.791   3.172  0.00  0.00    +0.100 A 
ENDROOT
BRANCH   9  16
ATOM     16  C   LIG    1       -2.449   5.817  -0.985  0.00  0.00    +0.200 A 
ATOM     17  C   LIG    1       -3.044   6.789  -1.779  0.00  0.00    +0.010 A 
ATOM     18  C   LIG    1       -2.447   7.170  -2.965  0.00  0.00    +0.020 A 
ATOM     19  C   LIG    1       -1.256   6.589  -3.359  0.00  0.00    -0.030 A 
ATOM     20  C   LIG    1       -0.658   5.626  -2.568  0.00  0.00    +0.030 A 
ATOM     21  C   LIG    1       -1.249   5.240  -1.381  0.00  0.00    -0.120 A 
BRANCH  21  22
ATOM     22  C   LIG    1       -0.597   4.190  -0.519  0.00  0.00    +0.150 C 
BRANCH  22  23
ATOM     23  C   LIG    1       -1.190   2.841  -0.836  0.00  0.00    +0.130 A 
ATOM     24  C   LIG    1       -0.359   1.799  -1.200  0.00  0.00    -0.040 A 
ATOM     25  C   LIG    1       -0.915   0.562  -1.489  0.00  0.00    +0.060 A 
ATOM     26  C   LIG    1       -2.291   0.419  -1.400  0.00  0.00    -0.050 A 
ATOM     27  C   LIG    1       -3.059   1.509  -1.034  0.00  0.00    +0.250 A 
ATOM     28  N   LIG    1       -2.495   2.669  -0.761  0.00  0.00    -0.460 NA
ENDBRANCH  22  23
ENDBRANCH  21  22
ENDBRANCH   9  16
TORSDOF 3
