REMARK  Name = ZINCwl0000000j6s.0
REMARK                            x       y       z     vdW  Elec       q    Type
REMARK                         _______ _______ _______ _____ _____    ______ ____
ROOT
ATOM      1  N   LIG    1       -0.415   1.001  -4.887  0.00  0.00    -0.510 N 
ATOM      2  H   LIG    1        0.337   0.396  -4.984  0.00  0.00    +0.440 HD
ATOM      3  C   LIG    1       -0.808   1.395  -3.659  0.00  0.00    +0.520 C 
ATOM      4  O   LIG    1       -1.748   2.152  -3.538  0.00  0.00    -0.530 OA
ENDROOT
BRANCH   1   6
ATOM      5  C   LIG    1       -0.698   1.070  -7.249  0.00  0.00    +0.530 C 
ATOM      6  N   LIG    1       -1.092   1.465  -6.022  0.00  0.00    -0.530 N 
ATOM      7  H   LIG    1       -1.843   2.070  -5.925  0.00  0.00    +0.440 HD
ATOM      8  O   LIG    1        0.242   0.313  -7.371  0.00  0.00    -0.520 OA
BRANCH   5   9
ATOM      9  C   LIG    1       -1.427   1.569  -8.471  0.00  0.00    +0.110 C 
BRANCH   9  10
ATOM     10  C   LIG    1       -0.785   0.974  -9.726  0.00  0.00    -0.300 C 
BRANCH  10  11
ATOM     11  S   LIG    1       -1.661   1.575 -11.196  0.00  0.00    +2.500 S 
ATOM     12  O   LIG    1       -1.435   2.966 -11.378  0.00  0.00    -0.930 OA
ATOM     13  O   LIG    1       -2.974   1.033 -11.250  0.00  0.00    -0.930 OA
BRANCH  11  18
ATOM     14  C   LIG    1        1.209  -1.019 -15.826  0.00  0.00    +0.090 C 
ATOM     15  C   LIG    1        0.492  -0.371 -14.669  0.00  0.00    -0.020 A 
ATOM     16  C   LIG    1       -0.581  -1.009 -14.077  0.00  0.00    +0.000 A 
ATOM     17  C   LIG    1       -1.239  -0.415 -13.016  0.00  0.00    +0.120 A 
ATOM     18  C   LIG    1       -0.823   0.817 -12.548  0.00  0.00    -0.670 A 
ATOM     19  C   LIG    1        0.247   1.458 -13.144  0.00  0.00    +0.120 A 
ATOM     20  C   LIG    1        0.908   0.861 -14.201  0.00  0.00    +0.000 A 
ENDBRANCH  11  18
ENDBRANCH  10  11
ENDBRANCH   9  10
ENDBRANCH   5   9
ENDBRANCH   1   6
BRANCH   3  21
ATOM     21  C   LIG    1       -0.080   0.896  -2.438  0.00  0.00    +0.080 C 
BRANCH  21  22
ATOM     22  C   LIG    1       -0.722   1.491  -1.183  0.00  0.00    +0.290 C 
BRANCH  22  23
ATOM     23  N   LIG    1       -0.012   1.005   0.008  0.00  0.00    -0.390 N 
ATOM     24  C   LIG    1       -0.701   1.478   1.215  0.00  0.00    +0.280 C 
ATOM     25  C   LIG    1        0.028   0.957   2.456  0.00  0.00    +0.230 C 
ATOM     26  N   LIG    1        1.417   1.437   2.443  0.00  0.00    -0.490 N 
ATOM     27  C   LIG    1        2.112   0.992   1.228  0.00  0.00    +0.220 C 
ATOM     28  C   LIG    1        1.367   1.513  -0.003  0.00  0.00    +0.270 C 
ATOM     29  H   LIG    1        0.002  -0.004   0.002  0.00  0.00    +0.420 HD
BRANCH  26  30
ATOM     30  C   LIG    1        2.099   1.025   3.590  0.00  0.00    +0.080 A 
ATOM     31  C   LIG    1        3.271   0.288   3.475  0.00  0.00    -0.030 A 
ATOM     32  C   LIG    1        3.946  -0.114   4.611  0.00  0.00    +0.040 A 
ATOM     33  C   LIG    1        3.451   0.207   5.862  0.00  0.00    +0.000 A 
ATOM     34  C   LIG    1        2.282   0.936   5.980  0.00  0.00    +0.040 A 
ATOM     35  C   LIG    1        1.605   1.346   4.848  0.00  0.00    +0.000 A 
ENDBRANCH  26  30
ENDBRANCH  22  23
ENDBRANCH  21  22
ENDBRANCH   3  21
TORSDOF 9
