REMARK  Name = ZINCbu0000001gO7.0
REMARK                            x       y       z     vdW  Elec       q    Type
REMARK                         _______ _______ _______ _____ _____    ______ ____
ROOT
ATOM      1  C   LIG    1       -0.733   1.888   1.268  0.00  0.00    +0.210 C 
ENDROOT
BRANCH   1   2
ATOM      2  C   LIG    1       -0.753   3.395   1.277  0.00  0.00    -0.120 A 
ATOM      3  C   LIG    1       -1.891   4.073   0.882  0.00  0.00    +0.010 A 
ATOM      4  C   LIG    1       -1.910   5.455   0.890  0.00  0.00    +0.070 A 
ATOM      5  C   LIG    1       -0.791   6.160   1.293  0.00  0.00    +0.070 A 
ATOM      6  C   LIG    1        0.347   5.483   1.687  0.00  0.00    +0.080 A 
ATOM      7  C   LIG    1        0.365   4.100   1.685  0.00  0.00    -0.070 A 
ATOM      8 BR   LIG    1        1.919   3.173   2.232  0.00  0.00    -0.020 Br
ENDBRANCH   1   2
BRANCH   1   9
ATOM      9  N   LIG    1       -2.111   1.380   1.279  0.00  0.00    -0.630 N 
ATOM     10  H   LIG    1       -2.599   1.714   0.462  0.00  0.00    +0.430 HD
ATOM     11  H   LIG    1       -2.583   1.705   2.109  0.00  0.00    +0.440 HD
ATOM     12  H   LIG    1       -2.098   0.371   1.273  0.00  0.00    +0.450 HD
ENDBRANCH   1   9
BRANCH   1  13
ATOM     13  C   LIG    1       -0.017   1.395   0.010  0.00  0.00    +0.280 C 
ATOM     14  F   LIG    1        0.002  -0.004   0.002  0.00  0.00    -0.190 F 
ENDBRANCH   1  13
TORSDOF 3
