REMARK  Name = ZINCAx0000000atM.0
REMARK                            x       y       z     vdW  Elec       q    Type
REMARK                         _______ _______ _______ _____ _____    ______ ____
ROOT
ATOM      1  N   LIG    1       -2.271   0.054  -2.974  0.00  0.00    -0.560 N 
ATOM      2  C   LIG    1       -2.307  -0.111  -4.301  0.00  0.00    +0.710 C 
ATOM      3  N   LIG    1       -3.109  -1.125  -4.672  0.00  0.00    -0.710 N 
ATOM      4  H   LIG    1       -3.284  -1.425  -5.578  0.00  0.00    +0.440 HD
ATOM      5  C   LIG    1       -3.675  -1.688  -3.434  0.00  0.00    +0.170 C 
ATOM      6  C   LIG    1       -3.264  -3.152  -3.272  0.00  0.00    +0.110 C 
ATOM      7  O   LIG    1       -1.681   0.577  -5.085  0.00  0.00    -0.530 OA
ATOM      8  C   LIG    1       -3.059  -0.837  -2.341  0.00  0.00    +0.540 C 
ATOM      9  O   LIG    1       -3.238  -0.937  -1.146  0.00  0.00    -0.450 OA
ENDROOT
BRANCH   5  10
ATOM     10  C   LIG    1       -5.176  -1.553  -3.428  0.00  0.00    -0.090 A 
ATOM     11  C   LIG    1       -5.841  -1.301  -2.243  0.00  0.00    +0.050 A 
ATOM     12  C   LIG    1       -7.218  -1.170  -2.231  0.00  0.00    +0.030 A 
ATOM     13  C   LIG    1       -7.931  -1.305  -3.410  0.00  0.00    +0.080 A 
ATOM     14  O   LIG    1       -9.290  -1.184  -3.412  0.00  0.00    -0.320 OA
ATOM     15  C   LIG    1       -9.814  -0.035  -4.080  0.00  0.00    +0.230 C 
ATOM     16  C   LIG    1       -9.947  -0.292  -5.572  0.00  0.00    -0.010 C 
ATOM     17  C   LIG    1       -8.601  -0.509  -6.245  0.00  0.00    +0.230 C 
ATOM     18  O   LIG    1       -7.975  -1.697  -5.756  0.00  0.00    -0.320 OA
ATOM     19  C   LIG    1       -7.264  -1.565  -4.599  0.00  0.00    +0.070 A 
ATOM     20  C   LIG    1       -5.885  -1.689  -4.609  0.00  0.00    +0.050 A 
ENDBRANCH   5  10
BRANCH   1  21
ATOM     21  C   LIG    1       -1.478   1.081  -2.293  0.00  0.00    +0.370 C 
BRANCH  21  24
ATOM     22  N   LIG    1        0.796   1.303  -1.345  0.00  0.00    -0.670 N 
ATOM     23  H   LIG    1        0.596   2.234  -1.161  0.00  0.00    +0.420 HD
ATOM     24  C   LIG    1       -0.113   0.529  -1.971  0.00  0.00    +0.500 C 
ATOM     25  O   LIG    1        0.169  -0.609  -2.279  0.00  0.00    -0.500 OA
BRANCH  22  29
ATOM     26  C   LIG    1        4.464  -0.305  -0.199  0.00  0.00    -0.150 A 
ATOM     27  C   LIG    1        4.382   1.027  -0.612  0.00  0.00    +0.070 A 
ATOM     28  C   LIG    1        3.168   1.556  -0.990  0.00  0.00    -0.020 A 
ATOM     29  C   LIG    1        2.024   0.764  -0.961  0.00  0.00    +0.170 A 
ATOM     30  C   LIG    1        2.101  -0.561  -0.545  0.00  0.00    +0.010 A 
ATOM     31  C   LIG    1        3.313  -1.097  -0.171  0.00  0.00    +0.100 A 
BRANCH  26  33
ATOM     32  N   LIG    1        6.885  -0.539  -0.463  0.00  0.00    -0.610 N 
ATOM     33  C   LIG    1        5.764  -0.875   0.206  0.00  0.00    +0.560 C 
ATOM     34  O   LIG    1        5.823  -1.647   1.144  0.00  0.00    -0.530 OA
BRANCH  32  36
ATOM     35  C   LIG    1        7.269   1.745  -1.248  0.00  0.00    +0.020 C 
ATOM     36  C   LIG    1        6.804   0.339  -1.633  0.00  0.00    +0.260 C 
ENDBRANCH  32  36
BRANCH  32  37
ATOM     37  C   LIG    1        8.183  -1.052  -0.019  0.00  0.00    +0.270 C 
ATOM     38  C   LIG    1        8.471  -2.383  -0.718  0.00  0.00    +0.020 C 
ENDBRANCH  32  37
ENDBRANCH  26  33
ENDBRANCH  22  29
ENDBRANCH  21  24
ENDBRANCH   1  21
TORSDOF 7
