REMARK  Name = ZINCrH00000No4us.0
REMARK                            x       y       z     vdW  Elec       q    Type
REMARK                         _______ _______ _______ _____ _____    ______ ____
ROOT
ATOM      1  C   LIG    1       -0.578   1.827   2.542  0.00  0.00    +0.170 A 
ATOM      2  C   LIG    1       -0.120   1.881   3.844  0.00  0.00    -0.010 A 
ATOM      3  C   LIG    1        0.919   1.037   4.252  0.00  0.00    +0.010 A 
ATOM      4  C   LIG    1        1.485   0.139   3.340  0.00  0.00    -0.020 A 
ATOM      5  C   LIG    1        1.018   0.088   2.045  0.00  0.00    +0.070 A 
ATOM      6  C   LIG    1       -0.012   0.926   1.641  0.00  0.00    +0.090 A 
ENDROOT
BRANCH   4   7
ATOM      7  N   LIG    1        2.585  -0.755   3.767  0.00  0.00    +0.020 N 
ATOM      8  O   LIG    1        2.568  -1.254   4.878  0.00  0.00    -0.140 OA
ATOM      9  O   LIG    1        3.506  -0.992   3.007  0.00  0.00    -0.140 OA
ENDBRANCH   4   7
BRANCH   1  11
ATOM     10  C   LIG    1       -2.116   3.548   3.117  0.00  0.00    +0.250 C 
ATOM     11  O   LIG    1       -1.583   2.650   2.141  0.00  0.00    -0.290 OA
ENDBRANCH   1  11
BRANCH   3  12
ATOM     12  C   LIG    1        1.415   1.093   5.635  0.00  0.00    +0.110 C 
ATOM     13  C   LIG    1        0.731   1.787   6.569  0.00  0.00    -0.050 C 
BRANCH  13  14
ATOM     14  C   LIG    1        1.224   1.843   7.945  0.00  0.00    +0.550 C 
ATOM     15  N   LIG    1        0.485   2.439   8.902  0.00  0.00    -0.600 N 
ATOM     16  C   LIG    1       -0.761   3.138   8.559  0.00  0.00    +0.260 C 
ATOM     17  C   LIG    1       -1.893   2.576   9.432  0.00  0.00    -0.030 C 
ATOM     18  C   LIG    1       -1.495   2.688  10.906  0.00  0.00    +0.030 C 
ATOM     19  C   LIG    1       -0.234   1.859  11.160  0.00  0.00    -0.020 C 
ATOM     20  C   LIG    1       -0.497   0.399  10.784  0.00  0.00    +0.030 C 
ATOM     21  C   LIG    1       -3.172   3.378   9.187  0.00  0.00    +0.030 C 
ATOM     22  C   LIG    1        0.914   2.408  10.307  0.00  0.00    +0.280 C 
ATOM     23  O   LIG    1        2.302   1.352   8.226  0.00  0.00    -0.530 OA
ENDBRANCH  13  14
ENDBRANCH   3  12
BRANCH   6  24
ATOM     24  O   LIG    1       -0.467   0.872   0.362  0.00  0.00    -0.300 OA
BRANCH  24  25
ATOM     25  C   LIG    1        0.160  -0.070  -0.510  0.00  0.00    +0.600 C 
ATOM     26  F   LIG    1        1.524   0.223  -0.609  0.00  0.00    -0.190 F 
ATOM     27  F   LIG    1       -0.004  -1.361   0.002  0.00  0.00    -0.190 F 
ENDBRANCH  24  25
ENDBRANCH   6  24
TORSDOF 6
