REMARK  Name = ZINCpe000000Zj80.0
REMARK                            x       y       z     vdW  Elec       q    Type
REMARK                         _______ _______ _______ _____ _____    ______ ____
ROOT
ATOM      1  C   LIG    1       -0.747   3.124  -1.240  0.00  0.00    -0.020 C 
ATOM      2  C   LIG    1       -0.754   1.593  -1.231  0.00  0.00    +0.060 C 
ATOM      3  C   LIG    1       -0.013   1.086   0.008  0.00  0.00    +0.010 C 
ATOM      4  C   LIG    1       -0.731   1.581   1.267  0.00  0.00    +0.270 C 
ATOM      5  N   LIG    1       -0.858   3.043   1.196  0.00  0.00    -0.610 N 
ATOM      6  C   LIG    1       -0.416   3.820   2.205  0.00  0.00    +0.520 C 
ATOM      7  O   LIG    1       -0.525   5.026   2.134  0.00  0.00    -0.530 OA
ATOM      8  C   LIG    1       -1.474   3.642   0.004  0.00  0.00    +0.290 C 
ENDROOT
BRANCH   1  10
ATOM      9  O   LIG    1       -1.910   2.832  -3.273  0.00  0.00    -0.520 OA
ATOM     10  C   LIG    1       -1.449   3.622  -2.477  0.00  0.00    +0.530 C 
ATOM     11  N   LIG    1       -1.565   4.947  -2.699  0.00  0.00    -0.720 N 
ATOM     12  H   LIG    1       -1.196   5.579  -2.062  0.00  0.00    +0.400 HD
BRANCH  11  13
ATOM     13  C   LIG    1       -2.247   5.431  -3.901  0.00  0.00    +0.260 C 
ATOM     14  C   LIG    1       -1.724   6.826  -4.255  0.00  0.00    +0.040 C 
ATOM     15  C   LIG    1       -2.633   7.424  -5.335  0.00  0.00    +0.040 C 
ATOM     16  C   LIG    1       -4.010   7.689  -4.726  0.00  0.00    +0.260 C 
ATOM     17  N   LIG    1       -4.502   6.500  -4.042  0.00  0.00    -0.720 N 
ATOM     18  H   LIG    1       -5.454   6.439  -3.863  0.00  0.00    +0.400 HD
ATOM     19  C   LIG    1       -3.726   5.490  -3.645  0.00  0.00    +0.500 C 
ATOM     20  O   LIG    1       -4.242   4.570  -3.047  0.00  0.00    -0.530 OA
ENDBRANCH  11  13
ENDBRANCH   1  10
BRANCH   6  21
ATOM     21  C   LIG    1        0.215   3.190   3.420  0.00  0.00    +0.100 C 
BRANCH  21  22
ATOM     22  C   LIG    1        0.620   4.269   4.391  0.00  0.00    -0.070 A 
ATOM     23  C   LIG    1        1.882   4.827   4.318  0.00  0.00    +0.010 A 
ATOM     24  C   LIG    1        2.252   5.819   5.206  0.00  0.00    +0.000 A 
ATOM     25  C   LIG    1        1.363   6.247   6.174  0.00  0.00    +0.000 A 
ATOM     26  C   LIG    1        0.102   5.686   6.251  0.00  0.00    +0.000 A 
ATOM     27  C   LIG    1       -0.270   4.697   5.360  0.00  0.00    +0.010 A 
ENDBRANCH  21  22
ENDBRANCH   6  21
TORSDOF 4
