REMARK  Name = ZINCrH00000asj1b.0
REMARK                            x       y       z     vdW  Elec       q    Type
REMARK                         _______ _______ _______ _____ _____    ______ ____
ROOT
ATOM      1  N   LIG    1       -3.669   2.198   0.031  0.00  0.00    -0.350 N 
ATOM      2  N   LIG    1       -4.768   1.324   0.032  0.00  0.00    -0.290 NA
ATOM      3  C   LIG    1       -4.289   0.107   0.024  0.00  0.00    +0.230 A 
ATOM      4  N   LIG    1       -2.960   0.160   0.013  0.00  0.00    -0.510 NA
ATOM      5  C   LIG    1       -2.564   1.417   0.022  0.00  0.00    +0.350 A 
ENDROOT
BRANCH   5   6
ATOM      6  C   LIG    1       -1.162   1.890   0.017  0.00  0.00    +0.140 A 
ATOM      7  N   LIG    1       -0.768   3.146   0.025  0.00  0.00    -0.250 NA
ATOM      8  N   LIG    1        0.637   3.165   0.009  0.00  0.00    -0.380 N 
ATOM      9  C   LIG    1        1.769   4.105  -0.004  0.00  0.00    +0.320 C 
ATOM     10  C   LIG    1        3.001   3.276   0.418  0.00  0.00    +0.210 C 
ATOM     11  C   LIG    1        2.584   1.851  -0.009  0.00  0.00    +0.140 C 
ATOM     12  F   LIG    1        3.201   3.346   1.801  0.00  0.00    -0.190 F 
ATOM     13  C   LIG    1        1.070   1.887   0.002  0.00  0.00    +0.060 A 
ATOM     14  C   LIG    1       -0.013   1.076   0.008  0.00  0.00    -0.040 A 
ENDBRANCH   5   6
BRANCH   1  16
ATOM     15  C   LIG    1       -4.440   4.146   1.293  0.00  0.00    +0.050 C 
ATOM     16  C   LIG    1       -3.710   3.662   0.038  0.00  0.00    +0.310 C 
BRANCH  16  17
ATOM     17  C   LIG    1       -4.451   4.158  -1.205  0.00  0.00    -0.050 C 
ATOM     18  C   LIG    1       -3.632   4.886  -2.273  0.00  0.00    +0.020 C 
ATOM     19  C   LIG    1       -4.600   5.670  -1.383  0.00  0.00    +0.040 C 
ENDBRANCH  16  17
ENDBRANCH   1  16
BRANCH   3  20
ATOM     20  C   LIG    1       -5.112  -1.155   0.021  0.00  0.00    +0.220 C 
BRANCH  20  21
ATOM     21  C   LIG    1       -5.393  -1.569  -1.400  0.00  0.00    -0.050 A 
ATOM     22  C   LIG    1       -4.519  -2.413  -2.060  0.00  0.00    +0.020 A 
ATOM     23  C   LIG    1       -4.776  -2.794  -3.364  0.00  0.00    +0.040 A 
ATOM     24  C   LIG    1       -5.907  -2.331  -4.010  0.00  0.00    -0.020 A 
ATOM     25  C   LIG    1       -6.783  -1.486  -3.350  0.00  0.00    +0.100 A 
ATOM     26  F   LIG    1       -7.889  -1.034  -3.980  0.00  0.00    -0.140 F 
ATOM     27  C   LIG    1       -6.528  -1.110  -2.042  0.00  0.00    +0.000 A 
ENDBRANCH  20  21
ENDBRANCH   3  20
TORSDOF 5
