REMARK  Name = ZINCvU0000000Bnh.0
REMARK                            x       y       z     vdW  Elec       q    Type
REMARK                         _______ _______ _______ _____ _____    ______ ____
ROOT
ATOM      1  C   LIG    1       -3.808  -3.874   0.346  0.00  0.00    -0.010 A 
ATOM      2  C   LIG    1       -3.218  -5.120   0.263  0.00  0.00    +0.210 A 
ATOM      3  C   LIG    1       -1.839  -5.234   0.253  0.00  0.00    -0.660 A 
ATOM      4  C   LIG    1       -1.047  -4.103   0.325  0.00  0.00    +0.180 A 
ATOM      5  C   LIG    1       -1.631  -2.854   0.402  0.00  0.00    +0.090 A 
ATOM      6  C   LIG    1       -3.015  -2.735   0.418  0.00  0.00    -0.030 A 
ENDROOT
BRANCH   1   8
ATOM      7  O   LIG    1       -5.977  -4.751   0.294  0.00  0.00    -0.160 OA
ATOM      8  N   LIG    1       -5.283  -3.752   0.357  0.00  0.00    +0.030 N 
ATOM      9  O   LIG    1       -5.803  -2.653   0.430  0.00  0.00    -0.120 OA
ENDBRANCH   1   8
BRANCH   3  10
ATOM     10  S   LIG    1       -1.091  -6.826   0.147  0.00  0.00    +2.690 S 
ATOM     11  O   LIG    1       -2.086  -7.764   0.532  0.00  0.00    -0.930 OA
ATOM     12  O   LIG    1        0.170  -6.720   0.795  0.00  0.00    -0.930 OA
BRANCH  10  13
ATOM     13  N   LIG    1       -0.772  -7.112  -1.453  0.00  0.00    -1.060 N 
ATOM     14  H   LIG    1       -1.214  -7.843  -1.912  0.00  0.00    +0.430 HD
BRANCH  13  15
ATOM     15  C   LIG    1        0.135  -6.301  -2.141  0.00  0.00    +0.120 A 
ATOM     16  C   LIG    1       -0.327  -5.361  -3.053  0.00  0.00    +0.040 A 
ATOM     17  C   LIG    1        0.571  -4.557  -3.727  0.00  0.00    +0.040 A 
ATOM     18  C   LIG    1        1.929  -4.695  -3.503  0.00  0.00    -0.020 A 
ATOM     19  C   LIG    1        2.392  -5.635  -2.599  0.00  0.00    +0.040 A 
ATOM     20 CL   LIG    1        3.055  -3.687  -4.358  0.00  0.00    -0.060 Cl
ATOM     21  C   LIG    1        1.499  -6.438  -1.918  0.00  0.00    +0.060 A 
ENDBRANCH  13  15
ENDBRANCH  10  13
ENDBRANCH   3  10
BRANCH   6  22
ATOM     22  S   LIG    1       -3.764  -1.143   0.522  0.00  0.00    +0.100 S 
BRANCH  22  23
ATOM     23  C   LIG    1       -4.264  -1.051   2.209  0.00  0.00    +0.150 A 
ATOM     24  N   LIG    1       -4.106  -2.103   2.986  0.00  0.00    -0.490 NA
ATOM     25  C   LIG    1       -4.471  -2.077   4.273  0.00  0.00    +0.150 A 
ATOM     26  C   LIG    1       -4.301  -3.203   5.096  0.00  0.00    +0.030 A 
ATOM     27  C   LIG    1       -4.682  -3.149   6.403  0.00  0.00    +0.040 A 
ATOM     28  C   LIG    1       -5.242  -1.993   6.940  0.00  0.00    +0.010 A 
ATOM     29  C   LIG    1       -5.422  -0.882   6.172  0.00  0.00    +0.040 A 
ATOM     30  C   LIG    1       -5.040  -0.902   4.822  0.00  0.00    -0.110 A 
ATOM     31  C   LIG    1       -5.217   0.227   3.994  0.00  0.00    +0.120 A 
ATOM     32  C   LIG    1       -4.822   0.142   2.694  0.00  0.00    +0.000 A 
ENDBRANCH  22  23
ENDBRANCH   6  22
TORSDOF 6
