REMARK  Name = ZINCkj000005jYPO.0
REMARK                            x       y       z     vdW  Elec       q    Type
REMARK                         _______ _______ _______ _____ _____    ______ ____
ROOT
ATOM      1  C   LIG    1       -3.372   2.870   0.046  0.00  0.00    +0.140 A 
ATOM      2  C   LIG    1       -2.598   2.156   0.895  0.00  0.00    -0.010 A 
ATOM      3  C   LIG    1       -1.202   2.351   0.900  0.00  0.00    +0.560 A 
ATOM      4  N   LIG    1       -0.649   3.257   0.068  0.00  0.00    -0.350 N 
ATOM      5  N   LIG    1        0.677   3.660  -0.129  0.00  0.00    -0.230 NA
ATOM      6  C   LIG    1        0.715   4.577  -1.056  0.00  0.00    +0.370 A 
ATOM      7  C   LIG    1       -0.602   4.812  -1.508  0.00  0.00    -0.170 A 
ATOM      8  C   LIG    1       -1.439   3.971  -0.779  0.00  0.00    +0.350 A 
ATOM      9  O   LIG    1       -0.499   1.713   1.663  0.00  0.00    -0.440 OA
ATOM     10  N   LIG    1       -2.799   3.779  -0.793  0.00  0.00    -0.600 N 
ATOM     11  H   LIG    1       -3.353   4.291  -1.403  0.00  0.00    +0.440 HD
ENDROOT
BRANCH   7  12
ATOM     12  C   LIG    1       -1.002   5.743  -2.520  0.00  0.00    +0.270 C 
ATOM     13  N   LIG    1       -1.319   6.482  -3.322  0.00  0.00    -0.390 NA
ENDBRANCH   7  12
BRANCH   1  14
ATOM     14  C   LIG    1       -4.864   2.662   0.028  0.00  0.00    +0.370 C 
BRANCH  14  15
ATOM     15  N   LIG    1       -5.265   2.096  -1.268  0.00  0.00    -0.390 N 
ATOM     16  C   LIG    1       -4.689   0.753  -1.414  0.00  0.00    +0.320 C 
ATOM     17  H   LIG    1       -4.928   2.689  -2.012  0.00  0.00    +0.420 HD
BRANCH  15  18
ATOM     18  C   LIG    1       -6.730   2.011  -1.333  0.00  0.00    +0.310 C 
BRANCH  18  22
ATOM     19  C   LIG    1       -9.592   1.499  -1.786  0.00  0.00    +0.070 C 
ATOM     20  C   LIG    1       -8.639   1.274  -2.962  0.00  0.00    +0.000 C 
ATOM     21  C   LIG    1       -7.976   2.506  -3.580  0.00  0.00    +0.060 C 
ATOM     22  C   LIG    1       -7.151   1.540  -2.726  0.00  0.00    -0.090 C 
ENDBRANCH  18  22
ENDBRANCH  15  18
ENDBRANCH  14  15
ENDBRANCH   1  14
TORSDOF 5
