REMARK  Name = ZINCkj000005jYPO.1
REMARK                            x       y       z     vdW  Elec       q    Type
REMARK                         _______ _______ _______ _____ _____    ______ ____
ROOT
ATOM      1  C   LIG    1       -1.026   4.047   5.095  0.00  0.00    +0.140 A 
ATOM      2  C   LIG    1       -0.027   4.210   5.993  0.00  0.00    -0.010 A 
ATOM      3  C   LIG    1       -0.293   4.064   7.370  0.00  0.00    +0.560 A 
ATOM      4  N   LIG    1       -1.542   3.765   7.782  0.00  0.00    -0.350 N 
ATOM      5  N   LIG    1       -2.083   3.566   9.057  0.00  0.00    -0.230 NA
ATOM      6  C   LIG    1       -3.354   3.294   8.948  0.00  0.00    +0.370 A 
ATOM      7  C   LIG    1       -3.698   3.305   7.578  0.00  0.00    -0.170 A 
ATOM      8  C   LIG    1       -2.538   3.604   6.869  0.00  0.00    +0.350 A 
ATOM      9  O   LIG    1        0.601   4.210   8.184  0.00  0.00    -0.440 OA
ATOM     10  N   LIG    1       -2.284   3.750   5.527  0.00  0.00    -0.600 N 
ATOM     11  H   LIG    1       -3.002   3.638   4.885  0.00  0.00    +0.440 HD
ENDROOT
BRANCH   7  12
ATOM     12  C   LIG    1       -4.995   3.056   7.023  0.00  0.00    +0.270 C 
ATOM     13  N   LIG    1       -6.023   2.858   6.583  0.00  0.00    -0.390 NA
ENDBRANCH   7  12
BRANCH   1  14
ATOM     14  C   LIG    1       -0.750   4.200   3.622  0.00  0.00    +0.370 C 
BRANCH  14  15
ATOM     15  N   LIG    1       -0.953   2.911   2.949  0.00  0.00    -0.390 N 
ATOM     16  C   LIG    1        0.041   1.944   3.432  0.00  0.00    +0.320 C 
ATOM     17  H   LIG    1       -1.881   2.569   3.151  0.00  0.00    +0.420 HD
BRANCH  15  18
ATOM     18  C   LIG    1       -0.801   3.086   1.498  0.00  0.00    +0.300 C 
BRANCH  18  22
ATOM     19  C   LIG    1       -0.830   3.102  -1.445  0.00  0.00    +0.070 C 
ATOM     20  C   LIG    1       -1.150   1.781  -0.743  0.00  0.00    +0.000 C 
ATOM     21  C   LIG    1       -0.013   1.086   0.008  0.00  0.00    +0.060 C 
ATOM     22  C   LIG    1       -1.136   1.773   0.788  0.00  0.00    -0.080 C 
ENDBRANCH  18  22
ENDBRANCH  15  18
ENDBRANCH  14  15
ENDBRANCH   1  14
TORSDOF 5
