REMARK  Name = ZINCE70000000q2V.0
REMARK                            x       y       z     vdW  Elec       q    Type
REMARK                         _______ _______ _______ _____ _____    ______ ____
ROOT
ATOM      1  C   LIG    1        2.198  -5.401  -2.708  0.00  0.00    +0.140 C 
ATOM      2  C   LIG    1        3.013  -6.699  -2.469  0.00  0.00    +0.040 C 
ATOM      3  C   LIG    1        3.858  -6.324  -1.234  0.00  0.00    -0.090 C 
ATOM      4  C   LIG    1        3.108  -5.147  -0.592  0.00  0.00    +0.200 C 
ATOM      5  C   LIG    1        3.927  -7.502  -0.270  0.00  0.00    +0.050 C 
ATOM      6  C   LIG    1        4.729  -7.098   0.972  0.00  0.00    +0.270 C 
ATOM      7  N   LIG    1        6.032  -6.572   0.542  0.00  0.00    -0.600 N 
ATOM      8  C   LIG    1        6.066  -5.476  -0.437  0.00  0.00    +0.280 C 
ATOM      9  C   LIG    1        7.176  -7.086   1.035  0.00  0.00    +0.560 C 
ATOM     10  O   LIG    1        8.247  -6.715   0.597  0.00  0.00    -0.520 OA
ATOM     11  C   LIG    1        5.254  -5.892  -1.669  0.00  0.00    +0.040 C 
ATOM     12  O   LIG    1        1.921  -4.925  -1.373  0.00  0.00    -0.370 OA
ENDROOT
BRANCH   9  13
ATOM     13  C   LIG    1        7.128  -8.103   2.110  0.00  0.00    -0.110 A 
ATOM     14  C   LIG    1        6.177  -7.995   3.126  0.00  0.00    +0.080 A 
ATOM     15  C   LIG    1        6.123  -8.939   4.135  0.00  0.00    +0.090 A 
ATOM     16  C   LIG    1        7.018  -9.999   4.138  0.00  0.00    -0.080 A 
ATOM     17  C   LIG    1        6.993 -11.030   5.202  0.00  0.00    +0.560 A 
ATOM     18  N   LIG    1        7.881 -12.042   5.166  0.00  0.00    -0.500 N 
ATOM     19  H   LIG    1        7.858 -12.713   5.866  0.00  0.00    +0.430 HD
ATOM     20  N   LIG    1        8.834 -12.153   4.152  0.00  0.00    -0.510 N 
ATOM     21  H   LIG    1        9.453 -12.900   4.169  0.00  0.00    +0.430 HD
ATOM     22  C   LIG    1        8.919 -11.256   3.151  0.00  0.00    +0.570 A 
ATOM     23  O   LIG    1        9.761 -11.385   2.284  0.00  0.00    -0.500 OA
ATOM     24  O   LIG    1        6.177 -10.963   6.100  0.00  0.00    -0.500 OA
ATOM     25  C   LIG    1        7.981 -10.113   3.115  0.00  0.00    -0.110 A 
ATOM     26  C   LIG    1        8.029  -9.168   2.101  0.00  0.00    +0.150 A 
ENDBRANCH   9  13
BRANCH   1  27
ATOM     27  C   LIG    1        0.897  -5.710  -3.451  0.00  0.00    +0.300 C 
BRANCH  27  29
ATOM     28  C   LIG    1       -1.030  -4.496  -4.317  0.00  0.00    +0.560 C 
ATOM     29  N   LIG    1        0.155  -4.467  -3.676  0.00  0.00    -0.720 N 
ATOM     30  H   LIG    1        0.517  -3.623  -3.363  0.00  0.00    +0.400 HD
ATOM     31  O   LIG    1       -1.483  -5.553  -4.709  0.00  0.00    -0.530 OA
BRANCH  28  39
ATOM     32  O   LIG    1       -5.657   1.308  -5.993  0.00  0.00    -0.530 OA
ATOM     33  C   LIG    1       -5.061   0.263  -5.818  0.00  0.00    +0.710 A 
ATOM     34  N   LIG    1       -5.612  -0.873  -6.274  0.00  0.00    -0.660 N 
ATOM     35  H   LIG    1       -6.467  -0.838  -6.730  0.00  0.00    +0.440 HD
ATOM     36  C   LIG    1       -4.996  -2.064  -6.110  0.00  0.00    +0.570 A 
ATOM     37  C   LIG    1       -3.696  -2.088  -5.414  0.00  0.00    -0.210 A 
ATOM     38  C   LIG    1       -3.001  -3.273  -5.212  0.00  0.00    +0.210 A 
ATOM     39  C   LIG    1       -1.777  -3.243  -4.543  0.00  0.00    -0.170 A 
ATOM     40  C   LIG    1       -1.254  -2.025  -4.092  0.00  0.00    +0.130 A 
ATOM     41  C   LIG    1       -1.941  -0.850  -4.297  0.00  0.00    -0.020 A 
ATOM     42  C   LIG    1       -3.163  -0.867  -4.957  0.00  0.00    +0.230 A 
ATOM     43  O   LIG    1       -5.501  -3.090  -6.525  0.00  0.00    -0.480 OA
ATOM     44  N   LIG    1       -3.880   0.296  -5.178  0.00  0.00    -0.640 N 
ATOM     45  H   LIG    1       -3.525   1.144  -4.869  0.00  0.00    +0.440 HD
ENDBRANCH  28  39
ENDBRANCH  27  29
ENDBRANCH   1  27
TORSDOF 4
