REMARK  Name = ZINCpe000000Vzom.1
REMARK                            x       y       z     vdW  Elec       q    Type
REMARK                         _______ _______ _______ _____ _____    ______ ____
ROOT
ATOM      1  N   LIG    1       -3.281   1.181   1.604  0.00  0.00    -1.030 N 
ATOM      2  H   LIG    1       -3.500   0.305   1.958  0.00  0.00    +0.440 HD
ENDROOT
BRANCH   1   3
ATOM      3  C   LIG    1       -3.352   2.301   2.425  0.00  0.00    +0.380 A 
ATOM      4  C   LIG    1       -3.074   3.584   2.064  0.00  0.00    -0.140 A 
ATOM      5  C   LIG    1       -3.271   4.397   3.184  0.00  0.00    +0.120 A 
ATOM      6  N   LIG    1       -3.651   3.643   4.183  0.00  0.00    -0.250 NA
ATOM      7  C   LIG    1       -3.078   5.891   3.233  0.00  0.00    +0.170 C 
ATOM      8  N   LIG    1       -3.717   2.317   3.737  0.00  0.00    -0.330 N 
BRANCH   8   9
ATOM      9  C   LIG    1       -4.088   1.211   4.501  0.00  0.00    +0.560 A 
ATOM     10  N   LIG    1       -4.105   0.014   3.937  0.00  0.00    -0.560 NA
ATOM     11  C   LIG    1       -4.446  -1.057   4.633  0.00  0.00    +0.380 A 
ATOM     12  C   LIG    1       -4.800  -0.912   5.966  0.00  0.00    -0.090 A 
ATOM     13  C   LIG    1       -4.776   0.357   6.523  0.00  0.00    +0.360 A 
ATOM     14  N   LIG    1       -4.419   1.385   5.770  0.00  0.00    -0.510 NA
ENDBRANCH   8   9
ENDBRANCH   1   3
BRANCH   1  15
ATOM     15  S   LIG    1       -2.821   1.343   0.021  0.00  0.00    +2.720 S 
ATOM     16  O   LIG    1       -2.815   0.033  -0.531  0.00  0.00    -0.930 OA
ATOM     17  O   LIG    1       -3.595   2.408  -0.515  0.00  0.00    -0.930 OA
BRANCH  15  20
ATOM     18  C   LIG    1        1.085   1.912   0.002  0.00  0.00    -0.050 A 
ATOM     19  C   LIG    1       -0.013   1.076   0.008  0.00  0.00    +0.170 A 
ATOM     20  C   LIG    1       -1.147   1.892   0.017  0.00  0.00    -0.760 A 
ATOM     21  C   LIG    1       -0.731   3.182   0.025  0.00  0.00    +0.370 A 
ATOM     22  N   LIG    1        0.618   3.207   0.013  0.00  0.00    -0.510 N 
ATOM     23  H   LIG    1        1.168   4.006   0.012  0.00  0.00    +0.430 HD
BRANCH  18  24
ATOM     24  C   LIG    1        2.490   1.497  -0.014  0.00  0.00    +0.540 C 
ATOM     25  O   LIG    1        2.775   0.315  -0.023  0.00  0.00    -0.490 OA
BRANCH  24  27
ATOM     26  C   LIG    1        4.837   1.944  -0.034  0.00  0.00    +0.290 C 
ATOM     27  O   LIG    1        3.468   2.427  -0.018  0.00  0.00    -0.360 OA
ENDBRANCH  24  27
ENDBRANCH  18  24
ENDBRANCH  15  20
ENDBRANCH   1  15
TORSDOF 6
