REMARK  Name = ZINCpe00001587cc.0
REMARK                            x       y       z     vdW  Elec       q    Type
REMARK                         _______ _______ _______ _____ _____    ______ ____
ROOT
ATOM      1  C   LIG    1       -1.079   2.759  -5.521  0.00  0.00    -0.030 A 
ATOM      2  C   LIG    1       -0.110   2.410  -4.642  0.00  0.00    +0.140 A 
ATOM      3  N   LIG    1       -0.724   1.697  -3.669  0.00  0.00    -0.290 N 
ATOM      4  N   LIG    1       -1.977   1.622  -3.953  0.00  0.00    -0.050 NA
ATOM      5  N   LIG    1       -2.222   2.250  -5.049  0.00  0.00    -0.250 NA
ENDROOT
BRANCH   1   8
ATOM      6  C   LIG    1       -1.720   5.218  -7.827  0.00  0.00    +0.010 C 
ATOM      7  C   LIG    1       -2.212   3.786  -7.559  0.00  0.00    +0.120 C 
ATOM      8  C   LIG    1       -0.903   3.564  -6.783  0.00  0.00    +0.190 C 
ATOM      9  C   LIG    1       -0.879   5.084  -6.546  0.00  0.00    +0.070 C 
BRANCH   6  10
ATOM     10  C   LIG    1       -0.893   5.347  -9.080  0.00  0.00    +0.470 C 
ATOM     11  O   LIG    1       -0.677   4.375  -9.765  0.00  0.00    -0.480 OA
BRANCH  10  13
ATOM     12  C   LIG    1        0.390   6.593 -10.656  0.00  0.00    +0.260 C 
ATOM     13  O   LIG    1       -0.397   6.542  -9.437  0.00  0.00    -0.360 OA
ENDBRANCH  10  13
ENDBRANCH   6  10
BRANCH   8  14
ATOM     14  O   LIG    1        0.172   3.093  -7.597  0.00  0.00    -0.510 OA
ATOM     15  H   LIG    1        1.004   2.974  -7.119  0.00  0.00    +0.370 HD
ENDBRANCH   8  14
ENDBRANCH   1   8
BRANCH   3  16
ATOM     16  C   LIG    1       -0.072   1.107  -2.497  0.00  0.00    +0.380 C 
BRANCH  16  17
ATOM     17  C   LIG    1       -0.767   1.600  -1.226  0.00  0.00    +0.130 C 
ATOM     18  C   LIG    1       -0.013   1.086   0.008  0.00  0.00    +0.240 C 
ATOM     19  O   LIG    1       -0.694   1.553   1.177  0.00  0.00    -0.300 OA
ATOM     20  C   LIG    1       -2.049   1.415   1.191  0.00  0.00    +0.040 A 
ATOM     21  C   LIG    1       -2.730   1.507   2.396  0.00  0.00    +0.030 A 
ATOM     22  C   LIG    1       -4.106   1.377   2.425  0.00  0.00    +0.020 A 
ATOM     23  C   LIG    1       -4.806   1.154   1.255  0.00  0.00    +0.020 A 
ATOM     24  C   LIG    1       -4.133   1.059   0.051  0.00  0.00    +0.030 A 
ATOM     25  C   LIG    1       -2.753   1.189   0.014  0.00  0.00    +0.050 A 
ATOM     26  O   LIG    1       -2.104   1.091  -1.178  0.00  0.00    -0.280 OA
ENDBRANCH  16  17
ENDBRANCH   3  16
TORSDOF 6
