REMARK  Name = ZINCqH00000502LI.0
REMARK                            x       y       z     vdW  Elec       q    Type
REMARK                         _______ _______ _______ _____ _____    ______ ____
ROOT
ATOM      1  C   LIG    1       -1.329   1.945   0.034  0.00  0.00    +0.190 C 
ATOM      2  C   LIG    1       -1.491   2.740  -1.263  0.00  0.00    +0.070 C 
ENDROOT
BRANCH   1   3
ATOM      3  C   LIG    1       -0.015   1.209   0.012  0.00  0.00    +0.520 C 
ATOM      4  N   LIG    1        1.143   1.898   0.001  0.00  0.00    -0.670 N 
ATOM      5  H   LIG    1        1.131   2.866  -0.069  0.00  0.00    +0.410 HD
ATOM      6  O   LIG    1        0.002  -0.004  -0.002  0.00  0.00    -0.480 OA
BRANCH   4   7
ATOM      7  C   LIG    1        2.359   1.221   0.091  0.00  0.00    +0.200 A 
ATOM      8  C   LIG    1        2.417  -0.030   0.689  0.00  0.00    +0.020 A 
ATOM      9  C   LIG    1        3.622  -0.699   0.777  0.00  0.00    +0.080 A 
ATOM     10  C   LIG    1        4.779  -0.130   0.272  0.00  0.00    +0.000 A 
ATOM     11  C   LIG    1        4.740   1.113  -0.325  0.00  0.00    +0.090 A 
ATOM     12  C   LIG    1        3.528   1.799  -0.427  0.00  0.00    -0.060 A 
BRANCH  12  13
ATOM     13  C   LIG    1        3.479   3.086  -1.052  0.00  0.00    +0.250 C 
ATOM     14  N   LIG    1        3.441   4.107  -1.548  0.00  0.00    -0.410 NA
ENDBRANCH  12  13
ENDBRANCH   4   7
ENDBRANCH   1   3
BRANCH   1  15
ATOM     15  O   LIG    1       -2.417   0.990   0.154  0.00  0.00    -0.310 OA
BRANCH  15  16
ATOM     16  C   LIG    1       -3.531   1.407   0.789  0.00  0.00    +0.560 C 
ATOM     17  O   LIG    1       -3.591   2.538   1.230  0.00  0.00    -0.480 OA
BRANCH  16  20
ATOM     18  C   LIG    1       -6.205   2.120   2.208  0.00  0.00    +0.150 C 
ATOM     19  C   LIG    1       -5.839   0.805   1.568  0.00  0.00    -0.050 A 
ATOM     20  C   LIG    1       -4.670   0.495   0.948  0.00  0.00    -0.030 A 
ATOM     21  O   LIG    1       -4.717  -0.775   0.496  0.00  0.00    -0.170 OA
ATOM     22  C   LIG    1       -5.896  -1.350   0.802  0.00  0.00    +0.080 A 
ATOM     23  C   LIG    1       -6.429  -2.613   0.570  0.00  0.00    +0.030 A 
ATOM     24  C   LIG    1       -7.700  -2.913   1.010  0.00  0.00    +0.070 A 
ATOM     25  C   LIG    1       -8.459  -1.967   1.685  0.00  0.00    +0.000 A 
ATOM     26  C   LIG    1       -7.957  -0.719   1.925  0.00  0.00    +0.080 A 
ATOM     27  C   LIG    1       -6.670  -0.395   1.488  0.00  0.00    -0.150 A 
ENDBRANCH  16  20
ENDBRANCH  15  16
ENDBRANCH   1  15
TORSDOF 6
