REMARK  Name = ZINCb70000003XoD.0
REMARK                            x       y       z     vdW  Elec       q    Type
REMARK                         _______ _______ _______ _____ _____    ______ ____
ROOT
ATOM      1  C   LIG    1        0.002  -0.004   0.002  0.00  0.00    +0.350 C 
ATOM      2  N   LIG    1       -0.018   1.461   0.010  0.00  0.00    -0.490 N 
ATOM      3  C   LIG    1        1.086   2.292   0.004  0.00  0.00    +0.250 A 
ATOM      4  C   LIG    1        0.663   3.553   0.015  0.00  0.00    +0.220 A 
ATOM      5  N   LIG    1       -0.723   3.555   0.028  0.00  0.00    -0.300 N 
ATOM      6  N   LIG    1       -1.860   4.370   0.043  0.00  0.00    -0.280 NA
ATOM      7  C   LIG    1       -2.926   3.606   0.049  0.00  0.00    +0.320 A 
ATOM      8  C   LIG    1       -2.518   2.274   0.038  0.00  0.00    -0.370 A 
ATOM      9  C   LIG    1       -1.142   2.260   0.019  0.00  0.00    +0.280 A 
ENDROOT
BRANCH   8  10
ATOM     10  C   LIG    1       -3.420   1.067   0.040  0.00  0.00    +0.360 C 
BRANCH  10  11
ATOM     11  N   LIG    1       -3.506   0.523   1.402  0.00  0.00    -0.640 N 
ATOM     12  H   LIG    1       -4.110  -0.285   1.404  0.00  0.00    +0.430 HD
ATOM     13  H   LIG    1       -3.883   1.225   2.021  0.00  0.00    +0.430 HD
ATOM     14  H   LIG    1       -2.586   0.256   1.717  0.00  0.00    +0.420 HD
ENDBRANCH  10  11
ENDBRANCH   8  10
TORSDOF 2
