REMARK  Name = ZINCAx0000000gPx.0
REMARK                            x       y       z     vdW  Elec       q    Type
REMARK                         _______ _______ _______ _____ _____    ______ ____
ROOT
ATOM      1  C   LIG    1        2.081   2.271   1.307  0.00  0.00    +0.350 C 
ATOM      2  C   LIG    1        3.341   2.679   0.581  0.00  0.00    -0.220 C 
ATOM      3  C   LIG    1        3.133   2.430  -0.733  0.00  0.00    +0.100 C 
ATOM      4  C   LIG    1        1.779   1.865  -0.911  0.00  0.00    +0.520 C 
ATOM      5  O   LIG    1        1.295   1.537  -1.977  0.00  0.00    -0.510 OA
ATOM      6  N   LIG    1        1.161   1.767   0.280  0.00  0.00    -0.590 N 
ENDROOT
BRANCH   1  10
ATOM      7  C   LIG    1        2.955  -0.811   4.136  0.00  0.00    +0.150 A 
ATOM      8  C   LIG    1        2.577   0.449   4.576  0.00  0.00    -0.010 A 
ATOM      9  C   LIG    1        2.295   1.444   3.659  0.00  0.00    +0.070 A 
ATOM     10  C   LIG    1        2.389   1.184   2.304  0.00  0.00    -0.150 A 
ATOM     11  C   LIG    1        2.761  -0.072   1.863  0.00  0.00    +0.080 A 
ATOM     12  C   LIG    1        3.049  -1.069   2.776  0.00  0.00    -0.080 A 
BRANCH   7  13
ATOM     13  O   LIG    1        3.234  -1.790   5.035  0.00  0.00    -0.310 OA
BRANCH  13  15
ATOM     14  C   LIG    1        3.888  -4.030   5.665  0.00  0.00    +0.070 C 
ATOM     15  C   LIG    1        3.617  -3.063   4.510  0.00  0.00    +0.170 C 
ENDBRANCH  13  15
ENDBRANCH   7  13
ENDBRANCH   1  10
BRANCH   3  16
ATOM     16  O   LIG    1        4.022   2.662  -1.726  0.00  0.00    -0.430 OA
ATOM     17  H   LIG    1        3.701   2.422  -2.606  0.00  0.00    +0.410 HD
ENDBRANCH   3  16
BRANCH   2  18
ATOM     18  C   LIG    1        4.554   3.241   1.182  0.00  0.00    +0.480 C 
ATOM     19  O   LIG    1        5.595   2.611   1.155  0.00  0.00    -0.420 OA
BRANCH  18  20
ATOM     20  C   LIG    1        4.513   4.572   1.821  0.00  0.00    -0.160 A 
ATOM     21  C   LIG    1        3.307   5.273   1.901  0.00  0.00    +0.070 A 
ATOM     22  C   LIG    1        3.272   6.515   2.496  0.00  0.00    +0.020 A 
ATOM     23  C   LIG    1        4.432   7.074   3.019  0.00  0.00    +0.090 A 
ATOM     24  O   LIG    1        4.374   8.303   3.599  0.00  0.00    -0.300 OA
ATOM     25  C   LIG    1        5.471   8.670   4.441  0.00  0.00    +0.230 C 
ATOM     26  C   LIG    1        6.776   8.320   3.712  0.00  0.00    +0.230 C 
ATOM     27  O   LIG    1        6.781   6.912   3.455  0.00  0.00    -0.300 OA
ATOM     28  C   LIG    1        5.637   6.379   2.944  0.00  0.00    +0.040 A 
ATOM     29  C   LIG    1        5.679   5.131   2.352  0.00  0.00    +0.100 A 
ENDBRANCH  18  20
ENDBRANCH   2  18
BRANCH   6  30
ATOM     30  C   LIG    1       -0.192   1.255   0.510  0.00  0.00    +0.330 C 
BRANCH  30  31
ATOM     31  C   LIG    1       -0.130  -0.254   0.758  0.00  0.00    +0.160 C 
BRANCH  31  32
ATOM     32  N   LIG    1       -1.487  -0.768   0.989  0.00  0.00    -0.530 NA
ATOM     33  C   LIG    1       -2.045  -0.237   2.241  0.00  0.00    +0.150 C 
ATOM     34  C   LIG    1       -3.478  -0.749   2.413  0.00  0.00    +0.220 C 
ATOM     35  O   LIG    1       -3.474  -2.179   2.385  0.00  0.00    -0.380 OA
ATOM     36  C   LIG    1       -2.938  -2.730   1.179  0.00  0.00    +0.220 C 
ATOM     37  C   LIG    1       -1.499  -2.238   0.996  0.00  0.00    +0.150 C 
ENDBRANCH  31  32
ENDBRANCH  30  31
ENDBRANCH   6  30
TORSDOF 9
