REMARK  Name = ZINCrH000004vBPt.0
REMARK                            x       y       z     vdW  Elec       q    Type
REMARK                         _______ _______ _______ _____ _____    ______ ____
ROOT
ATOM      1  O   LIG    1       -4.362   6.766  -3.142  0.00  0.00    -0.520 OA
ATOM      2  C   LIG    1       -4.417   7.382  -2.096  0.00  0.00    +0.560 C 
ATOM      3  N   LIG    1       -3.831   6.884  -0.989  0.00  0.00    -0.610 N 
ATOM      4  C   LIG    1       -3.778   7.673   0.250  0.00  0.00    +0.270 C 
ATOM      5  C   LIG    1       -2.323   7.752   0.722  0.00  0.00    +0.030 C 
ATOM      6  C   LIG    1       -1.755   6.337   0.854  0.00  0.00    +0.040 C 
ATOM      7  C   LIG    1       -1.783   5.646  -0.511  0.00  0.00    +0.090 C 
ATOM      8  C   LIG    1       -3.232   5.542  -0.998  0.00  0.00    +0.310 C 
ENDROOT
BRANCH   7   9
ATOM      9  C   LIG    1       -1.195   4.264  -0.387  0.00  0.00    +0.140 A 
ATOM     10  N   LIG    1       -1.637   3.301   0.380  0.00  0.00    -0.240 NA
ATOM     11  N   LIG    1       -0.904   2.251   0.246  0.00  0.00    -0.290 NA
ATOM     12  C   LIG    1        0.056   2.493  -0.631  0.00  0.00    +0.190 A 
ATOM     13  C   LIG    1        1.119   1.722  -1.140  0.00  0.00    +0.080 A 
ATOM     14  C   LIG    1        1.964   2.276  -2.052  0.00  0.00    +0.060 A 
ATOM     15  C   LIG    1        1.768   3.605  -2.466  0.00  0.00    +0.030 A 
ATOM     16  C   LIG    1        0.749   4.333  -1.966  0.00  0.00    +0.230 A 
ATOM     17  N   LIG    1       -0.106   3.790  -1.052  0.00  0.00    -0.390 N 
ENDBRANCH   7   9
BRANCH   2  18
ATOM     18  C   LIG    1       -5.126   8.678  -2.038  0.00  0.00    -0.130 A 
ATOM     19  C   LIG    1       -5.852   9.029  -0.899  0.00  0.00    +0.090 A 
ATOM     20  C   LIG    1       -6.511  10.240  -0.851  0.00  0.00    +0.030 A 
ATOM     21  C   LIG    1       -6.454  11.106  -1.928  0.00  0.00    +0.100 A 
ATOM     22  C   LIG    1       -5.735  10.764  -3.060  0.00  0.00    -0.190 A 
ATOM     23  C   LIG    1       -5.067   9.558  -3.119  0.00  0.00    +0.130 A 
BRANCH  22  24
ATOM     24  C   LIG    1       -5.678  11.713  -4.229  0.00  0.00    +0.510 C 
ATOM     25  F   LIG    1       -6.211  11.091  -5.362  0.00  0.00    -0.170 F 
ATOM     26  F   LIG    1       -4.347  12.069  -4.476  0.00  0.00    -0.170 F 
ATOM     27  F   LIG    1       -6.421  12.861  -3.934  0.00  0.00    -0.170 F 
ENDBRANCH  22  24
ENDBRANCH   2  18
TORSDOF 3
