REMARK  Name = ZINCrg000000tP3Y.0
REMARK                            x       y       z     vdW  Elec       q    Type
REMARK                         _______ _______ _______ _____ _____    ______ ____
ROOT
ATOM      1  N   LIG    1       -1.872   3.115  -0.993  0.00  0.00    -0.550 NA
ATOM      2  C   LIG    1       -2.008   1.655  -1.088  0.00  0.00    +0.200 C 
ATOM      3  C   LIG    1       -0.923   0.987  -0.237  0.00  0.00    +0.280 C 
ATOM      4  N   LIG    1       -0.995   1.530   1.129  0.00  0.00    -0.630 N 
ATOM      5  C   LIG    1       -1.008   2.992   1.296  0.00  0.00    +0.310 C 
ATOM      6  C   LIG    1       -1.054   0.710   2.197  0.00  0.00    +0.720 C 
ATOM      7  N   LIG    1       -0.852  -0.613   2.042  0.00  0.00    -0.640 N 
ATOM      8  C   LIG    1       -0.165  -1.141   0.853  0.00  0.00    +0.250 C 
ATOM      9  C   LIG    1        0.950  -2.088   1.325  0.00  0.00    +0.220 C 
ATOM     10  O   LIG    1        0.397  -3.056   2.219  0.00  0.00    -0.380 OA
ATOM     11  C   LIG    1       -0.152  -2.500   3.417  0.00  0.00    +0.220 C 
ATOM     12  C   LIG    1       -1.319  -1.574   3.054  0.00  0.00    +0.270 C 
ATOM     13  O   LIG    1       -1.287   1.165   3.300  0.00  0.00    -0.580 OA
ATOM     14  C   LIG    1       -2.090   3.581   0.384  0.00  0.00    +0.180 C 
ENDROOT
BRANCH   1  15
ATOM     15  C   LIG    1       -2.782   3.791  -1.927  0.00  0.00    +0.470 C 
BRANCH  15  19
ATOM     16  O   LIG    1       -0.398   7.444  -4.039  0.00  0.00    -0.360 OA
ATOM     17  C   LIG    1       -1.111   6.831  -3.272  0.00  0.00    +0.390 C 
ATOM     18  C   LIG    1       -1.417   5.363  -3.283  0.00  0.00    +0.500 C 
ATOM     19  N   LIG    1       -2.248   5.115  -2.256  0.00  0.00    -0.540 N 
ATOM     20  C   LIG    1       -2.543   6.277  -1.548  0.00  0.00    +0.200 A 
ATOM     21  C   LIG    1       -3.337   6.495  -0.430  0.00  0.00    +0.010 A 
ATOM     22  C   LIG    1       -3.465   7.768   0.096  0.00  0.00    -0.020 A 
ATOM     23  C   LIG    1       -2.800   8.840  -0.478  0.00  0.00    +0.020 A 
ATOM     24  C   LIG    1       -2.002   8.645  -1.586  0.00  0.00    +0.160 A 
ATOM     25 BR   LIG    1       -4.556   8.049   1.615  0.00  0.00    -0.020 Br
ATOM     26  O   LIG    1       -0.991   4.548  -4.074  0.00  0.00    -0.430 OA
ATOM     27  C   LIG    1       -1.867   7.365  -2.125  0.00  0.00    -0.220 A 
ENDBRANCH  15  19
ENDBRANCH   1  15
TORSDOF 2
