REMARK  Name = ZINCpe00000FUcWa.0
REMARK                            x       y       z     vdW  Elec       q    Type
REMARK                         _______ _______ _______ _____ _____    ______ ____
ROOT
ATOM      1  N   LIG    1       -0.723   1.569  -1.187  0.00  0.00    -0.540 N 
ATOM      2  C   LIG    1       -0.035   1.089   0.005  0.00  0.00    +0.270 C 
ATOM      3  C   LIG    1       -0.749   1.581   1.265  0.00  0.00    +0.040 C 
ATOM      4  C   LIG    1       -2.237   1.249   1.153  0.00  0.00    +0.050 C 
ATOM      5  C   LIG    1       -2.838   2.103   0.033  0.00  0.00    +0.270 C 
ATOM      6  C   LIG    1       -1.983   2.006  -1.198  0.00  0.00    +0.500 C 
ATOM      7  O   LIG    1       -2.465   2.344  -2.259  0.00  0.00    -0.510 OA
ENDROOT
BRANCH   1  12
ATOM      8  N   LIG    1        0.659   2.618  -2.917  0.00  0.00    -0.360 N 
ATOM      9  N   LIG    1        1.218   2.200  -4.132  0.00  0.00    -0.280 NA
ATOM     10  C   LIG    1        0.888   0.950  -4.330  0.00  0.00    +0.240 A 
ATOM     11  C   LIG    1        0.113   0.524  -3.248  0.00  0.00    -0.100 A 
ATOM     12  C   LIG    1       -0.020   1.573  -2.391  0.00  0.00    +0.290 A 
BRANCH   8  14
ATOM     13  C   LIG    1        2.093   4.031  -1.528  0.00  0.00    +0.040 C 
ATOM     14  C   LIG    1        0.787   3.950  -2.322  0.00  0.00    +0.320 C 
ENDBRANCH   8  14
ENDBRANCH   1  12
BRANCH   5  15
ATOM     15  N   LIG    1       -4.188   1.623  -0.273  0.00  0.00    -1.100 NA
ATOM     16  H   LIG    1       -4.388   0.675  -0.226  0.00  0.00    +0.420 HD
BRANCH  15  17
ATOM     17  S   LIG    1       -5.372   2.700  -0.700  0.00  0.00    +2.600 S 
ATOM     18  O   LIG    1       -5.331   3.688   0.321  0.00  0.00    -0.960 OA
ATOM     19  O   LIG    1       -6.526   1.893  -0.893  0.00  0.00    -0.950 OA
BRANCH  17  20
ATOM     20  C   LIG    1       -4.807   3.391  -2.279  0.00  0.00    -0.310 C 
BRANCH  20  21
ATOM     21  C   LIG    1       -5.829   4.412  -2.783  0.00  0.00    +0.060 C 
BRANCH  21  22
ATOM     22  C   LIG    1       -5.353   4.995  -4.115  0.00  0.00    +0.160 C 
ATOM     23  C   LIG    1       -6.429   5.937  -4.690  0.00  0.00    +0.000 C 
ATOM     24  C   LIG    1       -5.706   7.299  -4.829  0.00  0.00    +0.000 C 
ATOM     25  C   LIG    1       -4.215   6.875  -4.847  0.00  0.00    +0.190 C 
ATOM     26  O   LIG    1       -4.163   5.776  -3.909  0.00  0.00    -0.370 OA
ENDBRANCH  21  22
ENDBRANCH  20  21
ENDBRANCH  17  20
ENDBRANCH  15  17
ENDBRANCH   5  15
TORSDOF 7
