REMARK  Name = ZINCqH0000007B5P.0
REMARK                            x       y       z     vdW  Elec       q    Type
REMARK                         _______ _______ _______ _____ _____    ______ ____
ROOT
ATOM      1  C   LIG    1        5.983   0.611  -0.054  0.00  0.00    +0.600 C 
ATOM      2  N   LIG    1        6.603  -0.586  -0.065  0.00  0.00    -0.660 N 
ATOM      3  H   LIG    1        6.083  -1.401   0.010  0.00  0.00    +0.420 HD
ATOM      4  O   LIG    1        6.639   1.636  -0.063  0.00  0.00    -0.490 OA
ENDROOT
BRANCH   1  10
ATOM      5  C   LIG    1       -0.017   1.387   0.040  0.00  0.00    +0.110 A 
ATOM      6  C   LIG    1        0.003  -0.005   0.040  0.00  0.00    -0.010 A 
ATOM      7  C   LIG    1        1.196  -0.692   0.020  0.00  0.00    +0.070 A 
ATOM      8  C   LIG    1        2.400   0.003   0.002  0.00  0.00    +0.040 A 
ATOM      9  O   LIG    1        3.690  -0.389  -0.019  0.00  0.00    -0.180 OA
ATOM     10  C   LIG    1        4.516   0.678  -0.032  0.00  0.00    -0.040 A 
ATOM     11  C   LIG    1        3.786   1.824  -0.019  0.00  0.00    -0.070 A 
ATOM     12  C   LIG    1        4.314   3.235  -0.026  0.00  0.00    +0.140 C 
ATOM     13  C   LIG    1        2.383   1.410   0.003  0.00  0.00    -0.100 A 
ATOM     14  C   LIG    1        1.167   2.098   0.022  0.00  0.00    +0.040 A 
BRANCH   5  16
ATOM     15  C   LIG    1       -2.391   1.252   0.066  0.00  0.00    +0.240 C 
ATOM     16  O   LIG    1       -1.204   2.049   0.053  0.00  0.00    -0.310 OA
ENDBRANCH   5  16
ENDBRANCH   1  10
BRANCH   2  17
ATOM     17  C   LIG    1        7.995  -0.651  -0.183  0.00  0.00    +0.140 A 
ATOM     18  C   LIG    1        8.584  -1.695  -0.887  0.00  0.00    +0.010 A 
ATOM     19  C   LIG    1        9.959  -1.761  -1.010  0.00  0.00    +0.040 A 
ATOM     20  C   LIG    1       10.755  -0.795  -0.426  0.00  0.00    +0.050 A 
ATOM     21  C   LIG    1       10.173   0.252   0.286  0.00  0.00    +0.000 A 
ATOM     22  C   LIG    1        8.788   0.322   0.406  0.00  0.00    +0.060 A 
BRANCH  21  23
ATOM     23  C   LIG    1       11.028   1.290   0.913  0.00  0.00    +0.270 A 
ATOM     24  N   LIG    1       10.597   2.325   1.601  0.00  0.00    -0.300 NA
ATOM     25  N   LIG    1       11.734   3.039   2.011  0.00  0.00    -0.480 N 
ATOM     26  H   LIG    1       11.749   3.854   2.538  0.00  0.00    +0.440 HD
ATOM     27  C   LIG    1       12.798   2.377   1.523  0.00  0.00    +0.500 A 
ATOM     28  N   LIG    1       12.366   1.332   0.868  0.00  0.00    -0.530 NA
ENDBRANCH  21  23
ENDBRANCH   2  17
TORSDOF 4
