REMARK  Name = ZINCqH0000007B5P.1
REMARK                            x       y       z     vdW  Elec       q    Type
REMARK                         _______ _______ _______ _____ _____    ______ ____
ROOT
ATOM      1  C   LIG    1       -1.207   1.587   0.017  0.00  0.00    +0.600 C 
ATOM      2  N   LIG    1       -0.011   0.966   0.007  0.00  0.00    -0.660 N 
ATOM      3  H   LIG    1        0.032  -0.003   0.007  0.00  0.00    +0.420 HD
ATOM      4  O   LIG    1       -1.264   2.800  -0.067  0.00  0.00    -0.480 OA
ENDROOT
BRANCH   1  10
ATOM      5  C   LIG    1       -6.548  -1.221   0.463  0.00  0.00    +0.110 A 
ATOM      6  C   LIG    1       -5.729  -2.346   0.507  0.00  0.00    -0.010 A 
ATOM      7  C   LIG    1       -4.359  -2.222   0.435  0.00  0.00    +0.070 A 
ATOM      8  C   LIG    1       -3.779  -0.964   0.319  0.00  0.00    +0.040 A 
ATOM      9  O   LIG    1       -2.501  -0.544   0.230  0.00  0.00    -0.190 OA
ATOM     10  C   LIG    1       -2.443   0.800   0.130  0.00  0.00    -0.040 A 
ATOM     11  C   LIG    1       -3.699   1.317   0.156  0.00  0.00    -0.060 A 
ATOM     12  C   LIG    1       -4.082   2.772   0.075  0.00  0.00    +0.140 C 
ATOM     13  C   LIG    1       -4.604   0.174   0.274  0.00  0.00    -0.100 A 
ATOM     14  C   LIG    1       -5.993   0.038   0.348  0.00  0.00    +0.040 A 
BRANCH   5  16
ATOM     15  C   LIG    1       -8.406  -2.693   0.654  0.00  0.00    +0.240 C 
ATOM     16  O   LIG    1       -7.899  -1.362   0.535  0.00  0.00    -0.310 OA
ENDBRANCH   5  16
ENDBRANCH   1  10
BRANCH   2  17
ATOM     17  C   LIG    1        1.168   1.718  -0.008  0.00  0.00    +0.150 A 
ATOM     18  C   LIG    1        2.291   1.265   0.674  0.00  0.00    +0.010 A 
ATOM     19  C   LIG    1        3.458   2.005   0.661  0.00  0.00    +0.050 A 
ATOM     20  C   LIG    1        3.516   3.199  -0.028  0.00  0.00    +0.000 A 
ATOM     21  C   LIG    1        2.393   3.663  -0.715  0.00  0.00    -0.000 A 
ATOM     22  C   LIG    1        1.218   2.914  -0.708  0.00  0.00    +0.080 A 
BRANCH  21  23
ATOM     23  C   LIG    1        2.452   4.944  -1.455  0.00  0.00    +0.220 A 
ATOM     24  N   LIG    1        1.477   5.497  -2.141  0.00  0.00    -0.270 NA
ATOM     25  N   LIG    1        1.880   6.605  -2.652  0.00  0.00    -0.290 NA
ATOM     26  C   LIG    1        3.126   6.822  -2.325  0.00  0.00    +0.390 A 
ATOM     27  N   LIG    1        3.532   5.780  -1.550  0.00  0.00    -0.580 N 
ATOM     28  H   LIG    1        4.406   5.654  -1.149  0.00  0.00    +0.430 HD
ENDBRANCH  21  23
ENDBRANCH   2  17
TORSDOF 4
