REMARK  Name = ZINCpk00000j9Ceo.0
REMARK                            x       y       z     vdW  Elec       q    Type
REMARK                         _______ _______ _______ _____ _____    ______ ____
ROOT
ATOM      1  C   LIG    1        1.382   1.694  -1.136  0.00  0.00    +0.510 C 
ATOM      2  N   LIG    1        2.426   2.500  -1.411  0.00  0.00    -0.620 N 
ATOM      3  C   LIG    1        3.676   2.405  -0.643  0.00  0.00    +0.280 C 
ATOM      4  C   LIG    1        4.843   2.279  -1.635  0.00  0.00    +0.120 C 
ATOM      5  N   LIG    1        4.787   3.391  -2.593  0.00  0.00    -0.510 NA
ATOM      6  C   LIG    1        3.560   3.338  -3.400  0.00  0.00    +0.120 C 
ATOM      7  C   LIG    1        3.579   4.467  -4.433  0.00  0.00    +0.050 C 
ATOM      8  C   LIG    1        6.168   2.329  -0.872  0.00  0.00    +0.050 C 
ATOM      9  C   LIG    1        2.343   3.503  -2.484  0.00  0.00    +0.310 C 
ATOM     10  O   LIG    1        0.356   1.789  -1.777  0.00  0.00    -0.500 OA
ENDROOT
BRANCH   1  11
ATOM     11  C   LIG    1        1.488   0.673  -0.033  0.00  0.00    +0.250 C 
BRANCH  11  14
ATOM     12  C   LIG    1       -1.879  -1.100  -0.452  0.00  0.00    +0.080 C 
ATOM     13  C   LIG    1       -0.834  -0.033  -0.245  0.00  0.00    +0.520 C 
ATOM     14  N   LIG    1        0.472  -0.365  -0.227  0.00  0.00    -0.720 N 
ATOM     15  H   LIG    1        0.740  -1.289  -0.347  0.00  0.00    +0.410 HD
ATOM     16  O   LIG    1       -1.169   1.123  -0.096  0.00  0.00    -0.520 OA
ENDBRANCH  11  14
BRANCH  11  17
ATOM     17  C   LIG    1        1.267   1.357   1.318  0.00  0.00    +0.190 C 
BRANCH  17  18
ATOM     18  O   LIG    1        1.483   0.414   2.370  0.00  0.00    -0.380 OA
BRANCH  18  19
ATOM     19  C   LIG    1        1.300   0.955   3.680  0.00  0.00    +0.140 C 
ATOM     20  C   LIG    1        2.630   1.514   4.191  0.00  0.00    +0.010 C 
ATOM     21  C   LIG    1        0.815  -0.148   4.624  0.00  0.00    +0.040 C 
ENDBRANCH  18  19
ENDBRANCH  17  18
ENDBRANCH  11  17
ENDBRANCH   1  11
BRANCH   5  22
ATOM     22  C   LIG    1        5.980   3.409  -3.450  0.00  0.00    +0.270 C 
BRANCH  22  23
ATOM     23  C   LIG    1        5.984   2.168  -4.344  0.00  0.00    +0.410 C 
ATOM     24  F   LIG    1        5.934   1.019  -3.548  0.00  0.00    -0.180 F 
ATOM     25  F   LIG    1        7.153   2.151  -5.113  0.00  0.00    -0.180 F 
ATOM     26  F   LIG    1        4.870   2.199  -5.190  0.00  0.00    -0.180 F 
ENDBRANCH  22  23
ENDBRANCH   5  22
TORSDOF 7
