REMARK  Name = ZINCqH0000000uJw.0
REMARK                            x       y       z     vdW  Elec       q    Type
REMARK                         _______ _______ _______ _____ _____    ______ ____
ROOT
ATOM      1  C   LIG    1       -0.018   1.468   0.010  0.00  0.00    +0.600 C 
ATOM      2  N   LIG    1        1.140   2.158   0.003  0.00  0.00    -0.700 N 
ATOM      3  H   LIG    1        1.986   1.684  -0.008  0.00  0.00    +0.410 HD
ATOM      4  O   LIG    1       -1.079   2.062   0.018  0.00  0.00    -0.530 OA
ENDROOT
BRANCH   1   7
ATOM      5  C   LIG    1        1.002  -1.995  -0.017  0.00  0.00    +0.250 A 
ATOM      6  N   LIG    1        1.139  -0.707  -0.012  0.00  0.00    -0.480 NA
ATOM      7  C   LIG    1        0.002  -0.004   0.002  0.00  0.00    +0.020 A 
ATOM      8  C   LIG    1       -1.125  -0.744   0.014  0.00  0.00    -0.070 A 
ATOM      9  S   LIG    1       -0.710  -2.403  -0.003  0.00  0.00    +0.290 S 
BRANCH   5  12
ATOM     10  C   LIG    1        2.912  -5.228  -0.051  0.00  0.00    +0.140 C 
ATOM     11  C   LIG    1        1.780  -4.233  -0.036  0.00  0.00    +0.510 C 
ATOM     12  N   LIG    1        2.045  -2.912  -0.032  0.00  0.00    -0.620 N 
ATOM     13  H   LIG    1        2.964  -2.601  -0.039  0.00  0.00    +0.430 HD
ATOM     14  O   LIG    1        0.632  -4.622  -0.027  0.00  0.00    -0.510 OA
ENDBRANCH   5  12
ENDBRANCH   1   7
BRANCH   2  15
ATOM     15  C   LIG    1        1.120   3.622   0.011  0.00  0.00    +0.230 C 
ATOM     16  C   LIG    1        2.394   4.252   0.598  0.00  0.00    +0.050 C 
ATOM     17  C   LIG    1        2.974   4.215  -0.826  0.00  0.00    +0.020 C 
ATOM     18  C   LIG    1        1.523   4.251  -1.333  0.00  0.00    +0.040 C 
BRANCH  17  19
ATOM     19  C   LIG    1        3.772   5.442  -1.186  0.00  0.00    -0.040 A 
ATOM     20  C   LIG    1        3.169   6.686  -1.175  0.00  0.00    +0.020 A 
ATOM     21  C   LIG    1        3.902   7.812  -1.501  0.00  0.00    +0.070 A 
ATOM     22  C   LIG    1        5.235   7.693  -1.845  0.00  0.00    -0.190 A 
ATOM     23  C   LIG    1        5.837   6.448  -1.861  0.00  0.00    +0.070 A 
ATOM     24  C   LIG    1        5.105   5.323  -1.531  0.00  0.00    +0.010 A 
BRANCH  22  25
ATOM     25  C   LIG    1        6.033   8.920  -2.204  0.00  0.00    +0.510 C 
ATOM     26  F   LIG    1        7.373   8.723  -1.853  0.00  0.00    -0.180 F 
ATOM     27  F   LIG    1        5.527  10.024  -1.510  0.00  0.00    -0.180 F 
ATOM     28  F   LIG    1        5.940   9.151  -3.580  0.00  0.00    -0.180 F 
ENDBRANCH  22  25
ENDBRANCH  17  19
ENDBRANCH   2  15
TORSDOF 5
