REMARK  Name = ZINCkj000005hpBa.0
REMARK                            x       y       z     vdW  Elec       q    Type
REMARK                         _______ _______ _______ _____ _____    ______ ____
ROOT
ATOM      1  C   LIG    1       -2.080   1.079  -1.153  0.00  0.00    +0.310 C 
ATOM      2  N   LIG    1       -0.694   1.564  -1.178  0.00  0.00    -0.380 N 
ATOM      3  C   LIG    1        0.007   1.087   0.018  0.00  0.00    +0.240 C 
ATOM      4  C   LIG    1       -0.710   1.578   1.281  0.00  0.00    +0.110 C 
ATOM      5  C   LIG    1       -0.735   3.105   1.265  0.00  0.00    +0.250 C 
ATOM      6  C   LIG    1       -1.455   3.566  -0.009  0.00  0.00    -0.030 C 
ATOM      7  C   LIG    1       -1.520   5.091  -0.017  0.00  0.00    +0.050 C 
ATOM      8  C   LIG    1       -2.344   5.560   1.187  0.00  0.00    +0.020 C 
ATOM      9  C   LIG    1       -1.685   5.090   2.485  0.00  0.00    +0.270 C 
ATOM     10  N   LIG    1       -1.463   3.636   2.421  0.00  0.00    -0.630 N 
ATOM     11  C   LIG    1       -1.913   2.820   3.394  0.00  0.00    +0.720 C 
ATOM     12  N   LIG    1       -2.484   3.340   4.499  0.00  0.00    -0.740 N 
ATOM     13  H   LIG    1       -2.636   4.296   4.563  0.00  0.00    +0.400 HD
ATOM     14  O   LIG    1       -1.806   1.615   3.275  0.00  0.00    -0.580 OA
ATOM     15  C   LIG    1       -0.696   3.034  -1.222  0.00  0.00    +0.260 C 
ATOM     16  H   LIG    1       -0.231   1.207  -2.000  0.00  0.00    +0.430 HD
ENDROOT
BRANCH  12  17
ATOM     17  C   LIG    1       -2.874   2.461   5.604  0.00  0.00    +0.410 C 
BRANCH  17  18
ATOM     18  C   LIG    1       -3.484   3.284   6.710  0.00  0.00    -0.020 A 
ATOM     19  N   LIG    1       -2.848   3.907   7.660  0.00  0.00    -0.340 NA
ATOM     20  O   LIG    1       -3.609   4.485   8.400  0.00  0.00    +0.110 OA
ATOM     21  C   LIG    1       -4.885   4.316   8.026  0.00  0.00    +0.170 A 
ATOM     22  C   LIG    1       -4.859   3.539   6.916  0.00  0.00    -0.040 A 
ENDBRANCH  17  18
ENDBRANCH  12  17
TORSDOF 2
