REMARK  Name = ZINCkj000005hpBa.1
REMARK                            x       y       z     vdW  Elec       q    Type
REMARK                         _______ _______ _______ _____ _____    ______ ____
ROOT
ATOM      1  C   LIG    1       -6.456   7.950  -3.460  0.00  0.00    +0.310 C 
ATOM      2  N   LIG    1       -5.389   6.988  -3.153  0.00  0.00    -0.390 N 
ATOM      3  C   LIG    1       -5.906   5.968  -2.236  0.00  0.00    +0.240 C 
ATOM      4  C   LIG    1       -4.797   4.979  -1.862  0.00  0.00    +0.110 C 
ATOM      5  C   LIG    1       -4.279   4.322  -3.141  0.00  0.00    +0.250 C 
ATOM      6  C   LIG    1       -3.768   5.420  -4.082  0.00  0.00    -0.030 C 
ATOM      7  C   LIG    1       -3.215   4.769  -5.347  0.00  0.00    +0.050 C 
ATOM      8  C   LIG    1       -2.025   3.879  -4.970  0.00  0.00    +0.020 C 
ATOM      9  C   LIG    1       -2.474   2.792  -3.998  0.00  0.00    +0.270 C 
ATOM     10  N   LIG    1       -3.169   3.408  -2.855  0.00  0.00    -0.630 N 
ATOM     11  C   LIG    1       -2.793   3.144  -1.588  0.00  0.00    +0.720 C 
ATOM     12  N   LIG    1       -1.703   2.386  -1.353  0.00  0.00    -0.740 N 
ATOM     13  H   LIG    1       -1.232   1.971  -2.092  0.00  0.00    +0.400 HD
ATOM     14  O   LIG    1       -3.437   3.589  -0.658  0.00  0.00    -0.580 OA
ATOM     15  C   LIG    1       -4.920   6.369  -4.402  0.00  0.00    +0.260 C 
ATOM     16  H   LIG    1       -4.621   7.472  -2.713  0.00  0.00    +0.420 HD
ENDROOT
BRANCH  12  17
ATOM     17  C   LIG    1       -1.230   2.191   0.020  0.00  0.00    +0.400 C 
BRANCH  17  18
ATOM     18  C   LIG    1       -0.006   1.312   0.009  0.00  0.00    -0.020 A 
ATOM     19  N   LIG    1        0.019   0.010   0.001  0.00  0.00    -0.340 NA
ATOM     20  O   LIG    1        1.151  -0.413  -0.012  0.00  0.00    +0.110 OA
ATOM     21  C   LIG    1        2.049   0.582  -0.014  0.00  0.00    +0.170 A 
ATOM     22  C   LIG    1        1.342   1.737  -0.000  0.00  0.00    -0.050 A 
ENDBRANCH  17  18
ENDBRANCH  12  17
TORSDOF 2
