REMARK  Name = ZINCtV00000L6jA4.0
REMARK                            x       y       z     vdW  Elec       q    Type
REMARK                         _______ _______ _______ _____ _____    ______ ____
ROOT
ATOM      1  N   LIG    1        3.501   3.731   0.846  0.00  0.00    -0.460 N 
ATOM      2  C   LIG    1        2.408   3.971   0.093  0.00  0.00    +0.530 C 
ATOM      3  O   LIG    1        2.419   4.869  -0.722  0.00  0.00    -0.490 OA
ENDROOT
BRANCH   1   9
ATOM      4  C   LIG    1        3.085   2.761   3.026  0.00  0.00    +0.150 A 
ATOM      5  C   LIG    1        3.114   1.669   3.877  0.00  0.00    -0.060 A 
ATOM      6  C   LIG    1        3.580   0.449   3.421  0.00  0.00    +0.070 A 
ATOM      7  C   LIG    1        4.018   0.316   2.117  0.00  0.00    -0.020 A 
ATOM      8  C   LIG    1        3.988   1.400   1.260  0.00  0.00    +0.070 A 
ATOM      9  C   LIG    1        3.527   2.628   1.712  0.00  0.00    +0.090 A 
BRANCH   4  11
ATOM     10  C   LIG    1        2.190   4.024   4.832  0.00  0.00    +0.250 C 
ATOM     11  O   LIG    1        2.627   3.961   3.473  0.00  0.00    -0.310 OA
ENDBRANCH   4  11
ENDBRANCH   1   9
BRANCH   2  12
ATOM     12  C   LIG    1        1.173   3.124   0.266  0.00  0.00    +0.010 C 
ATOM     13  C   LIG    1        1.180   1.989  -0.760  0.00  0.00    +0.080 C 
ATOM     14  C   LIG    1       -0.152   1.299  -0.776  0.00  0.00    -0.040 C 
ATOM     15  C   LIG    1       -1.236   1.804  -0.282  0.00  0.00    -0.040 C 
ATOM     16  C   LIG    1       -1.309   3.141   0.394  0.00  0.00    +0.070 C 
ATOM     17  C   LIG    1       -0.079   3.979   0.036  0.00  0.00    +0.050 C 
ENDBRANCH   2  12
BRANCH   1  18
ATOM     18  C   LIG    1        4.601   4.576   0.763  0.00  0.00    +0.280 A 
ATOM     19  N   LIG    1        5.701   4.443   1.436  0.00  0.00    -0.490 NA
ATOM     20  C   LIG    1        6.648   5.347   1.228  0.00  0.00    +0.130 A 
ATOM     21  C   LIG    1        6.345   6.303   0.332  0.00  0.00    -0.110 A 
ATOM     22  S   LIG    1        4.722   5.991  -0.279  0.00  0.00    +0.200 S 
BRANCH  20  23
ATOM     23  C   LIG    1        7.951   5.307   1.935  0.00  0.00    -0.030 A 
ATOM     24  C   LIG    1        8.917   6.279   1.677  0.00  0.00    +0.020 A 
ATOM     25  C   LIG    1       10.126   6.239   2.342  0.00  0.00    +0.010 A 
ATOM     26  C   LIG    1       10.384   5.232   3.254  0.00  0.00    -0.080 A 
ATOM     27  C   LIG    1        9.432   4.262   3.510  0.00  0.00    +0.000 A 
ATOM     28  C   LIG    1       11.709   5.192   3.972  0.00  0.00    +0.090 C 
ATOM     29  C   LIG    1        8.217   4.295   2.855  0.00  0.00    +0.050 A 
ENDBRANCH  20  23
ENDBRANCH   1  18
TORSDOF 5
