REMARK  Name = ZINCpe000027pHwB.0
REMARK                            x       y       z     vdW  Elec       q    Type
REMARK                         _______ _______ _______ _____ _____    ______ ____
ROOT
ATOM      1  N   LIG    1        0.619   2.278   2.196  0.00  0.00    -0.600 N 
ATOM      2  C   LIG    1        1.745   2.307   1.462  0.00  0.00    +0.530 C 
ATOM      3  C   LIG    1        1.417   2.099  -0.000  0.00  0.00    +0.070 C 
ATOM      4  C   LIG    1       -0.019   1.526   0.010  0.00  0.00    +0.000 C 
ATOM      5  O   LIG    1        2.860   2.476   1.907  0.00  0.00    -0.520 OA
ATOM      6  C   LIG    1       -0.563   2.064   1.352  0.00  0.00    +0.340 C 
ENDROOT
BRANCH   6   7
ATOM      7  C   LIG    1       -1.291   3.365   1.136  0.00  0.00    +0.180 A 
ATOM      8  N   LIG    1       -0.731   4.521   0.905  0.00  0.00    -0.460 NA
ATOM      9  C   LIG    1       -1.684   5.454   0.763  0.00  0.00    +0.140 A 
ATOM     10  C   LIG    1       -2.880   4.854   0.912  0.00  0.00    +0.130 A 
ATOM     11  N   LIG    1       -2.632   3.527   1.142  0.00  0.00    -0.450 N 
ATOM     12  C   LIG    1       -3.633   2.480   1.359  0.00  0.00    +0.330 C 
ENDBRANCH   6   7
BRANCH   1  14
ATOM     13  C   LIG    1        0.421   3.920   3.998  0.00  0.00    +0.020 C 
ATOM     14  C   LIG    1        0.577   2.438   3.652  0.00  0.00    +0.290 C 
ENDBRANCH   1  14
BRANCH   4  15
ATOM     15  C   LIG    1        0.002  -0.004   0.002  0.00  0.00    +0.300 C 
BRANCH  15  16
ATOM     16  N   LIG    1        0.548  -0.478  -1.272  0.00  0.00    -0.680 N 
ATOM     17  H   LIG    1        0.828   0.160  -1.947  0.00  0.00    +0.420 HD
BRANCH  16  18
ATOM     18  C   LIG    1        0.666  -1.837  -1.512  0.00  0.00    +0.490 A 
ATOM     19  N   LIG    1        0.293  -2.709  -0.597  0.00  0.00    -0.540 NA
ATOM     20  C   LIG    1        0.393  -4.025  -0.809  0.00  0.00    +0.290 A 
ATOM     21  C   LIG    1        0.888  -4.516  -1.963  0.00  0.00    +0.110 A 
ATOM     22  N   LIG    1        1.296  -3.657  -2.949  0.00  0.00    -0.360 N 
ATOM     23  C   LIG    1        1.821  -3.808  -4.181  0.00  0.00    +0.370 A 
ATOM     24  N   LIG    1        2.019  -2.612  -4.677  0.00  0.00    -0.260 NA
ATOM     25  N   LIG    1        1.649  -1.714  -3.831  0.00  0.00    -0.250 NA
ATOM     26  C   LIG    1        1.193  -2.302  -2.742  0.00  0.00    +0.110 A 
ENDBRANCH  16  18
ENDBRANCH  15  16
ENDBRANCH   4  15
TORSDOF 5
