REMARK  Name = ZINCqH0000000ss4.0
REMARK                            x       y       z     vdW  Elec       q    Type
REMARK                         _______ _______ _______ _____ _____    ______ ____
ROOT
ATOM      1  C   LIG    1       -4.750   6.440   2.220  0.00  0.00    +0.570 C 
ATOM      2  N   LIG    1       -4.206   5.787   1.174  0.00  0.00    -0.610 N 
ATOM      3  C   LIG    1       -4.963   5.590  -0.073  0.00  0.00    +0.240 C 
ATOM      4  C   LIG    1       -4.089   6.048  -1.246  0.00  0.00    +0.220 C 
ATOM      5  O   LIG    1       -2.817   5.400  -1.167  0.00  0.00    -0.370 OA
ATOM      6  C   LIG    1       -2.068   5.723   0.007  0.00  0.00    +0.200 C 
ATOM      7  C   LIG    1       -2.838   5.249   1.245  0.00  0.00    +0.280 C 
ATOM      8  O   LIG    1       -4.134   6.537   3.263  0.00  0.00    -0.530 OA
ENDROOT
BRANCH   6   9
ATOM      9  C   LIG    1       -0.728   5.035  -0.045  0.00  0.00    -0.090 A 
ATOM     10  C   LIG    1        0.389   5.658   0.479  0.00  0.00    +0.080 A 
ATOM     11  C   LIG    1        1.619   5.029   0.432  0.00  0.00    +0.000 A 
ATOM     12  C   LIG    1        1.732   3.773  -0.141  0.00  0.00    +0.130 A 
ATOM     13  C   LIG    1        0.612   3.150  -0.666  0.00  0.00    -0.130 A 
ATOM     14 BR   LIG    1        0.763   1.435  -1.450  0.00  0.00    -0.020 Br
ATOM     15  F   LIG    1        2.933   3.157  -0.187  0.00  0.00    -0.120 F 
ATOM     16  C   LIG    1       -0.616   3.784  -0.622  0.00  0.00    +0.120 A 
ENDBRANCH   6   9
BRANCH   1  20
ATOM     17  C   LIG    1       -8.618   8.159   1.871  0.00  0.00    +0.170 A 
ATOM     18  C   LIG    1       -7.654   8.774   2.663  0.00  0.00    +0.010 A 
ATOM     19  C   LIG    1       -6.399   8.220   2.778  0.00  0.00    +0.100 A 
ATOM     20  C   LIG    1       -6.095   7.037   2.098  0.00  0.00    -0.150 A 
ATOM     21  C   LIG    1       -7.064   6.425   1.299  0.00  0.00    +0.070 A 
ATOM     22  C   LIG    1       -8.318   6.982   1.192  0.00  0.00    -0.020 A 
BRANCH  17  25
ATOM     23  C   LIG    1      -11.697  10.196   2.580  0.00  0.00    +0.110 C 
ATOM     24  C   LIG    1      -10.377   9.489   2.752  0.00  0.00    +0.510 C 
ATOM     25  N   LIG    1       -9.888   8.723   1.757  0.00  0.00    -0.670 N 
ATOM     26  H   LIG    1      -10.420   8.564   0.961  0.00  0.00    +0.420 HD
ATOM     27  O   LIG    1       -9.755   9.611   3.785  0.00  0.00    -0.520 OA
ENDBRANCH  17  25
ENDBRANCH   1  20
TORSDOF 3
