REMARK  Name = ZINCqH0000032I5Y.0
REMARK                            x       y       z     vdW  Elec       q    Type
REMARK                         _______ _______ _______ _____ _____    ______ ____
ROOT
ATOM      1  C   LIG    1       -4.814   2.354   0.062  0.00  0.00    +0.400 C 
ENDROOT
BRANCH   1   2
ATOM      2  C   LIG    1       -3.307   2.402   0.048  0.00  0.00    +0.270 A 
ATOM      3  N   LIG    1       -2.529   1.359   0.035  0.00  0.00    -0.480 NA
ATOM      4  C   LIG    1       -1.231   1.759   0.017  0.00  0.00    +0.050 A 
ATOM      5  C   LIG    1       -0.013   1.076   0.008  0.00  0.00    +0.070 A 
ATOM      6  C   LIG    1        1.161   1.776   0.001  0.00  0.00    +0.000 A 
ATOM      7  C   LIG    1        1.157   3.163   0.008  0.00  0.00    +0.030 A 
ATOM      8  C   LIG    1       -0.034   3.859   0.023  0.00  0.00    +0.010 A 
ATOM      9  C   LIG    1       -1.236   3.164   0.031  0.00  0.00    +0.050 A 
ATOM     10  N   LIG    1       -2.564   3.541   0.046  0.00  0.00    -0.480 N 
ATOM     11  C   LIG    1       -3.077   4.913   0.058  0.00  0.00    +0.330 C 
ENDBRANCH   1   2
BRANCH   1  15
ATOM     12  N   LIG    1       -6.894   0.548   2.498  0.00  0.00    -0.730 N 
ATOM     13  H   LIG    1       -6.312  -0.189   2.740  0.00  0.00    +0.400 HD
ATOM     14  C   LIG    1       -6.482   1.465   1.599  0.00  0.00    +0.710 C 
ATOM     15  N   LIG    1       -5.261   1.357   1.038  0.00  0.00    -0.730 N 
ATOM     16  H   LIG    1       -4.679   0.621   1.281  0.00  0.00    +0.410 HD
ATOM     17  O   LIG    1       -7.212   2.389   1.295  0.00  0.00    -0.580 OA
BRANCH  12  21
ATOM     18  C   LIG    1      -10.716   0.676   4.632  0.00  0.00    +0.040 C 
ATOM     19  C   LIG    1       -9.317   0.089   4.827  0.00  0.00    -0.030 C 
ATOM     20  C   LIG    1       -8.793  -0.675   3.599  0.00  0.00    +0.030 C 
ATOM     21  C   LIG    1       -8.221   0.665   3.107  0.00  0.00    +0.260 C 
ATOM     22  C   LIG    1       -8.185   1.101   4.582  0.00  0.00    +0.000 C 
ENDBRANCH  12  21
ENDBRANCH   1  15
BRANCH   1  23
ATOM     23  C   LIG    1       -5.317   1.977  -1.307  0.00  0.00    -0.100 A 
ATOM     24  C   LIG    1       -5.308   0.653  -1.707  0.00  0.00    +0.040 A 
ATOM     25  C   LIG    1       -5.774   0.307  -2.962  0.00  0.00    +0.000 A 
ATOM     26  C   LIG    1       -6.240   1.285  -3.820  0.00  0.00    +0.010 A 
ATOM     27  C   LIG    1       -6.245   2.609  -3.422  0.00  0.00    +0.000 A 
ATOM     28  C   LIG    1       -5.783   2.955  -2.166  0.00  0.00    +0.020 A 
ENDBRANCH   1  23
TORSDOF 4
