REMARK  Name = ZINCrD000000A7d2.0
REMARK                            x       y       z     vdW  Elec       q    Type
REMARK                         _______ _______ _______ _____ _____    ______ ____
ROOT
ATOM      1  C   LIG    1        5.855   3.919   2.146  0.00  0.00    +0.530 C 
ATOM      2  N   LIG    1        5.145   3.571   1.054  0.00  0.00    -0.610 N 
ATOM      3  C   LIG    1        5.543   4.042  -0.279  0.00  0.00    +0.260 C 
ATOM      4  C   LIG    1        5.681   2.832  -1.209  0.00  0.00    +0.010 C 
ATOM      5  C   LIG    1        4.379   2.027  -1.189  0.00  0.00    +0.030 C 
ATOM      6  C   LIG    1        4.113   1.520   0.230  0.00  0.00    +0.030 C 
ATOM      7  C   LIG    1        3.957   2.715   1.175  0.00  0.00    +0.290 C 
ATOM      8  O   LIG    1        5.464   3.604   3.250  0.00  0.00    -0.530 OA
ENDROOT
BRANCH   1  15
ATOM      9  O   LIG    1       10.603   3.603   3.345  0.00  0.00    -0.540 OA
ATOM     10  C   LIG    1       10.456   4.797   3.191  0.00  0.00    +0.550 C 
ATOM     11  N   LIG    1        9.215   5.317   3.112  0.00  0.00    -0.610 N 
ATOM     12  C   LIG    1        9.020   6.761   2.925  0.00  0.00    +0.260 C 
ATOM     13  C   LIG    1        8.112   6.983   1.710  0.00  0.00    +0.020 C 
ATOM     14  C   LIG    1        6.815   6.192   1.897  0.00  0.00    +0.040 C 
ATOM     15  C   LIG    1        7.136   4.699   1.994  0.00  0.00    -0.020 C 
ATOM     16  C   LIG    1        8.032   4.452   3.212  0.00  0.00    +0.310 C 
BRANCH  10  17
ATOM     17  C   LIG    1       11.659   5.698   3.087  0.00  0.00    -0.070 C 
ATOM     18  C   LIG    1       12.531   5.570   1.836  0.00  0.00    +0.060 C 
ATOM     19  C   LIG    1       13.040   5.046   3.182  0.00  0.00    +0.060 C 
ENDBRANCH  10  17
ENDBRANCH   1  15
BRANCH   6  20
ATOM     20  C   LIG    1        2.848   0.701   0.242  0.00  0.00    -0.060 A 
ATOM     21  C   LIG    1        1.650   1.276  -0.139  0.00  0.00    +0.040 A 
ATOM     22  C   LIG    1        0.488   0.527  -0.129  0.00  0.00    +0.030 A 
ATOM     23  C   LIG    1        0.523  -0.800   0.263  0.00  0.00    +0.070 A 
ATOM     24  C   LIG    1        1.725  -1.377   0.645  0.00  0.00    +0.070 A 
ATOM     25  F   LIG    1        1.762  -2.672   1.027  0.00  0.00    -0.130 F 
ATOM     26  F   LIG    1       -0.612  -1.533   0.272  0.00  0.00    -0.130 F 
ATOM     27  C   LIG    1        2.886  -0.624   0.633  0.00  0.00    +0.030 A 
ENDBRANCH   6  20
TORSDOF 3
