REMARK  Name = ZINCrD000000AKj4.0
REMARK                            x       y       z     vdW  Elec       q    Type
REMARK                         _______ _______ _______ _____ _____    ______ ____
ROOT
ATOM      1  O   LIG    1       -4.499   0.599   0.630  0.00  0.00    -0.510 OA
ATOM      2  C   LIG    1       -3.799  -0.104  -0.068  0.00  0.00    +0.530 C 
ATOM      3  N   LIG    1       -2.589   0.336  -0.466  0.00  0.00    -0.710 N 
ATOM      4  H   LIG    1       -2.057  -0.196  -1.079  0.00  0.00    +0.410 HD
ENDROOT
BRANCH   2   5
ATOM      5  C   LIG    1       -4.281  -1.468  -0.489  0.00  0.00    +0.000 C 
ATOM      6  C   LIG    1       -4.468  -1.540  -2.022  0.00  0.00    +0.070 C 
ATOM      7  C   LIG    1       -5.698  -2.402  -2.206  0.00  0.00    +0.520 C 
ATOM      8  N   LIG    1       -6.375  -2.494  -1.048  0.00  0.00    -0.610 N 
ATOM      9  O   LIG    1       -6.025  -2.932  -3.246  0.00  0.00    -0.510 OA
ATOM     10  C   LIG    1       -5.717  -1.727   0.017  0.00  0.00    +0.300 C 
BRANCH   8  11
ATOM     11  C   LIG    1       -7.610  -3.261  -0.872  0.00  0.00    +0.380 C 
BRANCH  11  12
ATOM     12  C   LIG    1       -7.272  -4.670  -0.456  0.00  0.00    +0.100 A 
ATOM     13  C   LIG    1       -7.261  -5.002   0.885  0.00  0.00    -0.030 A 
ATOM     14  C   LIG    1       -6.949  -6.301   1.257  0.00  0.00    +0.060 A 
ATOM     15  C   LIG    1       -6.657  -7.220   0.261  0.00  0.00    -0.030 A 
ATOM     16  C   LIG    1       -6.688  -6.815  -1.060  0.00  0.00    +0.260 A 
ATOM     17  N   LIG    1       -6.995  -5.572  -1.377  0.00  0.00    -0.460 NA
ENDBRANCH  11  12
ENDBRANCH   8  11
ENDBRANCH   2   5
BRANCH   3  18
ATOM     18  C   LIG    1       -2.076   1.617   0.026  0.00  0.00    +0.190 C 
ATOM     19  C   LIG    1       -0.626   1.904  -0.397  0.00  0.00    +0.050 C 
ATOM     20  C   LIG    1       -0.190   1.177   0.886  0.00  0.00    +0.020 C 
ATOM     21  C   LIG    1       -1.558   1.560   1.476  0.00  0.00    +0.040 C 
BRANCH  18  22
ATOM     22  C   LIG    1       -3.019   2.763  -0.234  0.00  0.00    -0.050 A 
ATOM     23  C   LIG    1       -3.943   2.680  -1.259  0.00  0.00    +0.030 A 
ATOM     24  C   LIG    1       -4.811   3.729  -1.494  0.00  0.00    +0.040 A 
ATOM     25  C   LIG    1       -4.748   4.868  -0.711  0.00  0.00    -0.090 A 
ATOM     26  C   LIG    1       -3.820   4.953   0.311  0.00  0.00    +0.040 A 
ATOM     27 BR   LIG    1       -5.931   6.306  -1.037  0.00  0.00    -0.050 Br
ATOM     28  C   LIG    1       -2.955   3.901   0.549  0.00  0.00    +0.020 A 
ENDBRANCH  18  22
ENDBRANCH   3  18
TORSDOF 5
