REMARK  Name = ZINCvU0000000DMo.0
REMARK                            x       y       z     vdW  Elec       q    Type
REMARK                         _______ _______ _______ _____ _____    ______ ____
ROOT
ATOM      1  C   LIG    1        1.888  -4.256  -0.231  0.00  0.00    +0.140 A 
ATOM      2  N   LIG    1        0.655  -4.208   0.220  0.00  0.00    -0.290 NA
ATOM      3  N   LIG    1        0.274  -2.986   0.334  0.00  0.00    -0.270 NA
ATOM      4  C   LIG    1        1.237  -2.179  -0.045  0.00  0.00    +0.240 A 
ATOM      5  N   LIG    1        2.302  -2.967  -0.416  0.00  0.00    -0.450 N 
ENDROOT
BRANCH   4   6
ATOM      6  C   LIG    1        1.189  -0.701  -0.065  0.00  0.00    -0.020 A 
ATOM      7  C   LIG    1       -0.039  -0.040  -0.018  0.00  0.00    +0.090 A 
ATOM      8  C   LIG    1       -0.078   1.339  -0.036  0.00  0.00    +0.030 A 
ATOM      9  C   LIG    1        1.099   2.067  -0.101  0.00  0.00    -0.020 A 
ATOM     10  C   LIG    1        2.320   1.416  -0.148  0.00  0.00    +0.030 A 
ATOM     11 CL   LIG    1        1.042   3.801  -0.123  0.00  0.00    -0.060 Cl
ATOM     12  C   LIG    1        2.371   0.037  -0.130  0.00  0.00    +0.070 A 
ENDBRANCH   4   6
BRANCH   1  13
ATOM     13  S   LIG    1        2.833  -5.711  -0.540  0.00  0.00    +0.090 S 
BRANCH  13  14
ATOM     14  C   LIG    1        1.627  -6.975  -0.065  0.00  0.00    +0.110 C 
BRANCH  14  16
ATOM     15  O   LIG    1        3.367  -8.451  -0.665  0.00  0.00    -0.450 OA
ATOM     16  C   LIG    1        2.232  -8.342  -0.252  0.00  0.00    +0.530 C 
ATOM     17  N   LIG    1        1.512  -9.443   0.040  0.00  0.00    -0.650 N 
ATOM     18  H   LIG    1        0.604  -9.356   0.371  0.00  0.00    +0.430 HD
BRANCH  17  19
ATOM     19  C   LIG    1        2.072 -10.709  -0.133  0.00  0.00    +0.380 A 
ATOM     20  N   LIG    1        3.309 -10.821  -0.589  0.00  0.00    -0.450 NA
ATOM     21  C   LIG    1        3.879 -11.999  -0.762  0.00  0.00    +0.340 A 
ATOM     22  C   LIG    1        3.195 -13.166  -0.481  0.00  0.00    -0.110 A 
ATOM     23  C   LIG    1        1.892 -13.092  -0.005  0.00  0.00    +0.130 A 
ATOM     24 CL   LIG    1        3.955 -14.708  -0.721  0.00  0.00    -0.040 Cl
ATOM     25  C   LIG    1        1.323 -11.842   0.171  0.00  0.00    -0.120 A 
ATOM     26 CL   LIG    1       -0.302 -11.689   0.762  0.00  0.00    -0.040 Cl
ENDBRANCH  17  19
ENDBRANCH  14  16
ENDBRANCH  13  14
ENDBRANCH   1  13
BRANCH   5  27
ATOM     27  C   LIG    1        3.608  -2.518  -0.905  0.00  0.00    +0.330 C 
BRANCH  27  28
ATOM     28  C   LIG    1        4.603  -2.483   0.256  0.00  0.00    +0.140 C 
ATOM     29  C   LIG    1        5.984  -2.022  -0.251  0.00  0.00    +0.030 C 
ATOM     30  C   LIG    1        6.292  -0.757   0.586  0.00  0.00    +0.010 C 
ATOM     31  C   LIG    1        5.360  -0.942   1.811  0.00  0.00    +0.210 C 
ATOM     32  O   LIG    1        4.170  -1.531   1.242  0.00  0.00    -0.360 OA
ENDBRANCH  27  28
ENDBRANCH   5  27
TORSDOF 7
