REMARK  Name = ZINCrH000004rZtw.0
REMARK                            x       y       z     vdW  Elec       q    Type
REMARK                         _______ _______ _______ _____ _____    ______ ____
ROOT
ATOM      1  N   LIG    1       -4.699  -1.058  -0.869  0.00  0.00    -0.620 N 
ATOM      2  H   LIG    1       -4.790  -1.999  -0.650  0.00  0.00    +0.430 HD
ATOM      3  C   LIG    1       -3.536  -0.420  -0.629  0.00  0.00    +0.610 C 
ATOM      4  O   LIG    1       -3.422   0.760  -0.904  0.00  0.00    -0.460 OA
ENDROOT
BRANCH   1   8
ATOM      5  C   LIG    1       -7.830  -0.069  -2.236  0.00  0.00    +0.130 A 
ATOM      6  C   LIG    1       -7.423   1.199  -2.431  0.00  0.00    -0.110 A 
ATOM      7  S   LIG    1       -5.758   1.335  -1.872  0.00  0.00    +0.210 S 
ATOM      8  C   LIG    1       -5.766  -0.369  -1.429  0.00  0.00    +0.270 A 
ATOM      9  N   LIG    1       -6.927  -0.879  -1.702  0.00  0.00    -0.490 NA
BRANCH   5  16
ATOM     10  C   LIG    1       -8.170  -2.513  -3.747  0.00  0.00    +0.090 C 
ATOM     11  C   LIG    1       -9.368  -1.704  -3.322  0.00  0.00    -0.050 A 
ATOM     12  C   LIG    1      -10.640  -2.128  -3.648  0.00  0.00    +0.010 A 
ATOM     13  C   LIG    1      -11.740  -1.383  -3.263  0.00  0.00    +0.010 A 
ATOM     14  C   LIG    1      -11.573  -0.213  -2.545  0.00  0.00    +0.000 A 
ATOM     15  C   LIG    1      -10.306   0.219  -2.209  0.00  0.00    +0.020 A 
ATOM     16  C   LIG    1       -9.194  -0.527  -2.594  0.00  0.00    -0.030 A 
ENDBRANCH   5  16
ENDBRANCH   1   8
BRANCH   3  17
ATOM     17  C   LIG    1       -2.409  -1.147  -0.038  0.00  0.00    -0.070 A 
ATOM     18  C   LIG    1       -1.210  -0.607   0.331  0.00  0.00    -0.060 A 
ATOM     19  C   LIG    1       -0.433  -1.659   0.842  0.00  0.00    -0.060 A 
ATOM     20  C   LIG    1       -1.186  -2.779   0.771  0.00  0.00    +0.230 A 
ATOM     21  O   LIG    1       -2.374  -2.467   0.237  0.00  0.00    -0.160 OA
BRANCH  18  22
ATOM     22  C   LIG    1       -0.798   0.837   0.208  0.00  0.00    +0.270 C 
BRANCH  22  23
ATOM     23  N   LIG    1       -0.542   1.155  -1.203  0.00  0.00    -0.520 NA
ATOM     24  C   LIG    1        0.708   0.532  -1.665  0.00  0.00    +0.140 C 
ATOM     25  C   LIG    1        0.905   0.838  -3.152  0.00  0.00    +0.220 C 
ATOM     26  O   LIG    1        0.902   2.255  -3.346  0.00  0.00    -0.390 OA
ATOM     27  C   LIG    1       -0.300   2.894  -2.909  0.00  0.00    +0.220 C 
ATOM     28  C   LIG    1       -0.510   2.609  -1.419  0.00  0.00    +0.150 C 
ENDBRANCH  22  23
ENDBRANCH  18  22
ENDBRANCH   3  17
TORSDOF 5
