REMARK  Name = ZINCrH00000No580.0
REMARK                            x       y       z     vdW  Elec       q    Type
REMARK                         _______ _______ _______ _____ _____    ______ ____
ROOT
ATOM      1  N   LIG    1       -4.525   2.806   6.165  0.00  0.00    -0.640 N 
ATOM      2  H   LIG    1       -4.356   3.504   6.817  0.00  0.00    +0.420 HD
ATOM      3  C   LIG    1       -3.529   2.376   5.365  0.00  0.00    +0.720 C 
ATOM      4  N   LIG    1       -2.299   2.917   5.471  0.00  0.00    -0.650 N 
ATOM      5  C   LIG    1       -1.699   3.965   6.321  0.00  0.00    +0.270 C 
ATOM      6  C   LIG    1       -0.670   4.136   5.196  0.00  0.00    -0.080 C 
ATOM      7  C   LIG    1       -1.064   5.186   4.159  0.00  0.00    +0.040 C 
ATOM      8  C   LIG    1       -0.776   6.579   4.729  0.00  0.00    +0.200 C 
ATOM      9  O   LIG    1        0.594   6.652   5.130  0.00  0.00    -0.380 OA
ATOM     10  C   LIG    1        0.949   5.750   6.181  0.00  0.00    +0.210 C 
ATOM     11  C   LIG    1        0.763   4.308   5.696  0.00  0.00    +0.020 C 
ATOM     12  C   LIG    1       -1.011   2.699   4.781  0.00  0.00    +0.360 C 
ATOM     13  O   LIG    1       -3.740   1.501   4.548  0.00  0.00    -0.510 OA
ENDROOT
BRANCH   1  18
ATOM     14  C   LIG    1       -9.602   1.245   6.415  0.00  0.00    +0.160 C 
ATOM     15  C   LIG    1       -8.141   1.514   6.160  0.00  0.00    -0.240 A 
ATOM     16  C   LIG    1       -7.378   0.899   5.255  0.00  0.00    +0.240 A 
ATOM     17  N   LIG    1       -6.126   1.317   5.218  0.00  0.00    -0.470 NA
ATOM     18  C   LIG    1       -5.793   2.248   6.056  0.00  0.00    +0.290 A 
ATOM     19  S   LIG    1       -7.144   2.696   7.004  0.00  0.00    +0.120 S 
ENDBRANCH   1  18
BRANCH  12  20
ATOM     20  C   LIG    1       -1.143   2.511   3.292  0.00  0.00    -0.240 A 
ATOM     21  C   LIG    1       -0.203   1.992   2.469  0.00  0.00    +0.240 A 
ATOM     22  N   LIG    1       -0.704   1.998   1.216  0.00  0.00    -0.360 N 
ATOM     23  N   LIG    1       -1.999   2.531   1.272  0.00  0.00    -0.290 NA
ATOM     24  C   LIG    1       -2.260   2.838   2.517  0.00  0.00    +0.260 A 
BRANCH  22  25
ATOM     25  C   LIG    1       -0.019   1.526   0.010  0.00  0.00    +0.180 C 
ATOM     26  C   LIG    1       -0.759   2.033  -1.229  0.00  0.00    +0.060 C 
ATOM     27  C   LIG    1        1.417   2.055  -0.000  0.00  0.00    +0.050 C 
ATOM     28  C   LIG    1        0.002  -0.004   0.002  0.00  0.00    +0.050 C 
ENDBRANCH  22  25
ENDBRANCH  12  20
TORSDOF 3
