REMARK  Name = ZINCtV000002szvf.0
REMARK                            x       y       z     vdW  Elec       q    Type
REMARK                         _______ _______ _______ _____ _____    ______ ____
ROOT
ATOM      1  C   LIG    1       -3.544  -4.795  -1.291  0.00  0.00    +0.290 C 
ENDROOT
BRANCH   1   4
ATOM      2  C   LIG    1       -2.781  -7.343  -3.778  0.00  0.00    +0.120 A 
ATOM      3  N   LIG    1       -3.035  -6.167  -3.280  0.00  0.00    -0.450 NA
ATOM      4  C   LIG    1       -3.246  -6.099  -1.986  0.00  0.00    +0.080 A 
ATOM      5  C   LIG    1       -3.184  -7.259  -1.324  0.00  0.00    -0.070 A 
ATOM      6  S   LIG    1       -2.815  -8.535  -2.482  0.00  0.00    +0.090 S 
BRANCH   2  10
ATOM      7  C   LIG    1       -2.008  -8.173  -7.872  0.00  0.00    -0.060 A 
ATOM      8  C   LIG    1       -2.007  -9.203  -6.948  0.00  0.00    +0.010 A 
ATOM      9  C   LIG    1       -2.257  -8.940  -5.617  0.00  0.00    +0.030 A 
ATOM     10  C   LIG    1       -2.511  -7.632  -5.203  0.00  0.00    -0.040 A 
ATOM     11  C   LIG    1       -2.517  -6.598  -6.141  0.00  0.00    +0.080 A 
ATOM     12  C   LIG    1       -2.260  -6.874  -7.468  0.00  0.00    +0.010 A 
BRANCH   7  14
ATOM     13  C   LIG    1       -2.939  -8.043 -10.166  0.00  0.00    +0.030 C 
ATOM     14  C   LIG    1       -1.734  -8.467  -9.324  0.00  0.00    +0.020 C 
ATOM     15  C   LIG    1       -0.496  -7.691  -9.777  0.00  0.00    +0.030 C 
ENDBRANCH   7  14
ENDBRANCH   2  10
ENDBRANCH   1   4
BRANCH   1  16
ATOM     16  N   LIG    1       -2.284  -4.119  -0.956  0.00  0.00    -0.520 NA
ATOM     17  C   LIG    1       -1.526  -4.883   0.044  0.00  0.00    +0.190 C 
BRANCH  16  18
ATOM     18  C   LIG    1       -2.530  -2.746  -0.494  0.00  0.00    +0.220 C 
BRANCH  18  19
ATOM     19  C   LIG    1       -1.220  -2.007  -0.396  0.00  0.00    +0.520 C 
ATOM     20  N   LIG    1       -1.200  -0.722   0.010  0.00  0.00    -0.690 N 
ATOM     21  H   LIG    1       -2.018  -0.295   0.308  0.00  0.00    +0.410 HD
ATOM     22  O   LIG    1       -0.184  -2.569  -0.682  0.00  0.00    -0.490 OA
BRANCH  20  23
ATOM     23  C   LIG    1        0.002  -0.004   0.002  0.00  0.00    +0.150 A 
ATOM     24  C   LIG    1        0.387   0.696  -1.135  0.00  0.00    -0.020 A 
ATOM     25  C   LIG    1        1.574   1.404  -1.140  0.00  0.00    +0.050 A 
ATOM     26  C   LIG    1        2.378   1.417  -0.015  0.00  0.00    +0.060 A 
ATOM     27  C   LIG    1        1.998   0.722   1.119  0.00  0.00    +0.050 A 
ATOM     28 CL   LIG    1       -0.618   0.675  -2.551  0.00  0.00    -0.040 Cl
ATOM     29  C   LIG    1        0.812   0.011   1.130  0.00  0.00    -0.020 A 
ATOM     30 CL   LIG    1        0.336  -0.861   2.554  0.00  0.00    -0.050 Cl
ENDBRANCH  20  23
ENDBRANCH  18  19
ENDBRANCH  16  18
ENDBRANCH   1  16
TORSDOF 7
