REMARK  Name = ZINCrH000004oNJV.0
REMARK                            x       y       z     vdW  Elec       q    Type
REMARK                         _______ _______ _______ _____ _____    ______ ____
ROOT
ATOM      1  N   LIG    1       -0.415   3.821  -1.062  0.00  0.00    -0.740 N 
ATOM      2  H   LIG    1        0.297   4.349  -1.456  0.00  0.00    +0.400 HD
ATOM      3  C   LIG    1       -0.480   2.496  -1.296  0.00  0.00    +0.710 C 
ATOM      4  N   LIG    1        0.489   1.889  -2.010  0.00  0.00    -0.620 N 
ATOM      5  C   LIG    1        1.716   2.612  -2.371  0.00  0.00    +0.260 C 
ATOM      6  C   LIG    1        1.915   2.519  -3.887  0.00  0.00    +0.010 C 
ATOM      7  C   LIG    1        1.904   1.049  -4.311  0.00  0.00    +0.020 C 
ATOM      8  C   LIG    1        0.550   0.426  -3.962  0.00  0.00    +0.010 C 
ATOM      9  C   LIG    1        0.336   0.494  -2.446  0.00  0.00    +0.260 C 
ATOM     10  O   LIG    1       -1.413   1.847  -0.864  0.00  0.00    -0.570 OA
ENDROOT
BRANCH   9  11
ATOM     11  C   LIG    1       -1.071   0.001  -2.104  0.00  0.00    +0.030 C 
ATOM     12  C   LIG    1       -2.139   0.773  -2.911  0.00  0.00    +0.260 C 
ATOM     13  N   LIG    1       -3.177  -0.214  -3.229  0.00  0.00    -0.730 N 
ATOM     14  H   LIG    1       -4.075   0.011  -3.519  0.00  0.00    +0.410 HD
ATOM     15  C   LIG    1       -2.724  -1.469  -3.069  0.00  0.00    +0.520 C 
ATOM     16  O   LIG    1       -3.374  -2.474  -3.270  0.00  0.00    -0.540 OA
ATOM     17  C   LIG    1       -1.286  -1.447  -2.600  0.00  0.00    +0.040 C 
ENDBRANCH   9  11
BRANCH   1  18
ATOM     18  C   LIG    1       -1.420   4.465  -0.213  0.00  0.00    +0.340 C 
BRANCH  18  19
ATOM     19  C   LIG    1       -2.618   4.840  -1.048  0.00  0.00    -0.080 A 
ATOM     20  C   LIG    1       -2.440   5.356  -2.318  0.00  0.00    +0.030 A 
ATOM     21  C   LIG    1       -3.538   5.695  -3.087  0.00  0.00    +0.020 A 
ATOM     22  C   LIG    1       -4.814   5.527  -2.580  0.00  0.00    -0.030 A 
ATOM     23  C   LIG    1       -4.991   5.016  -1.307  0.00  0.00    +0.020 A 
ATOM     24 CL   LIG    1       -6.194   5.958  -3.542  0.00  0.00    -0.070 Cl
ATOM     25  C   LIG    1       -3.893   4.672  -0.542  0.00  0.00    +0.040 A 
ENDBRANCH  18  19
BRANCH  18  29
ATOM     26  C   LIG    1       -0.039   4.170   2.368  0.00  0.00    +0.060 C 
ATOM     27  C   LIG    1       -0.106   5.572   1.760  0.00  0.00    -0.030 C 
ATOM     28  C   LIG    1       -1.475   6.251   1.698  0.00  0.00    +0.040 C 
ATOM     29  C   LIG    1       -0.824   5.725   0.417  0.00  0.00    -0.060 C 
ENDBRANCH  18  29
ENDBRANCH   1  18
TORSDOF 4
