REMARK  Name = ZINCrH000004mkKP.0
REMARK                            x       y       z     vdW  Elec       q    Type
REMARK                         _______ _______ _______ _____ _____    ______ ____
ROOT
ATOM      1  C   LIG    1        5.155  -5.689  -3.215  0.00  0.00    +0.110 A 
ATOM      2  C   LIG    1        4.003  -6.385  -2.901  0.00  0.00    -0.030 A 
ATOM      3  C   LIG    1        3.140  -5.918  -1.916  0.00  0.00    -0.060 A 
ATOM      4  C   LIG    1        3.441  -4.755  -1.243  0.00  0.00    -0.100 A 
ATOM      5  C   LIG    1        2.557  -4.202  -0.158  0.00  0.00    +0.330 C 
ATOM      6  N   LIG    1        1.279  -4.920  -0.140  0.00  0.00    -0.610 N 
ATOM      7  C   LIG    1        1.327  -6.387  -0.261  0.00  0.00    +0.290 C 
ATOM      8  C   LIG    1        0.107  -4.265  -0.023  0.00  0.00    +0.570 C 
ATOM      9  O   LIG    1       -0.933  -4.889   0.060  0.00  0.00    -0.510 OA
ATOM     10  C   LIG    1        4.596  -4.050  -1.558  0.00  0.00    -0.030 A 
ATOM     11  C   LIG    1        1.900  -6.726  -1.637  0.00  0.00    +0.080 C 
ATOM     12  C   LIG    1        5.454  -4.510  -2.539  0.00  0.00    +0.100 A 
ENDROOT
BRANCH   8  13
ATOM     13  C   LIG    1        0.087  -2.789   0.003  0.00  0.00    -0.150 A 
ATOM     14  C   LIG    1        0.914  -2.105   0.878  0.00  0.00    +0.080 A 
ATOM     15  C   LIG    1        0.890  -0.703   0.900  0.00  0.00    -0.070 A 
ATOM     16  C   LIG    1        1.717   0.023   1.775  0.00  0.00    +0.030 A 
ATOM     17  C   LIG    1        1.672   1.383   1.772  0.00  0.00    +0.010 A 
ATOM     18  C   LIG    1        0.816   2.070   0.912  0.00  0.00    +0.030 A 
ATOM     19  C   LIG    1        0.001   1.401   0.051  0.00  0.00    +0.020 A 
ATOM     20  C   LIG    1        0.019  -0.004   0.025  0.00  0.00    -0.020 A 
ATOM     21  C   LIG    1       -0.810  -0.721  -0.854  0.00  0.00    +0.000 A 
ATOM     22  C   LIG    1       -0.776  -2.084  -0.863  0.00  0.00    +0.150 A 
BRANCH  22  23
ATOM     23  O   LIG    1       -1.580  -2.771  -1.714  0.00  0.00    -0.480 OA
ATOM     24  H   LIG    1       -1.180  -2.950  -2.576  0.00  0.00    +0.390 HD
ENDBRANCH  22  23
ENDBRANCH   8  13
BRANCH   1  26
ATOM     25  C   LIG    1        5.620  -7.372  -4.831  0.00  0.00    +0.250 C 
ATOM     26  O   LIG    1        5.992  -6.155  -4.180  0.00  0.00    -0.310 OA
ENDBRANCH   1  26
BRANCH  12  27
ATOM     27  O   LIG    1        6.582  -3.815  -2.842  0.00  0.00    -0.300 OA
ATOM     28  C   LIG    1        6.822  -2.613  -2.106  0.00  0.00    +0.250 C 
ENDBRANCH  12  27
TORSDOF 4
