REMARK  Name = ZINCb80000003VS7.0
REMARK                            x       y       z     vdW  Elec       q    Type
REMARK                         _______ _______ _______ _____ _____    ______ ____
ROOT
ATOM      1  C   LIG    1        0.658   5.492   0.188  0.00  0.00    +0.090 C 
ATOM      2  C   LIG    1        0.404   4.004   0.440  0.00  0.00    +0.140 C 
ATOM      3  C   LIG    1        1.635   3.196   0.007  0.00  0.00    +0.300 C 
ATOM      4  N   LIG    1        1.268   1.776  -0.001  0.00  0.00    -0.370 N 
ATOM      5  N   LIG    1        2.104   0.662  -0.017  0.00  0.00    -0.340 NA
ATOM      6  C   LIG    1        1.348  -0.414  -0.015  0.00  0.00    +0.340 A 
ATOM      7  C   LIG    1        0.002  -0.004   0.002  0.00  0.00    -0.140 A 
ATOM      8  C   LIG    1       -0.016   1.340   0.009  0.00  0.00    +0.060 A 
ATOM      9  C   LIG    1       -1.205   2.268   0.020  0.00  0.00    +0.330 C 
ATOM     10  O   LIG    1       -0.739   3.583  -0.311  0.00  0.00    -0.370 OA
ENDROOT
BRANCH   6  11
ATOM     11  N   LIG    1        1.803  -1.738  -0.028  0.00  0.00    -0.850 N 
ATOM     12  H   LIG    1        2.755  -1.923  -0.039  0.00  0.00    +0.400 HD
ATOM     13  H   LIG    1        1.167  -2.470  -0.025  0.00  0.00    +0.410 HD
ENDBRANCH   6  11
TORSDOF 1
