REMARK  Name = ZINCrD0000070VHk.0
REMARK                            x       y       z     vdW  Elec       q    Type
REMARK                         _______ _______ _______ _____ _____    ______ ____
ROOT
ATOM      1  C   LIG    1       -3.724  -4.935   8.569  0.00  0.00    +0.180 C 
ATOM      2  C   LIG    1       -3.892  -3.420   8.699  0.00  0.00    +0.020 C 
ATOM      3  C   LIG    1       -3.986  -2.796   7.305  0.00  0.00    +0.000 C 
ATOM      4  C   LIG    1       -5.190  -3.382   6.564  0.00  0.00    +0.030 C 
ATOM      5  C   LIG    1       -5.021  -4.897   6.435  0.00  0.00    +0.000 C 
ATOM      6  C   LIG    1       -3.743  -5.203   5.652  0.00  0.00    +0.050 C 
ATOM      7  C   LIG    1       -2.539  -4.617   6.393  0.00  0.00    -0.030 C 
ATOM      8  C   LIG    1       -2.708  -3.102   6.522  0.00  0.00    +0.050 C 
ATOM      9  C   LIG    1       -2.445  -5.241   7.787  0.00  0.00    +0.060 C 
ATOM     10  C   LIG    1       -4.928  -5.521   7.829  0.00  0.00    +0.020 C 
ENDROOT
BRANCH   1  13
ATOM     11  C   LIG    1       -4.560  -6.006  12.148  0.00  0.00    +0.080 C 
ATOM     12  C   LIG    1       -4.653  -5.391  10.775  0.00  0.00    +0.510 C 
ATOM     13  N   LIG    1       -3.634  -5.532   9.904  0.00  0.00    -0.730 N 
ATOM     14  H   LIG    1       -2.842  -6.029  10.161  0.00  0.00    +0.400 HD
ATOM     15  O   LIG    1       -5.644  -4.770  10.454  0.00  0.00    -0.540 OA
ENDBRANCH   1  13
BRANCH   7  16
ATOM     16  C   LIG    1       -1.280  -4.919   5.622  0.00  0.00    +0.470 C 
ATOM     17  O   LIG    1       -0.398  -5.566   6.135  0.00  0.00    -0.510 OA
BRANCH  16  18
ATOM     18  O   LIG    1       -1.138  -4.468   4.365  0.00  0.00    -0.340 OA
BRANCH  18  19
ATOM     19  C   LIG    1        0.101  -4.796   3.683  0.00  0.00    +0.240 C 
BRANCH  19  20
ATOM     20  C   LIG    1        0.080  -4.202   2.274  0.00  0.00    +0.230 C 
BRANCH  20  21
ATOM     21  O   LIG    1        0.062  -2.775   2.358  0.00  0.00    -0.310 OA
BRANCH  21  22
ATOM     22  C   LIG    1        0.042  -2.088   1.186  0.00  0.00    +0.130 A 
ATOM     23  C   LIG    1        0.040  -2.772  -0.020  0.00  0.00    -0.090 A 
ATOM     24  C   LIG    1        0.019  -2.071  -1.211  0.00  0.00    +0.050 A 
ATOM     25  C   LIG    1       -0.006  -0.689  -1.200  0.00  0.00    -0.040 A 
ATOM     26  C   LIG    1        0.002  -0.004   0.002  0.00  0.00    -0.050 A 
ATOM     27  C   LIG    1       -0.018   1.503   0.010  0.00  0.00    +0.090 C 
ATOM     28  C   LIG    1        0.023  -0.700   1.195  0.00  0.00    -0.020 A 
ENDBRANCH  21  22
ENDBRANCH  20  21
ENDBRANCH  19  20
ENDBRANCH  18  19
ENDBRANCH  16  18
ENDBRANCH   7  16
TORSDOF 7
