REMARK  Name = ZINCrD00000l2WZk.0
REMARK                            x       y       z     vdW  Elec       q    Type
REMARK                         _______ _______ _______ _____ _____    ______ ____
ROOT
ATOM      1  C   LIG    1       -4.122  -0.190  -2.599  0.00  0.00    -0.080 A 
ATOM      2  C   LIG    1       -3.490   0.556  -3.602  0.00  0.00    +0.060 A 
ATOM      3  C   LIG    1       -4.159   0.887  -4.747  0.00  0.00    +0.100 A 
ATOM      4  C   LIG    1       -5.483   0.489  -4.916  0.00  0.00    -0.170 A 
ATOM      5  C   LIG    1       -6.249   0.824  -6.126  0.00  0.00    +0.550 A 
ATOM      6  N   LIG    1       -7.535   0.395  -6.204  0.00  0.00    -0.560 N 
ATOM      7  C   LIG    1       -8.505   0.599  -7.294  0.00  0.00    +0.280 C 
ATOM      8  C   LIG    1       -9.612  -0.450  -7.066  0.00  0.00    +0.070 C 
ATOM      9  C   LIG    1       -9.522  -0.680  -5.543  0.00  0.00    +0.160 C 
ATOM     10  C   LIG    1       -8.086  -0.326  -5.191  0.00  0.00    +0.390 A 
ATOM     11  N   LIG    1       -7.423  -0.633  -4.108  0.00  0.00    -0.520 NA
ATOM     12  O   LIG    1       -5.746   1.467  -7.029  0.00  0.00    -0.500 OA
ATOM     13  C   LIG    1       -6.137  -0.260  -3.912  0.00  0.00    +0.160 A 
ATOM     14  C   LIG    1       -5.443  -0.597  -2.749  0.00  0.00    +0.120 A 
ENDROOT
BRANCH   1  16
ATOM     15  O   LIG    1       -3.924  -1.186  -0.495  0.00  0.00    -0.490 OA
ATOM     16  C   LIG    1       -3.379  -0.543  -1.369  0.00  0.00    +0.510 C 
BRANCH  16  17
ATOM     17  O   LIG    1       -2.099  -0.152  -1.220  0.00  0.00    -0.340 OA
BRANCH  17  18
ATOM     18  C   LIG    1       -1.433  -0.534   0.013  0.00  0.00    +0.260 C 
BRANCH  18  19
ATOM     19  C   LIG    1        0.002  -0.004   0.002  0.00  0.00    +0.230 C 
BRANCH  19  20
ATOM     20  O   LIG    1       -0.017   1.425   0.010  0.00  0.00    -0.300 OA
BRANCH  20  21
ATOM     21  C   LIG    1        1.185   2.058   0.002  0.00  0.00    +0.150 A 
ATOM     22  C   LIG    1        2.359   1.319  -0.008  0.00  0.00    -0.070 A 
ATOM     23  C   LIG    1        3.580   1.965  -0.020  0.00  0.00    +0.090 A 
ATOM     24  C   LIG    1        3.633   3.348  -0.014  0.00  0.00    -0.130 A 
ATOM     25  C   LIG    1        2.463   4.086   0.001  0.00  0.00    +0.090 A 
ATOM     26 BR   LIG    1        5.306   4.229  -0.024  0.00  0.00    -0.050 Br
ATOM     27  C   LIG    1        1.240   3.444   0.009  0.00  0.00    +0.000 A 
ENDBRANCH  20  21
ENDBRANCH  19  20
ENDBRANCH  18  19
ENDBRANCH  17  18
ENDBRANCH  16  17
ENDBRANCH   1  16
TORSDOF 6
