REMARK  Name = ZINCrH000004sHNI.1
REMARK                            x       y       z     vdW  Elec       q    Type
REMARK                         _______ _______ _______ _____ _____    ______ ____
ROOT
ATOM      1  N   LIG    1        1.139   0.527  -0.753  0.00  0.00    -0.650 NA
ATOM      2  H   LIG    1        1.826  -0.061  -1.201  0.00  0.00    +0.350 HD
ENDROOT
BRANCH   1   3
ATOM      3  C   LIG    1        1.749   1.770  -0.264  0.00  0.00    +0.180 C 
ATOM      4  C   LIG    1        2.782   2.265  -1.278  0.00  0.00    +0.030 C 
BRANCH   3   7
ATOM      5  N   LIG    1        3.058   2.513   1.699  0.00  0.00    -0.650 N 
ATOM      6  H   LIG    1        3.139   3.383   1.279  0.00  0.00    +0.400 HD
ATOM      7  C   LIG    1        2.427   1.511   1.057  0.00  0.00    +0.520 C 
ATOM      8  O   LIG    1        2.403   0.399   1.543  0.00  0.00    -0.500 OA
BRANCH   5  16
ATOM      9  C   LIG    1        1.415   1.591   4.180  0.00  0.00    +0.150 C 
ATOM     10  C   LIG    1        2.893   1.883   4.118  0.00  0.00    +0.090 A 
ATOM     11  N   LIG    1        3.734   1.790   5.115  0.00  0.00    -0.290 NA
ATOM     12  N   LIG    1        5.007   2.150   4.654  0.00  0.00    -0.370 N 
ATOM     13  C   LIG    1        4.901   2.459   3.336  0.00  0.00    +0.080 A 
ATOM     14  C   LIG    1        6.022   2.902   2.432  0.00  0.00    +0.140 C 
ATOM     15  C   LIG    1        6.234   2.188   5.452  0.00  0.00    +0.360 C 
ATOM     16  C   LIG    1        3.601   2.298   2.980  0.00  0.00    -0.010 A 
ENDBRANCH   5  16
ENDBRANCH   3   7
ENDBRANCH   1   3
BRANCH   1  17
ATOM     17  C   LIG    1        0.019   0.812  -1.660  0.00  0.00    +0.270 C 
BRANCH  17  18
ATOM     18  C   LIG    1       -0.938  -0.352  -1.658  0.00  0.00    -0.060 A 
ATOM     19  C   LIG    1       -0.452  -1.646  -1.644  0.00  0.00    +0.030 A 
ATOM     20  C   LIG    1       -1.329  -2.714  -1.637  0.00  0.00    +0.000 A 
ATOM     21  C   LIG    1       -2.693  -2.488  -1.656  0.00  0.00    +0.000 A 
ATOM     22  C   LIG    1       -3.179  -1.194  -1.676  0.00  0.00    +0.000 A 
ATOM     23  C   LIG    1       -2.301  -0.126  -1.677  0.00  0.00    +0.010 A 
ENDBRANCH  17  18
BRANCH  17  24
ATOM     24  C   LIG    1        0.545   1.028  -3.056  0.00  0.00    -0.110 A 
ATOM     25  C   LIG    1        1.570   0.236  -3.538  0.00  0.00    +0.010 A 
ATOM     26  C   LIG    1        2.049   0.431  -4.820  0.00  0.00    +0.010 A 
ATOM     27  C   LIG    1        1.510   1.424  -5.616  0.00  0.00    +0.000 A 
ATOM     28  C   LIG    1        0.489   2.220  -5.132  0.00  0.00    +0.000 A 
ATOM     29  C   LIG    1        0.006   2.022  -3.852  0.00  0.00    +0.010 A 
ENDBRANCH  17  24
ENDBRANCH   1  17
TORSDOF 6
