REMARK  Name = ZINCkj000005j9BA.0
REMARK                            x       y       z     vdW  Elec       q    Type
REMARK                         _______ _______ _______ _____ _____    ______ ____
ROOT
ATOM      1  N   LIG    1        3.021  -3.412   4.687  0.00  0.00    -0.710 N 
ATOM      2  H   LIG    1        2.368  -3.971   4.239  0.00  0.00    +0.410 HD
ATOM      3  C   LIG    1        3.188  -2.130   4.305  0.00  0.00    +0.550 C 
ATOM      4  O   LIG    1        4.007  -1.430   4.867  0.00  0.00    -0.530 OA
ENDROOT
BRANCH   3   5
ATOM      5  C   LIG    1        2.373  -1.576   3.202  0.00  0.00    -0.100 A 
ATOM      6  C   LIG    1        1.431  -2.376   2.554  0.00  0.00    +0.060 A 
ATOM      7  C   LIG    1        0.678  -1.849   1.527  0.00  0.00    +0.040 A 
ATOM      8  C   LIG    1        0.849  -0.529   1.132  0.00  0.00    -0.120 A 
ATOM      9  C   LIG    1        0.002  -0.004   0.002  0.00  0.00    +0.320 C 
ATOM     10  N   LIG    1       -0.018   1.461   0.010  0.00  0.00    -0.510 N 
ATOM     11  C   LIG    1        1.366   1.959  -0.001  0.00  0.00    +0.280 C 
ATOM     12  C   LIG    1        1.985   1.707   1.375  0.00  0.00    +0.130 C 
ATOM     13  H   LIG    1       -0.488   1.788   0.841  0.00  0.00    +0.430 HD
ATOM     14  H   LIG    1       -0.503   1.797  -0.808  0.00  0.00    +0.440 HD
ATOM     15  C   LIG    1        1.778   0.267   1.772  0.00  0.00    -0.100 A 
ATOM     16  C   LIG    1        2.541  -0.251   2.803  0.00  0.00    +0.100 A 
ENDBRANCH   3   5
BRANCH   1  18
ATOM     17  C   LIG    1        5.167  -4.453   5.227  0.00  0.00    +0.040 C 
ATOM     18  C   LIG    1        3.828  -3.961   5.780  0.00  0.00    +0.270 C 
BRANCH  18  19
ATOM     19  C   LIG    1        3.083  -5.130   6.427  0.00  0.00    +0.100 C 
ATOM     20  C   LIG    1        1.926  -4.692   7.341  0.00  0.00    -0.010 C 
ATOM     21  C   LIG    1        2.368  -5.812   8.300  0.00  0.00    +0.010 C 
ATOM     22  C   LIG    1        3.772  -5.677   7.688  0.00  0.00    +0.020 C 
BRANCH  19  23
ATOM     23  O   LIG    1        2.718  -6.143   5.487  0.00  0.00    -0.540 OA
ATOM     24  H   LIG    1        2.246  -6.891   5.879  0.00  0.00    +0.390 HD
ENDBRANCH  19  23
ENDBRANCH  18  19
ENDBRANCH   1  18
TORSDOF 4
