REMARK  Name = ZINCrH000004p6tI.0
REMARK                            x       y       z     vdW  Elec       q    Type
REMARK                         _______ _______ _______ _____ _____    ______ ____
ROOT
ATOM      1  N   LIG    1       -0.749   3.044   1.275  0.00  0.00    -0.720 N 
ATOM      2  H   LIG    1       -1.520   3.521   0.930  0.00  0.00    +0.400 HD
ATOM      3  C   LIG    1        0.305   3.730   1.762  0.00  0.00    +0.500 C 
ATOM      4  O   LIG    1        1.269   3.134   2.193  0.00  0.00    -0.520 OA
ENDROOT
BRANCH   1   6
ATOM      5  C   LIG    1       -0.013   1.086   0.008  0.00  0.00    +0.030 C 
ATOM      6  C   LIG    1       -0.729   1.579   1.267  0.00  0.00    +0.230 C 
BRANCH   6   7
ATOM      7  C   LIG    1       -2.164   1.050   1.278  0.00  0.00    +0.030 C 
BRANCH   7   8
ATOM      8  C   LIG    1       -2.841   1.438   2.594  0.00  0.00    +0.060 C 
BRANCH   8   9
ATOM      9  C   LIG    1       -4.255   0.916   2.604  0.00  0.00    -0.080 A 
ATOM     10  C   LIG    1       -5.285   1.700   2.118  0.00  0.00    +0.000 A 
ATOM     11  C   LIG    1       -6.581   1.220   2.123  0.00  0.00    +0.000 A 
ATOM     12  C   LIG    1       -6.849  -0.040   2.625  0.00  0.00    +0.000 A 
ATOM     13  C   LIG    1       -5.820  -0.822   3.116  0.00  0.00    +0.000 A 
ATOM     14  C   LIG    1       -4.523  -0.343   3.106  0.00  0.00    +0.000 A 
ENDBRANCH   8   9
ENDBRANCH   7   8
ENDBRANCH   6   7
ENDBRANCH   1   6
BRANCH   3  15
ATOM     15  C   LIG    1        0.284   5.237   1.770  0.00  0.00    +0.350 C 
BRANCH  15  16
ATOM     16  N   LIG    1        1.535   5.739   2.345  0.00  0.00    -0.560 N 
ATOM     17  C   LIG    1        1.723   5.993   3.652  0.00  0.00    +0.590 C 
ATOM     18  C   LIG    1        3.105   6.481   3.842  0.00  0.00    -0.120 A 
ATOM     19  C   LIG    1        3.845   6.887   4.941  0.00  0.00    +0.140 A 
ATOM     20  C   LIG    1        5.157   7.305   4.771  0.00  0.00    -0.010 A 
ATOM     21  C   LIG    1        5.730   7.319   3.510  0.00  0.00    -0.010 A 
ATOM     22  C   LIG    1        5.000   6.915   2.402  0.00  0.00    +0.140 A 
ATOM     23 CL   LIG    1        7.373   7.846   3.316  0.00  0.00    -0.020 Cl
ATOM     24 CL   LIG    1        6.085   7.814   6.146  0.00  0.00    -0.020 Cl
ATOM     25  C   LIG    1        3.689   6.495   2.558  0.00  0.00    -0.120 A 
ATOM     26  O   LIG    1        0.897   5.845   4.529  0.00  0.00    -0.450 OA
ATOM     27  C   LIG    1        2.643   6.011   1.633  0.00  0.00    +0.590 C 
ATOM     28  O   LIG    1        2.765   5.882   0.432  0.00  0.00    -0.450 OA
ENDBRANCH  15  16
ENDBRANCH   3  15
TORSDOF 6
