REMARK  Name = ZINCrH000004nh3k.0
REMARK                            x       y       z     vdW  Elec       q    Type
REMARK                         _______ _______ _______ _____ _____    ______ ____
ROOT
ATOM      1  C   LIG    1        1.043  -6.513  -0.057  0.00  0.00    +0.360 C 
ENDROOT
BRANCH   1   4
ATOM      2  C   LIG    1       -1.413  -8.810   1.339  0.00  0.00    +0.120 A 
ATOM      3  N   LIG    1       -0.416  -7.974   1.298  0.00  0.00    -0.450 NA
ATOM      4  C   LIG    1       -0.088  -7.493   0.120  0.00  0.00    +0.050 A 
ATOM      5  C   LIG    1       -0.818  -7.930  -0.912  0.00  0.00    -0.050 A 
ATOM      6  S   LIG    1       -2.029  -9.051  -0.294  0.00  0.00    +0.120 S 
BRANCH   2  11
ATOM      7  C   LIG    1       -3.502 -10.946   3.621  0.00  0.00    +0.130 A 
ATOM      8  C   LIG    1       -2.924 -10.668   4.851  0.00  0.00    -0.060 A 
ATOM      9  C   LIG    1       -1.859  -9.790   4.938  0.00  0.00    +0.050 A 
ATOM     10  C   LIG    1       -1.365  -9.184   3.801  0.00  0.00    +0.030 A 
ATOM     11  C   LIG    1       -1.940  -9.458   2.559  0.00  0.00    +0.010 A 
ATOM     12  C   LIG    1       -3.017 -10.340   2.474  0.00  0.00    +0.000 A 
BRANCH   7  14
ATOM     13  C   LIG    1       -5.002 -12.393   4.764  0.00  0.00    +0.250 C 
ATOM     14  O   LIG    1       -4.549 -11.809   3.541  0.00  0.00    -0.320 OA
ENDBRANCH   7  14
ENDBRANCH   2  11
ENDBRANCH   1   4
BRANCH   1  15
ATOM     15  N   LIG    1        0.553  -5.153   0.180  0.00  0.00    -0.740 N 
ATOM     16  H   LIG    1       -0.377  -5.006   0.412  0.00  0.00    +0.400 HD
BRANCH  15  17
ATOM     17  C   LIG    1        1.426  -4.068   0.073  0.00  0.00    +0.230 A 
ATOM     18  C   LIG    1        2.759  -4.277  -0.260  0.00  0.00    -0.040 A 
ATOM     19  C   LIG    1        3.622  -3.204  -0.367  0.00  0.00    +0.090 A 
ATOM     20  C   LIG    1        3.163  -1.920  -0.148  0.00  0.00    -0.110 A 
ATOM     21  C   LIG    1        1.833  -1.704   0.190  0.00  0.00    +0.160 A 
ATOM     22  C   LIG    1        4.107  -0.751  -0.272  0.00  0.00    +0.100 C 
ATOM     23  C   LIG    1        0.963  -2.779   0.298  0.00  0.00    -0.050 A 
BRANCH  21  24
ATOM     24  N   LIG    1        1.369  -0.400   0.417  0.00  0.00    -0.330 N 
ATOM     25  C   LIG    1        0.249   0.170  -0.079  0.00  0.00    +0.470 A 
ATOM     26  N   LIG    1        0.198   1.391   0.383  0.00  0.00    -0.330 NA
ATOM     27  N   LIG    1        1.209   1.633   1.137  0.00  0.00    -0.040 NA
ATOM     28  N   LIG    1        1.969   0.594   1.209  0.00  0.00    -0.070 NA
ENDBRANCH  21  24
ENDBRANCH  15  17
ENDBRANCH   1  15
TORSDOF 6
