REMARK  Name = ZINCrH000004tnTm.0
REMARK                            x       y       z     vdW  Elec       q    Type
REMARK                         _______ _______ _______ _____ _____    ______ ____
ROOT
ATOM      1  C   LIG    1       -4.350   1.093   3.123  0.00  0.00    -0.110 A 
ATOM      2  C   LIG    1       -4.278   1.317   1.777  0.00  0.00    +0.320 A 
ATOM      3  N   LIG    1       -3.051   0.923   1.380  0.00  0.00    -0.350 N 
ATOM      4  N   LIG    1       -2.389   0.449   2.522  0.00  0.00    -0.050 NA
ATOM      5  N   LIG    1       -3.181   0.569   3.530  0.00  0.00    -0.200 NA
ENDROOT
BRANCH   1  13
ATOM      6  C   LIG    1       -8.792   1.678   6.953  0.00  0.00    -0.000 A 
ATOM      7  C   LIG    1       -8.451   1.212   8.224  0.00  0.00    +0.050 A 
ATOM      8  C   LIG    1       -7.184   0.718   8.454  0.00  0.00    +0.060 A 
ATOM      9  C   LIG    1       -6.252   0.681   7.432  0.00  0.00    -0.100 A 
ATOM     10  C   LIG    1       -4.819   0.197   7.418  0.00  0.00    +0.110 C 
ATOM     11  C   LIG    1       -4.346   0.426   5.973  0.00  0.00    +0.290 C 
ATOM     12  N   LIG    1       -5.496   1.014   5.281  0.00  0.00    -0.540 N 
ATOM     13  C   LIG    1       -5.514   1.376   3.983  0.00  0.00    +0.620 C 
ATOM     14  O   LIG    1       -6.489   1.936   3.521  0.00  0.00    -0.510 OA
ATOM     15  C   LIG    1       -6.574   1.139   6.163  0.00  0.00    +0.150 A 
ATOM     16  C   LIG    1       -7.853   1.640   5.925  0.00  0.00    +0.070 A 
BRANCH   6  18
ATOM     17  N   LIG    1      -11.147   2.602   6.510  0.00  0.00    -0.410 NA
ATOM     18  C   LIG    1      -10.105   2.193   6.706  0.00  0.00    +0.250 C 
ENDBRANCH   6  18
ENDBRANCH   1  13
BRANCH   3  19
ATOM     19  C   LIG    1       -2.516   0.974   0.018  0.00  0.00    +0.400 C 
BRANCH  19  20
ATOM     20  C   LIG    1       -1.220   1.744   0.015  0.00  0.00    -0.110 A 
ATOM     21  C   LIG    1       -0.015   1.069   0.005  0.00  0.00    +0.090 A 
ATOM     22  C   LIG    1        1.174   1.775  -0.003  0.00  0.00    +0.040 A 
ATOM     23  C   LIG    1        1.157   3.158   0.004  0.00  0.00    -0.010 A 
ATOM     24  C   LIG    1       -0.050   3.835   0.019  0.00  0.00    +0.050 A 
ATOM     25 CL   LIG    1        2.650   4.045  -0.006  0.00  0.00    -0.050 Cl
ATOM     26  C   LIG    1       -1.238   3.128   0.028  0.00  0.00    -0.010 A 
ATOM     27 CL   LIG    1       -2.753   3.976   0.047  0.00  0.00    -0.050 Cl
ENDBRANCH  19  20
ENDBRANCH   3  19
TORSDOF 4
