REMARK  Name = ZINCrD000000AsT3.0
REMARK                            x       y       z     vdW  Elec       q    Type
REMARK                         _______ _______ _______ _____ _____    ______ ____
ROOT
ATOM      1  C   LIG    1        6.565   1.766  -0.050  0.00  0.00    +0.150 A 
ATOM      2  C   LIG    1        7.847   1.226  -0.065  0.00  0.00    -0.020 A 
ATOM      3  C   LIG    1        8.936   2.078  -0.071  0.00  0.00    +0.200 A 
ATOM      4  C   LIG    1        8.706   3.447  -0.062  0.00  0.00    -0.750 A 
ATOM      5  C   LIG    1        7.407   3.915  -0.047  0.00  0.00    +0.400 A 
ATOM      6  N   LIG    1        6.387   3.079  -0.047  0.00  0.00    -0.510 NA
ENDROOT
BRANCH   4   7
ATOM      7  S   LIG    1       10.059   4.577  -0.069  0.00  0.00    +2.720 S 
ATOM      8  O   LIG    1       11.173   3.872   0.461  0.00  0.00    -0.950 OA
ATOM      9  O   LIG    1        9.571   5.790   0.486  0.00  0.00    -0.950 OA
BRANCH   7  10
ATOM     10  N   LIG    1       10.420   4.899  -1.653  0.00  0.00    -1.010 NA
ATOM     11  C   LIG    1       11.377   4.152  -2.483  0.00  0.00    +0.270 C 
ATOM     12  C   LIG    1       11.400   4.824  -3.872  0.00  0.00    +0.030 C 
ATOM     13  C   LIG    1       10.886   6.257  -3.571  0.00  0.00    +0.040 C 
ATOM     14  C   LIG    1        9.839   5.986  -2.463  0.00  0.00    +0.270 C 
ENDBRANCH   7  10
ENDBRANCH   4   7
BRANCH   1  15
ATOM     15  S   LIG    1        5.165   0.695  -0.043  0.00  0.00    +0.010 S 
BRANCH  15  16
ATOM     16  C   LIG    1        3.767   1.851  -0.024  0.00  0.00    +0.090 C 
BRANCH  16  18
ATOM     17  O   LIG    1        2.495  -0.137  -0.022  0.00  0.00    -0.430 OA
ATOM     18  C   LIG    1        2.475   1.076  -0.015  0.00  0.00    +0.420 C 
BRANCH  18  19
ATOM     19  C   LIG    1        1.188   1.790   0.000  0.00  0.00    -0.170 A 
ATOM     20  C   LIG    1        1.160   3.188   0.008  0.00  0.00    +0.070 A 
ATOM     21  C   LIG    1       -0.050   3.847   0.023  0.00  0.00    +0.010 A 
ATOM     22  C   LIG    1       -1.239   3.134   0.031  0.00  0.00    -0.060 A 
ATOM     23  C   LIG    1       -2.672   3.623   0.047  0.00  0.00    +0.080 C 
ATOM     24  C   LIG    1       -3.510   2.405   0.489  0.00  0.00    +0.030 C 
ATOM     25  C   LIG    1       -2.636   1.217   0.033  0.00  0.00    +0.080 C 
ATOM     26  C   LIG    1       -1.218   1.749   0.017  0.00  0.00    -0.110 A 
ATOM     27  C   LIG    1       -0.013   1.076   0.008  0.00  0.00    +0.090 A 
ENDBRANCH  18  19
ENDBRANCH  16  18
ENDBRANCH  15  16
ENDBRANCH   1  15
TORSDOF 6
