REMARK  Name = ZINCpk00000e98us.0
REMARK                            x       y       z     vdW  Elec       q    Type
REMARK                         _______ _______ _______ _____ _____    ______ ____
ROOT
ATOM      1  C   LIG    1        2.249   3.374   1.516  0.00  0.00    +0.560 C 
ATOM      2  N   LIG    1        3.253   4.090   0.972  0.00  0.00    -0.610 N 
ATOM      3  C   LIG    1        4.366   3.417   0.288  0.00  0.00    +0.290 C 
ATOM      4  C   LIG    1        4.479   3.990  -1.135  0.00  0.00    +0.290 C 
ATOM      5  N   LIG    1        4.483   5.457  -1.051  0.00  0.00    -0.610 N 
ATOM      6  C   LIG    1        3.373   6.130  -0.362  0.00  0.00    +0.260 C 
ATOM      7  C   LIG    1        5.487   6.173  -1.595  0.00  0.00    +0.600 C 
ATOM      8  O   LIG    1        6.389   5.606  -2.184  0.00  0.00    -0.520 OA
ATOM      9  C   LIG    1        3.257   5.557   1.056  0.00  0.00    +0.270 C 
ATOM     10  O   LIG    1        2.295   2.160   1.508  0.00  0.00    -0.530 OA
ENDROOT
BRANCH   7  11
ATOM     11  C   LIG    1        5.492   7.634  -1.478  0.00  0.00    -0.050 A 
ATOM     12  C   LIG    1        6.582   8.434  -1.472  0.00  0.00    +0.300 A 
ATOM     13  N   LIG    1        6.152   9.729  -1.347  0.00  0.00    -0.620 N 
ATOM     14  H   LIG    1        6.723  10.513  -1.315  0.00  0.00    +0.440 HD
ATOM     15  C   LIG    1        4.808   9.733  -1.276  0.00  0.00    +0.660 A 
ATOM     16  O   LIG    1        4.105  10.720  -1.160  0.00  0.00    -0.560 OA
ATOM     17  N   LIG    1        4.371   8.461  -1.359  0.00  0.00    -0.630 N 
ATOM     18  H   LIG    1        3.445   8.171  -1.338  0.00  0.00    +0.440 HD
ENDBRANCH   7  11
BRANCH   1  22
ATOM     19  C   LIG    1       -1.073   5.364   3.263  0.00  0.00    -0.050 A 
ATOM     20  C   LIG    1        0.214   5.762   3.580  0.00  0.00    +0.010 A 
ATOM     21  C   LIG    1        1.297   5.120   3.017  0.00  0.00    +0.040 A 
ATOM     22  C   LIG    1        1.093   4.066   2.124  0.00  0.00    -0.140 A 
ATOM     23  C   LIG    1       -0.207   3.669   1.809  0.00  0.00    +0.070 A 
ATOM     24  C   LIG    1       -1.282   4.320   2.379  0.00  0.00    +0.010 A 
BRANCH  19  26
ATOM     25  C   LIG    1       -3.115   6.684   2.778  0.00  0.00    +0.030 C 
ATOM     26  C   LIG    1       -2.251   6.070   3.882  0.00  0.00    +0.020 C 
ATOM     27  C   LIG    1       -3.084   5.067   4.682  0.00  0.00    +0.030 C 
ENDBRANCH  19  26
ENDBRANCH   1  22
TORSDOF 3
