REMARK  Name = ZINCvU00000005KA.0
REMARK                            x       y       z     vdW  Elec       q    Type
REMARK                         _______ _______ _______ _____ _____    ______ ____
ROOT
ATOM      1  C   LIG    1        0.517   1.455  -0.041  0.00  0.00    +0.190 A 
ATOM      2  C   LIG    1       -0.670   1.044  -0.632  0.00  0.00    +0.050 A 
ATOM      3  C   LIG    1       -1.771   1.877  -0.622  0.00  0.00    +0.090 A 
ATOM      4  C   LIG    1       -1.693   3.123  -0.013  0.00  0.00    +0.130 A 
ATOM      5  C   LIG    1       -0.505   3.534   0.579  0.00  0.00    +0.070 A 
ATOM      6  C   LIG    1        0.596   2.702   0.565  0.00  0.00    -0.190 A 
ENDROOT
BRANCH   1   9
ATOM      7  O   LIG    1        0.370  -1.190   0.217  0.00  0.00    -0.500 OA
ATOM      8  C   LIG    1        1.473  -0.724   0.029  0.00  0.00    +0.520 C 
ATOM      9  N   LIG    1        1.635   0.612  -0.056  0.00  0.00    -0.680 N 
ATOM     10  H   LIG    1        2.526   0.988  -0.127  0.00  0.00    +0.410 HD
BRANCH   8  11
ATOM     11  C   LIG    1        2.663  -1.638  -0.111  0.00  0.00    +0.070 C 
BRANCH  11  12
ATOM     12  C   LIG    1        2.208  -3.092   0.023  0.00  0.00    +0.070 C 
BRANCH  12  13
ATOM     13  C   LIG    1        3.417  -4.020  -0.119  0.00  0.00    +0.180 C 
BRANCH  13  14
ATOM     14  O   LIG    1        2.991  -5.378   0.007  0.00  0.00    -0.310 OA
BRANCH  14  15
ATOM     15  C   LIG    1        3.950  -6.337  -0.096  0.00  0.00    +0.130 A 
ATOM     16  C   LIG    1        5.271  -5.977  -0.318  0.00  0.00    -0.080 A 
ATOM     17  C   LIG    1        6.244  -6.953  -0.417  0.00  0.00    +0.040 A 
ATOM     18  C   LIG    1        5.900  -8.287  -0.304  0.00  0.00    -0.040 A 
ATOM     19  C   LIG    1        4.583  -8.649  -0.088  0.00  0.00    +0.050 A 
ATOM     20  C   LIG    1        3.607  -7.676   0.016  0.00  0.00    -0.020 A 
ENDBRANCH  14  15
ENDBRANCH  13  14
ENDBRANCH  12  13
ENDBRANCH  11  12
ENDBRANCH   8  11
ENDBRANCH   1   9
BRANCH   4  21
ATOM     21  N   LIG    1       -2.811   3.966   0.001  0.00  0.00    -0.660 N 
ATOM     22  H   LIG    1       -2.694   4.927  -0.065  0.00  0.00    +0.420 HD
ATOM     23  C   LIG    1       -4.048   3.443   0.107  0.00  0.00    +0.610 C 
ATOM     24  O   LIG    1       -4.191   2.249   0.290  0.00  0.00    -0.490 OA
BRANCH  23  25
ATOM     25  C   LIG    1       -5.223   4.314   0.001  0.00  0.00    -0.090 A 
ATOM     26  C   LIG    1       -6.527   3.916   0.083  0.00  0.00    +0.060 A 
ATOM     27  C   LIG    1       -7.312   5.070  -0.070  0.00  0.00    -0.070 A 
ATOM     28  C   LIG    1       -6.463   6.107  -0.244  0.00  0.00    +0.220 A 
ATOM     29  O   LIG    1       -5.206   5.648  -0.202  0.00  0.00    -0.170 OA
ENDBRANCH  23  25
ENDBRANCH   4  21
BRANCH   6  30
ATOM     30  C   LIG    1        1.885   3.148   1.206  0.00  0.00    +0.510 C 
ATOM     31  F   LIG    1        2.900   3.175   0.244  0.00  0.00    -0.180 F 
ATOM     32  F   LIG    1        2.232   2.255   2.225  0.00  0.00    -0.170 F 
ATOM     33  F   LIG    1        1.719   4.429   1.745  0.00  0.00    -0.170 F 
ENDBRANCH   6  30
TORSDOF 9
