REMARK  Name = ZINCkj000005fisc.2
REMARK                            x       y       z     vdW  Elec       q    Type
REMARK                         _______ _______ _______ _____ _____    ______ ____
ROOT
ATOM      1  N   LIG    1       -0.017   1.379   0.010  0.00  0.00    -0.370 N 
ATOM      2  C   LIG    1       -0.180   1.913  -1.355  0.00  0.00    +0.220 C 
ATOM      3  C   LIG    1        0.864   2.981  -1.003  0.00  0.00    -0.010 C 
ATOM      4  C   LIG    1        1.353   1.926  -0.001  0.00  0.00    +0.240 C 
ENDROOT
BRANCH   1   8
ATOM      5  C   LIG    1       -0.770  -2.106  -0.002  0.00  0.00    +0.290 A 
ATOM      6  N   LIG    1        0.479  -2.473  -0.016  0.00  0.00    -0.450 NA
ATOM      7  S   LIG    1        1.383  -1.034  -0.016  0.00  0.00    +0.200 S 
ATOM      8  C   LIG    1        0.002  -0.004   0.002  0.00  0.00    +0.210 A 
ATOM      9  N   LIG    1       -1.031  -0.820   0.013  0.00  0.00    -0.500 NA
BRANCH   5  11
ATOM     10  C   LIG    1       -1.780  -3.994  -1.253  0.00  0.00    +0.070 C 
ATOM     11  C   LIG    1       -1.880  -3.125   0.002  0.00  0.00    +0.090 C 
ATOM     12  C   LIG    1       -1.756  -4.009   1.246  0.00  0.00    +0.060 C 
ENDBRANCH   5  11
ENDBRANCH   1   8
BRANCH   3  13
ATOM     13  C   LIG    1        1.856   3.284  -2.128  0.00  0.00    +0.280 C 
BRANCH  13  14
ATOM     14  N   LIG    1        1.340   4.384  -2.953  0.00  0.00    -0.380 N 
ATOM     15  C   LIG    1        0.107   3.956  -3.625  0.00  0.00    +0.270 C 
ATOM     16  C   LIG    1       -0.441   5.108  -4.470  0.00  0.00    +0.200 C 
ATOM     17  N   LIG    1        0.567   5.506  -5.463  0.00  0.00    -0.540 NA
ATOM     18  C   LIG    1        1.816   5.914  -4.805  0.00  0.00    +0.200 C 
ATOM     19  C   LIG    1        0.056   6.574  -6.332  0.00  0.00    +0.220 C 
ATOM     20  C   LIG    1        2.345   4.755  -3.958  0.00  0.00    +0.280 C 
ATOM     21  H   LIG    1        1.143   5.181  -2.365  0.00  0.00    +0.420 HD
ENDBRANCH  13  14
ENDBRANCH   3  13
TORSDOF 4
