REMARK  Name = ZINCkj000005fisc.0
REMARK                            x       y       z     vdW  Elec       q    Type
REMARK                         _______ _______ _______ _____ _____    ______ ____
ROOT
ATOM      1  N   LIG    1        2.592   3.410   0.933  0.00  0.00    -0.390 N 
ATOM      2  C   LIG    1        1.511   3.529  -0.070  0.00  0.00    +0.220 C 
ATOM      3  C   LIG    1        1.417   1.994  -0.001  0.00  0.00    +0.010 C 
ATOM      4  C   LIG    1        2.044   2.114   1.400  0.00  0.00    +0.230 C 
ENDROOT
BRANCH   1   8
ATOM      5  C   LIG    1        2.945   5.566   3.751  0.00  0.00    +0.290 A 
ATOM      6  N   LIG    1        1.896   6.279   3.457  0.00  0.00    -0.460 NA
ATOM      7  S   LIG    1        1.266   5.605   2.029  0.00  0.00    +0.190 S 
ATOM      8  C   LIG    1        2.473   4.381   1.910  0.00  0.00    +0.230 A 
ATOM      9  N   LIG    1        3.252   4.569   2.954  0.00  0.00    -0.510 NA
BRANCH   5  11
ATOM     10  C   LIG    1        4.331   7.293   4.867  0.00  0.00    +0.050 C 
ATOM     11  C   LIG    1        3.775   5.871   4.971  0.00  0.00    +0.090 C 
ATOM     12  C   LIG    1        2.904   5.755   6.223  0.00  0.00    +0.050 C 
ENDBRANCH   5  11
ENDBRANCH   1   8
BRANCH   3  13
ATOM     13  C   LIG    1       -0.018   1.465   0.010  0.00  0.00    +0.210 C 
BRANCH  13  14
ATOM     14  N   LIG    1        0.002  -0.004   0.002  0.00  0.00    -0.540 NA
ATOM     15  C   LIG    1        0.549  -0.516  -1.262  0.00  0.00    +0.210 C 
ATOM     16  C   LIG    1        0.608  -2.045  -1.207  0.00  0.00    +0.280 C 
ATOM     17  N   LIG    1       -0.742  -2.579  -0.985  0.00  0.00    -0.390 N 
ATOM     18  C   LIG    1       -1.265  -2.078   0.293  0.00  0.00    +0.280 C 
ATOM     19  C   LIG    1       -0.688  -4.047  -0.950  0.00  0.00    +0.310 C 
ATOM     20  H   LIG    1       -1.349  -2.283  -1.735  0.00  0.00    +0.420 HD
ATOM     21  C   LIG    1       -1.340  -0.550   0.250  0.00  0.00    +0.200 C 
ENDBRANCH  13  14
ENDBRANCH   3  13
TORSDOF 4
