REMARK  Name = ZINCkj000005mh2N.1
REMARK                            x       y       z     vdW  Elec       q    Type
REMARK                         _______ _______ _______ _____ _____    ______ ____
ROOT
ATOM      1  O   LIG    1        0.268  -3.657  -5.311  0.00  0.00    -0.920 OA
ATOM      2  S   LIG    1       -0.396  -3.738  -4.056  0.00  0.00    +2.610 S 
ATOM      3  C   LIG    1       -0.825  -2.081  -3.455  0.00  0.00    -0.380 C 
ATOM      4  C   LIG    1       -0.687  -2.037  -1.933  0.00  0.00    +0.300 C 
ATOM      5  N   LIG    1       -1.672  -1.111  -1.367  0.00  0.00    -0.370 N 
ATOM      6  C   LIG    1       -3.020  -1.677  -1.406  0.00  0.00    +0.250 C 
ATOM      7  C   LIG    1       -3.123  -2.956  -0.578  0.00  0.00    +0.020 C 
ATOM      8  C   LIG    1       -4.449  -3.657  -0.899  0.00  0.00    +0.040 C 
ATOM      9  C   LIG    1       -4.168  -5.000  -1.572  0.00  0.00    +0.030 C 
ATOM     10  C   LIG    1       -3.873  -4.779  -3.057  0.00  0.00    +0.010 C 
ATOM     11  C   LIG    1       -2.473  -5.304  -3.384  0.00  0.00    +0.290 C 
ATOM     12  H   LIG    1       -1.664  -0.257  -1.922  0.00  0.00    +0.430 HD
ATOM     13  O   LIG    1        0.129  -4.534  -3.004  0.00  0.00    -0.930 OA
ATOM     14  N   LIG    1       -1.869  -4.432  -4.413  0.00  0.00    -1.110 NA
ATOM     15  H   LIG    1       -2.311  -4.269  -5.262  0.00  0.00    +0.430 HD
ENDROOT
BRANCH   5  16
ATOM     16  C   LIG    1       -1.298  -0.767   0.010  0.00  0.00    +0.350 C 
BRANCH  16  17
ATOM     17  C   LIG    1        0.002  -0.004   0.002  0.00  0.00    +0.050 A 
ATOM     18  C   LIG    1       -0.017   1.378   0.010  0.00  0.00    +0.010 A 
ATOM     19  C   LIG    1        1.185   2.070   0.002  0.00  0.00    +0.080 A 
ATOM     20  C   LIG    1        2.365   1.343  -0.013  0.00  0.00    +0.020 A 
ATOM     21  C   LIG    1        2.305  -0.038  -0.021  0.00  0.00    +0.280 A 
ATOM     22  N   LIG    1        1.144  -0.663  -0.013  0.00  0.00    -0.470 NA
ENDBRANCH  16  17
ENDBRANCH   5  16
TORSDOF 2
