REMARK  Name = ZINCkj000005mh2N.2
REMARK                            x       y       z     vdW  Elec       q    Type
REMARK                         _______ _______ _______ _____ _____    ______ ____
ROOT
ATOM      1  O   LIG    1        2.106   5.698   2.207  0.00  0.00    -0.920 OA
ATOM      2  S   LIG    1        1.273   5.031   1.268  0.00  0.00    +2.610 S 
ATOM      3  C   LIG    1        0.822   3.382   1.875  0.00  0.00    -0.370 C 
ATOM      4  C   LIG    1       -0.570   3.013   1.358  0.00  0.00    +0.290 C 
ATOM      5  N   LIG    1       -0.680   1.556   1.225  0.00  0.00    -0.380 N 
ATOM      6  C   LIG    1       -0.013   1.091   0.008  0.00  0.00    +0.250 C 
ATOM      7  C   LIG    1       -0.728   1.586  -1.247  0.00  0.00    +0.040 C 
ATOM      8  C   LIG    1        0.245   1.543  -2.430  0.00  0.00    +0.040 C 
ATOM      9  C   LIG    1        0.650   2.966  -2.815  0.00  0.00    +0.020 C 
ATOM     10  C   LIG    1        1.899   3.376  -2.034  0.00  0.00    +0.000 C 
ATOM     11  C   LIG    1        1.666   4.737  -1.374  0.00  0.00    +0.290 C 
ATOM     12  H   LIG    1       -0.230   1.124   2.029  0.00  0.00    +0.430 HD
ATOM     13  O   LIG    1        0.145   5.682   0.700  0.00  0.00    -0.930 OA
ATOM     14  N   LIG    1        2.276   4.724  -0.027  0.00  0.00    -1.110 NA
ATOM     15  H   LIG    1        3.222   4.543   0.098  0.00  0.00    +0.430 HD
ENDROOT
BRANCH   5  16
ATOM     16  C   LIG    1       -2.094   1.162   1.219  0.00  0.00    +0.350 C 
BRANCH  16  17
ATOM     17  C   LIG    1       -2.727   1.544   2.533  0.00  0.00    +0.050 A 
ATOM     18  C   LIG    1       -3.401   2.745   2.642  0.00  0.00    +0.000 A 
ATOM     19  C   LIG    1       -3.980   3.086   3.855  0.00  0.00    +0.080 A 
ATOM     20  C   LIG    1       -3.858   2.203   4.916  0.00  0.00    +0.020 A 
ATOM     21  C   LIG    1       -3.169   1.019   4.732  0.00  0.00    +0.280 A 
ATOM     22  N   LIG    1       -2.636   0.725   3.562  0.00  0.00    -0.470 NA
ENDBRANCH  16  17
ENDBRANCH   5  16
TORSDOF 2
