REMARK  Name = ZINCrH000004svIH.0
REMARK                            x       y       z     vdW  Elec       q    Type
REMARK                         _______ _______ _______ _____ _____    ______ ____
ROOT
ATOM      1  C   LIG    1       -0.820  -2.863   2.692  0.00  0.00    +0.530 C 
ATOM      2  N   LIG    1       -0.446  -2.613   1.422  0.00  0.00    -0.600 N 
ATOM      3  C   LIG    1        0.847  -2.010   1.187  0.00  0.00    +0.290 C 
ATOM      4  C   LIG    1        0.712  -0.468   1.204  0.00  0.00    +0.040 C 
ATOM      5  C   LIG    1        0.002  -0.004   0.002  0.00  0.00    -0.010 C 
ATOM      6  C   LIG    1       -1.434  -0.507  -0.113  0.00  0.00    +0.310 C 
ATOM      7  C   LIG    1       -1.435  -1.873  -0.754  0.00  0.00    +0.030 C 
ATOM      8  F   LIG    1       -2.177   0.378  -0.900  0.00  0.00    -0.190 F 
ATOM      9  F   LIG    1       -2.003  -0.590   1.162  0.00  0.00    -0.190 F 
ATOM     10  C   LIG    1       -1.373  -2.966   0.329  0.00  0.00    +0.300 C 
ATOM     11  O   LIG    1       -0.077  -2.584   3.610  0.00  0.00    -0.510 OA
ENDROOT
BRANCH   1  12
ATOM     12  C   LIG    1       -2.161  -3.491   2.973  0.00  0.00    +0.110 C 
BRANCH  12  13
ATOM     13  S   LIG    1       -2.369  -3.697   4.759  0.00  0.00    +0.030 S 
BRANCH  13  17
ATOM     14  C   LIG    1       -6.512  -5.429   2.332  0.00  0.00    +0.150 C 
ATOM     15  C   LIG    1       -5.822  -5.198   3.651  0.00  0.00    +0.180 A 
ATOM     16  N   LIG    1       -4.621  -4.652   3.667  0.00  0.00    -0.490 NA
ATOM     17  C   LIG    1       -3.971  -4.428   4.799  0.00  0.00    +0.150 A 
ATOM     18  C   LIG    1       -4.551  -4.776   6.032  0.00  0.00    -0.070 A 
ATOM     19  C   LIG    1       -5.827  -5.351   6.037  0.00  0.00    +0.030 A 
ATOM     20  C   LIG    1       -6.495  -5.737   7.332  0.00  0.00    +0.120 C 
ATOM     21  C   LIG    1       -6.459  -5.562   4.824  0.00  0.00    -0.150 A 
ATOM     22  C   LIG    1       -7.832  -6.183   4.781  0.00  0.00    +0.120 C 
BRANCH  18  23
ATOM     23  C   LIG    1       -3.852  -4.542   7.259  0.00  0.00    +0.250 C 
ATOM     24  N   LIG    1       -3.297  -4.356   8.232  0.00  0.00    -0.390 NA
ENDBRANCH  18  23
ENDBRANCH  13  17
ENDBRANCH  12  13
ENDBRANCH   1  12
BRANCH   5  25
ATOM     25  C   LIG    1       -0.019   1.526   0.010  0.00  0.00    +0.210 C 
BRANCH  25  26
ATOM     26  C   LIG    1        1.362   2.035   0.000  0.00  0.00    +0.200 C 
ATOM     27  N   LIG    1        2.428   2.429  -0.008  0.00  0.00    -0.420 NA
ENDBRANCH  25  26
ENDBRANCH   5  25
TORSDOF 6
