REMARK  Name = ZINCpk000000oD7a.0
REMARK                            x       y       z     vdW  Elec       q    Type
REMARK                         _______ _______ _______ _____ _____    ______ ____
ROOT
ATOM      1  N   LIG    1       -2.290   5.210   3.951  0.00  0.00    -0.740 N 
ATOM      2  H   LIG    1       -2.558   4.544   4.603  0.00  0.00    +0.400 HD
ATOM      3  C   LIG    1       -1.678   4.830   2.812  0.00  0.00    +0.700 C 
ATOM      4  N   LIG    1       -1.437   3.525   2.580  0.00  0.00    -0.730 N 
ATOM      5  H   LIG    1       -1.704   2.859   3.232  0.00  0.00    +0.400 HD
ATOM      6  O   LIG    1       -1.343   5.665   1.994  0.00  0.00    -0.600 OA
ENDROOT
BRANCH   1   7
ATOM      7  C   LIG    1       -2.553   6.629   4.203  0.00  0.00    +0.340 C 
BRANCH   7  11
ATOM      8  C   LIG    1       -4.558   7.055   7.902  0.00  0.00    +0.410 A 
ATOM      9  C   LIG    1       -3.167   7.094   7.896  0.00  0.00    -0.110 A 
ATOM     10  C   LIG    1       -2.496   6.957   6.694  0.00  0.00    +0.120 A 
ATOM     11  C   LIG    1       -3.241   6.784   5.535  0.00  0.00    -0.230 A 
ATOM     12  C   LIG    1       -4.620   6.760   5.614  0.00  0.00    +0.320 A 
ATOM     13  N   LIG    1       -5.233   6.889   6.775  0.00  0.00    -0.540 NA
BRANCH   8  14
ATOM     14  N   LIG    1       -5.245   7.193   9.103  0.00  0.00    -0.610 N 
BRANCH  14  16
ATOM     15  C   LIG    1       -4.407   9.003  10.518  0.00  0.00    +0.020 C 
ATOM     16  C   LIG    1       -4.512   7.487  10.337  0.00  0.00    +0.280 C 
ENDBRANCH  14  16
BRANCH  14  17
ATOM     17  C   LIG    1       -6.702   7.044   9.134  0.00  0.00    +0.280 C 
ATOM     18  C   LIG    1       -7.059   5.579   9.393  0.00  0.00    -0.000 C 
ENDBRANCH  14  17
ENDBRANCH   8  14
ENDBRANCH   7  11
ENDBRANCH   1   7
BRANCH   4  19
ATOM     19  C   LIG    1       -0.771   3.112   1.342  0.00  0.00    +0.290 C 
BRANCH  19  20
ATOM     20  C   LIG    1       -0.732   1.584   1.268  0.00  0.00    +0.160 C 
ATOM     21  C   LIG    1       -0.149   1.153  -0.079  0.00  0.00    +0.000 C 
BRANCH  20  22
ATOM     22  N   LIG    1       -2.095   1.053   1.404  0.00  0.00    -0.530 NA
ATOM     23  C   LIG    1       -2.075  -0.403   1.611  0.00  0.00    +0.150 C 
ATOM     24  C   LIG    1       -3.508  -0.905   1.806  0.00  0.00    +0.220 C 
ATOM     25  O   LIG    1       -4.298  -0.529   0.675  0.00  0.00    -0.380 OA
ATOM     26  C   LIG    1       -4.340   0.882   0.446  0.00  0.00    +0.220 C 
ATOM     27  C   LIG    1       -2.916   1.402   0.236  0.00  0.00    +0.150 C 
ENDBRANCH  20  22
ENDBRANCH  19  20
ENDBRANCH   4  19
TORSDOF 8
