REMARK  Name = ZINCtV00001bB3Fy.0
REMARK                            x       y       z     vdW  Elec       q    Type
REMARK                         _______ _______ _______ _____ _____    ______ ____
ROOT
ATOM      1  C   LIG    1        2.112   7.557   0.146  0.00  0.00    +0.620 C 
ATOM      2  N   LIG    1        1.409   8.670  -0.140  0.00  0.00    -0.550 N 
ATOM      3  C   LIG    1        2.091   9.937  -0.424  0.00  0.00    +0.300 C 
ATOM      4  C   LIG    1        1.624  11.021   0.538  0.00  0.00    +0.050 C 
ATOM      5  C   LIG    1        0.139  11.321   0.318  0.00  0.00    +0.110 C 
ATOM      6  S   LIG    1       -0.831   9.864   0.796  0.00  0.00    -0.130 S 
ATOM      7  C   LIG    1        0.020   8.647  -0.166  0.00  0.00    +0.370 C 
ATOM      8  N   LIG    1       -0.635   7.757  -0.876  0.00  0.00    -0.410 NA
ATOM      9  O   LIG    1        3.326   7.605   0.214  0.00  0.00    -0.490 OA
ENDROOT
BRANCH   1  12
ATOM     10  C   LIG    1        3.498   4.797   0.512  0.00  0.00    +0.140 C 
ATOM     11  C   LIG    1        2.018   5.079   0.534  0.00  0.00    -0.060 A 
ATOM     12  C   LIG    1        1.413   6.285   0.374  0.00  0.00    -0.040 A 
ATOM     13  O   LIG    1        0.074   6.138   0.455  0.00  0.00    -0.150 OA
ATOM     14  C   LIG    1       -0.255   4.850   0.669  0.00  0.00    +0.090 A 
ATOM     15  C   LIG    1       -1.469   4.190   0.824  0.00  0.00    +0.040 A 
ATOM     16  C   LIG    1       -1.488   2.828   1.031  0.00  0.00    +0.100 A 
ATOM     17  C   LIG    1       -0.305   2.103   1.097  0.00  0.00    -0.110 A 
ATOM     18  C   LIG    1        0.900   2.730   0.947  0.00  0.00    +0.120 A 
ATOM     19 BR   LIG    1       -0.363   0.235   1.388  0.00  0.00    -0.040 Br
ATOM     20  C   LIG    1        0.941   4.109   0.731  0.00  0.00    -0.140 A 
ENDBRANCH   1  12
BRANCH   8  21
ATOM     21  C   LIG    1       -2.004   7.782  -0.911  0.00  0.00    +0.090 A 
ATOM     22  C   LIG    1       -2.735   7.796   0.278  0.00  0.00    +0.010 A 
ATOM     23  C   LIG    1       -4.114   7.826   0.235  0.00  0.00    +0.020 A 
ATOM     24  C   LIG    1       -4.772   7.831  -0.982  0.00  0.00    +0.020 A 
ATOM     25  C   LIG    1       -4.053   7.812  -2.164  0.00  0.00    +0.020 A 
ATOM     26  C   LIG    1       -2.674   7.788  -2.136  0.00  0.00    -0.050 A 
BRANCH  26  27
ATOM     27  C   LIG    1       -1.893   7.767  -3.424  0.00  0.00    +0.020 C 
ATOM     28  C   LIG    1       -2.130   9.072  -4.186  0.00  0.00    +0.030 C 
ATOM     29  C   LIG    1       -2.353   6.586  -4.281  0.00  0.00    +0.040 C 
ENDBRANCH  26  27
ENDBRANCH   8  21
TORSDOF 3
