REMARK  Name = ZINC650000003W5s.0
REMARK                            x       y       z     vdW  Elec       q    Type
REMARK                         _______ _______ _______ _____ _____    ______ ____
ROOT
ATOM      1  O   LIG    1        3.282   0.615   1.027  0.00  0.00    -0.530 OA
ATOM      2  C   LIG    1        2.147   0.654   0.600  0.00  0.00    +0.520 C 
ATOM      3  C   LIG    1        1.490   1.876  -0.002  0.00  0.00    +0.050 C 
ATOM      4  C   LIG    1       -0.019   1.541   0.011  0.00  0.00    +0.030 C 
ATOM      5  C   LIG    1        0.002  -0.004   0.002  0.00  0.00    +0.250 C 
ATOM      6  N   LIG    1        1.290  -0.381   0.595  0.00  0.00    -0.740 N 
ATOM      7  H   LIG    1        1.497  -1.265   0.938  0.00  0.00    +0.410 HD
ENDROOT
TORSDOF 0
