REMARK  Name = ZINCqH00000508g5.0
REMARK                            x       y       z     vdW  Elec       q    Type
REMARK                         _______ _______ _______ _____ _____    ______ ____
ROOT
ATOM      1  C   LIG    1        3.975   2.479   6.753  0.00  0.00    +0.290 C 
ENDROOT
BRANCH   1   9
ATOM      2  C   LIG    1        4.170   5.287   7.404  0.00  0.00    +0.100 C 
ATOM      3  C   LIG    1        3.864   4.283   8.485  0.00  0.00    -0.050 A 
ATOM      4  C   LIG    1        3.671   4.706   9.787  0.00  0.00    +0.000 A 
ATOM      5  C   LIG    1        3.395   3.784  10.779  0.00  0.00    -0.050 A 
ATOM      6  C   LIG    1        3.307   2.440  10.469  0.00  0.00    -0.010 A 
ATOM      7  C   LIG    1        3.495   2.018   9.166  0.00  0.00    -0.050 A 
ATOM      8  C   LIG    1        3.400   0.552   8.828  0.00  0.00    +0.090 C 
ATOM      9  C   LIG    1        3.771   2.940   8.174  0.00  0.00    -0.110 A 
BRANCH   5  10
ATOM     10  C   LIG    1        3.190   4.245  12.199  0.00  0.00    -0.030 C 
ATOM     11  C   LIG    1        1.788   3.848  12.667  0.00  0.00    +0.040 C 
ATOM     12  C   LIG    1        3.339   5.766  12.269  0.00  0.00    +0.030 C 
ATOM     13  C   LIG    1        4.234   3.588  13.104  0.00  0.00    +0.040 C 
ENDBRANCH   5  10
ENDBRANCH   1   9
BRANCH   1  14
ATOM     14  O   LIG    1        2.701   2.474   6.058  0.00  0.00    -0.320 OA
BRANCH  14  15
ATOM     15  C   LIG    1        2.710   2.084   4.768  0.00  0.00    +0.570 C 
ATOM     16  O   LIG    1        3.753   1.758   4.240  0.00  0.00    -0.470 OA
BRANCH  15  17
ATOM     17  C   LIG    1        1.448   2.054   3.996  0.00  0.00    +0.260 A 
ATOM     18  N   LIG    1        1.335   1.691   2.731  0.00  0.00    -0.260 NA
ATOM     19  N   LIG    1       -0.020   1.805   2.393  0.00  0.00    -0.320 N 
ATOM     20  C   LIG    1       -0.718   1.572   1.248  0.00  0.00    +0.200 A 
ATOM     21  C   LIG    1       -2.057   1.788   1.238  0.00  0.00    -0.040 A 
ATOM     22  C   LIG    1       -2.688   2.235   2.407  0.00  0.00    +0.420 A 
ATOM     23  N   LIG    1       -1.990   2.452   3.497  0.00  0.00    -0.450 NA
ATOM     24  C   LIG    1       -0.013   1.086   0.008  0.00  0.00    +0.160 C 
ATOM     25  C   LIG    1       -0.666   2.247   3.517  0.00  0.00    +0.450 A 
ATOM     26  N   LIG    1        0.245   2.388   4.469  0.00  0.00    -0.480 NA
ENDBRANCH  15  17
ENDBRANCH  14  15
ENDBRANCH   1  14
TORSDOF 5
