REMARK  Name = ZINCrH00000No4Gl.0
REMARK                            x       y       z     vdW  Elec       q    Type
REMARK                         _______ _______ _______ _____ _____    ______ ____
ROOT
ATOM      1  N   LIG    1       10.928  -0.317  -0.100  0.00  0.00    -0.630 N 
ATOM      2  H   LIG    1       11.071  -1.276  -0.106  0.00  0.00    +0.420 HD
ATOM      3  C   LIG    1        9.675   0.178  -0.086  0.00  0.00    +0.510 C 
ATOM      4  O   LIG    1        9.496   1.377  -0.079  0.00  0.00    -0.470 OA
ENDROOT
BRANCH   1   6
ATOM      5  C   LIG    1       13.326   0.148  -0.114  0.00  0.00    -0.190 A 
ATOM      6  C   LIG    1       12.013   0.546  -0.106  0.00  0.00    +0.040 A 
ATOM      7  S   LIG    1       11.900   2.247  -0.096  0.00  0.00    +0.310 S 
ATOM      8  C   LIG    1       13.643   2.441  -0.110  0.00  0.00    -0.250 A 
ATOM      9  C   LIG    1       14.356   3.769  -0.111  0.00  0.00    +0.150 C 
ATOM     10  C   LIG    1       14.249   1.262  -0.122  0.00  0.00    -0.050 A 
ATOM     11  C   LIG    1       15.747   1.099  -0.136  0.00  0.00    +0.120 C 
BRANCH   5  12
ATOM     12  C   LIG    1       13.748  -1.254  -0.119  0.00  0.00    +0.540 C 
ATOM     13  O   LIG    1       13.918  -1.835  -1.174  0.00  0.00    -0.490 OA
BRANCH  12  14
ATOM     14  O   LIG    1       13.949  -1.902   1.047  0.00  0.00    -0.350 OA
BRANCH  14  16
ATOM     15  C   LIG    1       14.543  -3.852   2.379  0.00  0.00    +0.070 C 
ATOM     16  C   LIG    1       14.367  -3.290   0.967  0.00  0.00    +0.200 C 
ENDBRANCH  14  16
ENDBRANCH  12  14
ENDBRANCH   5  12
ENDBRANCH   1   6
BRANCH   3  17
ATOM     17  C   LIG    1        8.495  -0.760  -0.080  0.00  0.00    +0.280 C 
BRANCH  17  18
ATOM     18  O   LIG    1        7.284  -0.002  -0.065  0.00  0.00    -0.320 OA
BRANCH  18  19
ATOM     19  C   LIG    1        6.127  -0.696  -0.058  0.00  0.00    +0.500 C 
ATOM     20  O   LIG    1        6.147  -1.912  -0.064  0.00  0.00    -0.510 OA
BRANCH  19  21
ATOM     21  C   LIG    1        4.848   0.014  -0.043  0.00  0.00    -0.050 C 
ATOM     22  C   LIG    1        3.691  -0.680  -0.035  0.00  0.00    +0.150 C 
BRANCH  22  23
ATOM     23  C   LIG    1        2.405   0.035  -0.020  0.00  0.00    -0.090 A 
ATOM     24  C   LIG    1        1.203  -0.681  -0.013  0.00  0.00    +0.040 A 
ATOM     25  C   LIG    1        0.002  -0.004   0.002  0.00  0.00    +0.010 A 
ATOM     26  C   LIG    1       -0.017   1.380   0.010  0.00  0.00    +0.030 A 
ATOM     27  C   LIG    1        1.168   2.095   0.002  0.00  0.00    +0.010 A 
ATOM     28  C   LIG    1        2.377   1.433  -0.013  0.00  0.00    +0.040 A 
ENDBRANCH  22  23
ENDBRANCH  19  21
ENDBRANCH  18  19
ENDBRANCH  17  18
ENDBRANCH   3  17
TORSDOF 9
