REMARK  Name = ZINCpe000000SOFQ.0
REMARK                            x       y       z     vdW  Elec       q    Type
REMARK                         _______ _______ _______ _____ _____    ______ ____
ROOT
ATOM      1  C   LIG    1       -3.052   2.145   2.397  0.00  0.00    +0.520 C 
ATOM      2  N   LIG    1       -4.304   1.682   2.584  0.00  0.00    -0.620 N 
ATOM      3  C   LIG    1       -5.369   2.547   3.117  0.00  0.00    +0.310 C 
ATOM      4  C   LIG    1       -6.471   2.653   2.061  0.00  0.00    +0.280 C 
ATOM      5  N   LIG    1       -6.803   1.339   1.527  0.00  0.00    -0.560 N 
ATOM      6  C   LIG    1       -5.994   0.279   1.569  0.00  0.00    +0.510 C 
ATOM      7  O   LIG    1       -6.351  -0.742   1.020  0.00  0.00    -0.520 OA
ATOM      8  C   LIG    1       -4.662   0.293   2.259  0.00  0.00    +0.330 C 
ATOM      9  O   LIG    1       -2.764   3.271   2.744  0.00  0.00    -0.510 OA
ENDROOT
BRANCH   5  10
ATOM     10  C   LIG    1       -8.057   1.177   0.929  0.00  0.00    +0.130 A 
ATOM     11  C   LIG    1       -9.017   0.374   1.531  0.00  0.00    +0.020 A 
ATOM     12  C   LIG    1      -10.257   0.222   0.941  0.00  0.00    +0.020 A 
ATOM     13  C   LIG    1      -10.538   0.858  -0.254  0.00  0.00    +0.020 A 
ATOM     14  C   LIG    1       -9.583   1.654  -0.859  0.00  0.00    +0.020 A 
ATOM     15  C   LIG    1       -8.343   1.815  -0.271  0.00  0.00    +0.000 A 
ENDBRANCH   5  10
BRANCH   1  16
ATOM     16  C   LIG    1       -2.011   1.265   1.755  0.00  0.00    +0.250 C 
BRANCH  16  18
ATOM     17  C   LIG    1       -0.609   1.473   3.812  0.00  0.00    +0.030 C 
ATOM     18  C   LIG    1       -1.261   0.489   2.840  0.00  0.00    -0.070 C 
ATOM     19  C   LIG    1       -0.180  -0.379   2.191  0.00  0.00    +0.050 C 
ATOM     20  C   LIG    1       -2.243  -0.404   3.600  0.00  0.00    +0.040 C 
ENDBRANCH  16  18
BRANCH  16  21
ATOM     21  N   LIG    1       -1.064   2.094   1.005  0.00  0.00    -1.100 NA
ATOM     22  H   LIG    1       -0.560   2.787   1.460  0.00  0.00    +0.430 HD
BRANCH  21  23
ATOM     23  S   LIG    1       -0.856   1.850  -0.619  0.00  0.00    +2.610 S 
ATOM     24  O   LIG    1        0.093   2.835  -1.003  0.00  0.00    -0.950 OA
ATOM     25  O   LIG    1       -0.559   0.465  -0.730  0.00  0.00    -0.940 OA
ATOM     26  C   LIG    1       -2.479   2.213  -1.344  0.00  0.00    -0.300 C 
ENDBRANCH  21  23
ENDBRANCH  16  21
ENDBRANCH   1  16
TORSDOF 5
