REMARK  Name = ZINCrH00000No57T.1
REMARK                            x       y       z     vdW  Elec       q    Type
REMARK                         _______ _______ _______ _____ _____    ______ ____
ROOT
ATOM      1  C   LIG    1       -2.465  -0.522   0.012  0.00  0.00    +0.090 C 
ATOM      2  C   LIG    1       -2.502   0.985   0.020  0.00  0.00    +0.130 C 
ATOM      3  N   LIG    1       -3.643   1.606   0.029  0.00  0.00    -0.200 NA
ENDROOT
BRANCH   2   4
ATOM      4  C   LIG    1       -1.246   1.753   0.018  0.00  0.00    -0.080 A 
ATOM      5  C   LIG    1       -1.285   3.144   0.030  0.00  0.00    +0.170 A 
ATOM      6  C   LIG    1       -0.077   3.868   0.023  0.00  0.00    -0.080 A 
ATOM      7  C   LIG    1       -0.073   5.273   0.031  0.00  0.00    +0.040 A 
ATOM      8  C   LIG    1        1.112   5.944   0.024  0.00  0.00    +0.010 A 
ATOM      9  C   LIG    1        2.323   5.257   0.009  0.00  0.00    +0.030 A 
ATOM     10  C   LIG    1        2.357   3.895   0.001  0.00  0.00    +0.020 A 
ATOM     11  C   LIG    1        1.155   3.169   0.008  0.00  0.00    -0.030 A 
ATOM     12  C   LIG    1        1.159   1.761   0.001  0.00  0.00    +0.010 A 
ATOM     13  C   LIG    1       -0.013   1.076   0.008  0.00  0.00    +0.050 A 
BRANCH   5  14
ATOM     14  O   LIG    1       -2.475   3.796   0.045  0.00  0.00    -0.460 OA
ATOM     15  H   LIG    1       -2.828   3.990  -0.834  0.00  0.00    +0.390 HD
ENDBRANCH   5  14
ENDBRANCH   2   4
BRANCH   3  16
ATOM     16  N   LIG    1       -4.838   0.875   0.031  0.00  0.00    -0.590 N 
ATOM     17  H   LIG    1       -4.814  -0.095   0.026  0.00  0.00    +0.380 HD
ATOM     18  C   LIG    1       -6.022   1.520   0.040  0.00  0.00    +0.530 C 
ATOM     19  O   LIG    1       -6.052   2.732   0.046  0.00  0.00    -0.480 OA
BRANCH  18  20
ATOM     20  C   LIG    1       -7.308   0.734   0.042  0.00  0.00    +0.220 C 
BRANCH  20  21
ATOM     21  N   LIG    1       -8.448   1.660   0.053  0.00  0.00    -0.670 NA
ATOM     22  H   LIG    1       -8.393   2.292   0.837  0.00  0.00    +0.360 HD
BRANCH  21  23
ATOM     23  C   LIG    1       -9.721   0.928   0.055  0.00  0.00    +0.180 C 
ATOM     24  C   LIG    1      -10.108   0.572  -1.382  0.00  0.00    +0.050 C 
BRANCH  23  25
ATOM     25  C   LIG    1      -10.796   1.790   0.665  0.00  0.00    -0.100 A 
ATOM     26  C   LIG    1      -10.839   3.143   0.384  0.00  0.00    +0.030 A 
ATOM     27  C   LIG    1      -11.826   3.934   0.941  0.00  0.00    +0.000 A 
ATOM     28  C   LIG    1      -12.767   3.373   1.785  0.00  0.00    +0.000 A 
ATOM     29  C   LIG    1      -12.720   2.021   2.071  0.00  0.00    +0.000 A 
ATOM     30  C   LIG    1      -11.735   1.230   1.511  0.00  0.00    +0.010 A 
ENDBRANCH  23  25
ENDBRANCH  21  23
ENDBRANCH  20  21
ENDBRANCH  18  20
ENDBRANCH   3  16
TORSDOF 7
