REMARK  Name = ZINCvU00000008CK.0
REMARK                            x       y       z     vdW  Elec       q    Type
REMARK                         _______ _______ _______ _____ _____    ______ ____
ROOT
ATOM      1  C   LIG    1        1.120   2.010   0.172  0.00  0.00    +0.630 A 
ATOM      2  N   LIG    1        2.271   1.341   0.148  0.00  0.00    -0.610 NA
ATOM      3  C   LIG    1        2.278   0.029   0.303  0.00  0.00    +0.430 A 
ATOM      4  N   LIG    1        1.144  -0.625   0.482  0.00  0.00    -0.610 NA
ATOM      5  C   LIG    1       -0.011   0.037   0.507  0.00  0.00    +0.630 A 
ATOM      6  N   LIG    1       -0.022   1.356   0.351  0.00  0.00    -0.630 NA
ENDROOT
BRANCH   5   7
ATOM      7  N   LIG    1       -1.195  -0.646   0.694  0.00  0.00    -0.800 N 
ATOM      8  H   LIG    1       -1.187  -1.610   0.807  0.00  0.00    +0.420 HD
ATOM      9  H   LIG    1       -2.037  -0.164   0.712  0.00  0.00    +0.420 HD
ENDBRANCH   5   7
BRANCH   1  10
ATOM     10  N   LIG    1        1.114   3.382   0.010  0.00  0.00    -0.620 N 
ATOM     11  H   LIG    1        1.952   3.868  -0.042  0.00  0.00    +0.430 HD
BRANCH  10  16
ATOM     12  C   LIG    1       -3.810   6.173  -0.359  0.00  0.00    +0.100 C 
ATOM     13  C   LIG    1       -2.502   5.431  -0.261  0.00  0.00    -0.100 A 
ATOM     14  C   LIG    1       -1.410   6.034   0.337  0.00  0.00    +0.030 A 
ATOM     15  C   LIG    1       -0.210   5.357   0.428  0.00  0.00    -0.010 A 
ATOM     16  C   LIG    1       -0.100   4.070  -0.081  0.00  0.00    +0.150 A 
ATOM     17  C   LIG    1       -1.197   3.469  -0.685  0.00  0.00    +0.020 A 
ATOM     18  C   LIG    1       -2.396   4.149  -0.768  0.00  0.00    +0.020 A 
ENDBRANCH  10  16
ENDBRANCH   1  10
BRANCH   3  19
ATOM     19  C   LIG    1        3.583  -0.724   0.275  0.00  0.00    +0.330 C 
BRANCH  19  20
ATOM     20  O   LIG    1        3.876  -1.120  -1.066  0.00  0.00    -0.290 OA
BRANCH  20  21
ATOM     21  C   LIG    1        5.027  -1.814  -1.267  0.00  0.00    +0.140 A 
ATOM     22  C   LIG    1        5.860  -2.103  -0.196  0.00  0.00    +0.020 A 
ATOM     23  C   LIG    1        7.027  -2.813  -0.402  0.00  0.00    -0.140 A 
ATOM     24  C   LIG    1        7.370  -3.227  -1.676  0.00  0.00    +0.090 A 
ATOM     25  C   LIG    1        6.544  -2.936  -2.746  0.00  0.00    -0.140 A 
ATOM     26  C   LIG    1        5.374  -2.230  -2.545  0.00  0.00    +0.090 A 
BRANCH  25  27
ATOM     27  C   LIG    1        6.921  -3.388  -4.133  0.00  0.00    +0.510 C 
ATOM     28  F   LIG    1        7.026  -4.783  -4.157  0.00  0.00    -0.170 F 
ATOM     29  F   LIG    1        8.150  -2.822  -4.490  0.00  0.00    -0.170 F 
ATOM     30  F   LIG    1        5.938  -2.979  -5.040  0.00  0.00    -0.170 F 
ENDBRANCH  25  27
BRANCH  23  31
ATOM     31  C   LIG    1        7.929  -3.133   0.762  0.00  0.00    +0.510 C 
ATOM     32  F   LIG    1        8.605  -4.332   0.512  0.00  0.00    -0.170 F 
ATOM     33  F   LIG    1        7.162  -3.264   1.924  0.00  0.00    -0.170 F 
ATOM     34  F   LIG    1        8.858  -2.100   0.929  0.00  0.00    -0.170 F 
ENDBRANCH  23  31
ENDBRANCH  20  21
ENDBRANCH  19  20
ENDBRANCH   3  19
TORSDOF 8
