REMARK  Name = ZINCpk000000pFOO.2
REMARK                            x       y       z     vdW  Elec       q    Type
REMARK                         _______ _______ _______ _____ _____    ______ ____
ROOT
ATOM      1  C   LIG    1       -3.965   2.543  -1.787  0.00  0.00    +0.520 C 
ATOM      2  N   LIG    1       -3.095   3.532  -1.503  0.00  0.00    -0.600 N 
ATOM      3  O   LIG    1       -3.808   1.441  -1.306  0.00  0.00    -0.510 OA
ENDROOT
BRANCH   2   4
ATOM      4  C   LIG    1       -1.898   3.249  -0.708  0.00  0.00    +0.280 C 
ATOM      5  C   LIG    1       -2.300   2.755   0.693  0.00  0.00    +0.060 C 
ATOM      6  C   LIG    1       -1.055   2.148   1.382  0.00  0.00    -0.310 C 
ATOM      7  S   LIG    1       -0.009   1.541   0.010  0.00  0.00    +2.390 S 
ATOM      8  O   LIG    1        1.209   2.273  -0.014  0.00  0.00    -0.940 OA
ATOM      9  O   LIG    1        0.020   0.120   0.033  0.00  0.00    -0.930 OA
ATOM     10  C   LIG    1       -1.083   2.105  -1.364  0.00  0.00    -0.310 C 
ENDBRANCH   2   4
BRANCH   1  11
ATOM     11  C   LIG    1       -5.132   2.805  -2.704  0.00  0.00    +0.200 C 
BRANCH  11  17
ATOM     12  C   LIG    1       -7.301   1.929  -3.327  0.00  0.00    +0.130 C 
ATOM     13  C   LIG    1       -8.203   0.695  -3.249  0.00  0.00    +0.040 C 
ATOM     14  C   LIG    1       -7.562  -0.449  -4.039  0.00  0.00    +0.000 C 
ATOM     15  C   LIG    1       -6.168  -0.732  -3.472  0.00  0.00    +0.030 C 
ATOM     16  C   LIG    1       -5.325   0.543  -3.544  0.00  0.00    +0.170 C 
ATOM     17  N   LIG    1       -5.980   1.608  -2.772  0.00  0.00    -0.510 NA
BRANCH  12  19
ATOM     18  C   LIG    1       -7.986   2.680  -1.044  0.00  0.00    +0.020 C 
ATOM     19  C   LIG    1       -7.928   3.070  -2.522  0.00  0.00    +0.010 C 
ENDBRANCH  12  19
ENDBRANCH  11  17
ENDBRANCH   1  11
BRANCH   2  20
ATOM     20  C   LIG    1       -3.347   4.891  -1.989  0.00  0.00    +0.300 C 
BRANCH  20  21
ATOM     21  C   LIG    1       -2.703   5.068  -3.365  0.00  0.00    +0.130 C 
ATOM     22  C   LIG    1       -2.963   6.495  -3.885  0.00  0.00    +0.010 C 
ATOM     23  C   LIG    1       -1.548   7.080  -4.110  0.00  0.00    +0.000 C 
ATOM     24  C   LIG    1       -0.681   5.800  -4.223  0.00  0.00    +0.200 C 
ATOM     25  O   LIG    1       -1.279   4.903  -3.264  0.00  0.00    -0.370 OA
ENDBRANCH  20  21
ENDBRANCH   2  20
TORSDOF 6
