REMARK  Name = ZINCpk00000y6w4R.0
REMARK                            x       y       z     vdW  Elec       q    Type
REMARK                         _______ _______ _______ _____ _____    ______ ____
ROOT
ATOM      1  C   LIG    1       -0.204   1.354   2.353  0.00  0.00    +0.600 C 
ATOM      2  N   LIG    1       -0.728   1.426   1.114  0.00  0.00    -0.610 N 
ATOM      3  C   LIG    1       -0.012   1.128  -0.140  0.00  0.00    +0.260 C 
ATOM      4  C   LIG    1       -0.773   1.920  -1.232  0.00  0.00    +0.040 C 
ATOM      5  C   LIG    1       -2.242   1.778  -0.753  0.00  0.00    +0.040 C 
ATOM      6  C   LIG    1       -2.110   1.815   0.784  0.00  0.00    +0.230 C 
ATOM      7  O   LIG    1       -0.915   1.528   3.325  0.00  0.00    -0.520 OA
ENDROOT
BRANCH   1  11
ATOM      8  C   LIG    1        4.405   2.961   2.435  0.00  0.00    +0.330 C 
ATOM      9  N   LIG    1        3.478   1.835   2.574  0.00  0.00    -0.520 N 
ATOM     10  C   LIG    1        2.151   2.061   2.417  0.00  0.00    +0.330 A 
ATOM     11  C   LIG    1        1.228   1.066   2.531  0.00  0.00    -0.210 A 
ATOM     12  C   LIG    1        1.681  -0.301   2.841  0.00  0.00    +0.030 A 
ATOM     13  C   LIG    1        0.790  -1.363   2.963  0.00  0.00    +0.000 A 
ATOM     14  C   LIG    1        1.270  -2.624   3.247  0.00  0.00    +0.060 A 
ATOM     15  C   LIG    1        2.631  -2.845   3.406  0.00  0.00    +0.000 A 
ATOM     16  C   LIG    1        3.531  -1.808   3.283  0.00  0.00    +0.100 A 
ATOM     17  C   LIG    1        3.067  -0.526   2.996  0.00  0.00    -0.150 A 
ATOM     18  C   LIG    1        3.978   0.616   2.853  0.00  0.00    +0.550 A 
ATOM     19  O   LIG    1        5.178   0.462   2.986  0.00  0.00    -0.510 OA
ENDBRANCH   1  11
BRANCH   6  20
ATOM     20  C   LIG    1       -3.093   0.826   1.414  0.00  0.00    +0.330 C 
BRANCH  20  21
ATOM     21  N   LIG    1       -4.464   1.232   1.097  0.00  0.00    -0.290 N 
ATOM     22  C   LIG    1       -5.399   0.462   0.493  0.00  0.00    +0.140 A 
ATOM     23  C   LIG    1       -6.512   1.226   0.397  0.00  0.00    +0.140 A 
ATOM     24  N   LIG    1       -6.207   2.411   0.940  0.00  0.00    -0.270 NA
ATOM     25  N   LIG    1       -4.989   2.380   1.350  0.00  0.00    -0.080 NA
ENDBRANCH  20  21
ENDBRANCH   6  20
TORSDOF 3
