REMARK  Name = ZINCrH000004vAAF.0
REMARK                            x       y       z     vdW  Elec       q    Type
REMARK                         _______ _______ _______ _____ _____    ______ ____
ROOT
ATOM      1  O   LIG    1       -0.493   5.044   2.066  0.00  0.00    -0.530 OA
ATOM      2  C   LIG    1       -0.480   3.835   2.199  0.00  0.00    +0.580 C 
ATOM      3  N   LIG    1       -0.900   3.043   1.193  0.00  0.00    -0.610 N 
ATOM      4  C   LIG    1       -0.774   1.580   1.282  0.00  0.00    +0.290 C 
ATOM      5  C   LIG    1       -0.086   1.073   0.010  0.00  0.00    +0.190 C 
ATOM      6  N   LIG    1       -0.815   1.563  -1.167  0.00  0.00    -0.500 N 
ATOM      7  C   LIG    1       -0.780   3.030  -1.242  0.00  0.00    +0.190 C 
ATOM      8  C   LIG    1       -1.498   3.617  -0.022  0.00  0.00    +0.300 C 
ENDROOT
BRANCH   6   9
ATOM      9  C   LIG    1       -0.316   0.990  -2.340  0.00  0.00    +0.130 A 
ATOM     10  C   LIG    1        1.013   1.178  -2.696  0.00  0.00    +0.000 A 
ATOM     11  C   LIG    1        1.503   0.609  -3.855  0.00  0.00    +0.080 A 
ATOM     12  C   LIG    1        0.672  -0.146  -4.662  0.00  0.00    -0.170 A 
ATOM     13  C   LIG    1       -0.652  -0.336  -4.311  0.00  0.00    +0.090 A 
ATOM     14  C   LIG    1       -1.148   0.225  -3.150  0.00  0.00    -0.020 A 
ATOM     15 CL   LIG    1       -2.808  -0.020  -2.706  0.00  0.00    -0.030 Cl
BRANCH  12  16
ATOM     16  C   LIG    1        1.211  -0.764  -5.926  0.00  0.00    +0.510 C 
ATOM     17  F   LIG    1        2.238   0.037  -6.437  0.00  0.00    -0.170 F 
ATOM     18  F   LIG    1        0.184  -0.864  -6.871  0.00  0.00    -0.170 F 
ATOM     19  F   LIG    1        1.711  -2.040  -5.646  0.00  0.00    -0.170 F 
ENDBRANCH  12  16
ENDBRANCH   6   9
BRANCH   2  20
ATOM     20  C   LIG    1       -0.004   3.238   3.458  0.00  0.00    -0.170 A 
ATOM     21  C   LIG    1       -0.807   2.325   4.149  0.00  0.00    +0.090 A 
ATOM     22  C   LIG    1       -0.356   1.764   5.322  0.00  0.00    -0.020 A 
ATOM     23  C   LIG    1        0.892   2.111   5.830  0.00  0.00    +0.150 A 
ATOM     24  C   LIG    1        1.694   3.020   5.156  0.00  0.00    -0.040 A 
ATOM     25  C   LIG    1        1.254   3.586   3.972  0.00  0.00    +0.180 A 
BRANCH  23  26
ATOM     26  O   LIG    1        1.326   1.557   6.991  0.00  0.00    -0.490 OA
ATOM     27  H   LIG    1        1.083   2.058   7.781  0.00  0.00    +0.400 HD
ENDBRANCH  23  26
BRANCH  25  28
ATOM     28  O   LIG    1        2.037   4.476   3.312  0.00  0.00    -0.490 OA
ATOM     29  H   LIG    1        1.895   5.396   3.574  0.00  0.00    +0.400 HD
ENDBRANCH  25  28
ENDBRANCH   2  20
TORSDOF 5
