REMARK  Name = ZINCkj000005kwT6.0
REMARK                            x       y       z     vdW  Elec       q    Type
REMARK                         _______ _______ _______ _____ _____    ______ ____
ROOT
ATOM      1  N   LIG    1        1.639   0.955   3.885  0.00  0.00    -0.500 N 
ATOM      2  H   LIG    1        1.127   0.085   3.897  0.00  0.00    +0.430 HD
ATOM      3  H   LIG    1        1.324   1.541   4.644  0.00  0.00    +0.430 HD
ENDROOT
BRANCH   1   4
ATOM      4  C   LIG    1        1.407   1.642   2.607  0.00  0.00    +0.270 C 
ATOM      5  C   LIG    1        2.080   3.015   2.637  0.00  0.00    +0.110 C 
BRANCH   4   8
ATOM      6  C   LIG    1       -0.013   1.086   0.008  0.00  0.00    +0.130 C 
ATOM      7  C   LIG    1       -0.718   1.572   1.248  0.00  0.00    -0.020 A 
ATOM      8  C   LIG    1       -0.075   1.813   2.391  0.00  0.00    -0.290 A 
ATOM      9  S   LIG    1       -1.220   2.363   3.608  0.00  0.00    +0.110 S 
ATOM     10  C   LIG    1       -2.547   2.229   2.461  0.00  0.00    +0.030 A 
ATOM     11  C   LIG    1       -2.082   1.807   1.285  0.00  0.00    +0.020 A 
ENDBRANCH   4   8
ENDBRANCH   1   4
BRANCH   1  12
ATOM     12  C   LIG    1        3.073   0.681   4.040  0.00  0.00    +0.300 C 
BRANCH  12  13
ATOM     13  C   LIG    1        3.315  -0.035   5.371  0.00  0.00    -0.380 C 
BRANCH  13  14
ATOM     14  S   LIG    1        5.087  -0.373   5.563  0.00  0.00    +2.620 S 
ATOM     15  O   LIG    1        5.809   0.837   5.742  0.00  0.00    -0.920 OA
ATOM     16  O   LIG    1        5.513  -1.348   4.621  0.00  0.00    -0.920 OA
BRANCH  14  17
ATOM     17  N   LIG    1        5.205  -1.140   7.026  0.00  0.00    -0.990 NA
ATOM     18  C   LIG    1        5.416  -0.377   8.266  0.00  0.00    +0.270 C 
ATOM     19  C   LIG    1        4.366  -0.830   9.293  0.00  0.00    +0.210 C 
ATOM     20  O   LIG    1        4.409  -2.254   9.409  0.00  0.00    -0.370 OA
ATOM     21  C   LIG    1        4.078  -2.950   8.205  0.00  0.00    +0.210 C 
ATOM     22  C   LIG    1        5.108  -2.605   7.123  0.00  0.00    +0.270 C 
ENDBRANCH  14  17
ENDBRANCH  13  14
ENDBRANCH  12  13
ENDBRANCH   1  12
TORSDOF 6
