REMARK  Name = ZINCrD000000CFwq.0
REMARK                            x       y       z     vdW  Elec       q    Type
REMARK                         _______ _______ _______ _____ _____    ______ ____
ROOT
ATOM      1  O   LIG    1       -4.844   8.510  -1.950  0.00  0.00    -0.520 OA
ATOM      2  C   LIG    1       -4.419   7.381  -2.097  0.00  0.00    +0.570 C 
ATOM      3  N   LIG    1       -4.728   6.423  -1.201  0.00  0.00    -0.610 N 
ATOM      4  C   LIG    1       -5.501   6.747   0.005  0.00  0.00    +0.290 C 
ATOM      5  C   LIG    1       -4.731   6.253   1.234  0.00  0.00    +0.030 C 
ATOM      6  C   LIG    1       -4.418   4.763   1.069  0.00  0.00    +0.040 C 
ATOM      7  C   LIG    1       -3.540   4.558  -0.167  0.00  0.00    +0.080 C 
ATOM      8  C   LIG    1       -4.296   5.034  -1.412  0.00  0.00    +0.290 C 
ENDROOT
BRANCH   7   9
ATOM      9  C   LIG    1       -3.206   3.096  -0.310  0.00  0.00    +0.140 A 
ATOM     10  N   LIG    1       -4.061   2.120  -0.473  0.00  0.00    -0.240 NA
ATOM     11  N   LIG    1       -3.443   0.995  -0.562  0.00  0.00    -0.290 NA
ATOM     12  C   LIG    1       -2.139   1.199  -0.469  0.00  0.00    +0.190 A 
ATOM     13  C   LIG    1       -1.020   0.345  -0.501  0.00  0.00    +0.080 A 
ATOM     14  C   LIG    1        0.226   0.878  -0.381  0.00  0.00    +0.060 A 
ATOM     15  C   LIG    1        0.378   2.267  -0.223  0.00  0.00    +0.030 A 
ATOM     16  C   LIG    1       -0.704   3.072  -0.189  0.00  0.00    +0.230 A 
ATOM     17  N   LIG    1       -1.959   2.551  -0.308  0.00  0.00    -0.390 N 
ENDBRANCH   7   9
BRANCH   2  18
ATOM     18  C   LIG    1       -3.564   7.059  -3.256  0.00  0.00    -0.150 A 
ATOM     19  C   LIG    1       -3.904   6.006  -4.108  0.00  0.00    +0.080 A 
ATOM     20  C   LIG    1       -3.104   5.714  -5.192  0.00  0.00    -0.010 A 
ATOM     21  C   LIG    1       -1.958   6.453  -5.434  0.00  0.00    +0.080 A 
ATOM     22  C   LIG    1       -1.607   7.493  -4.596  0.00  0.00    -0.050 A 
ATOM     23  C   LIG    1       -2.403   7.804  -3.504  0.00  0.00    +0.150 A 
BRANCH  23  24
ATOM     24  O   LIG    1       -2.060   8.826  -2.680  0.00  0.00    -0.310 OA
BRANCH  24  25
ATOM     25  C   LIG    1       -0.863   9.540  -2.996  0.00  0.00    +0.600 C 
ATOM     26  F   LIG    1       -0.981  10.108  -4.269  0.00  0.00    -0.190 F 
ATOM     27  F   LIG    1        0.224   8.660  -2.976  0.00  0.00    -0.200 F 
ENDBRANCH  24  25
ENDBRANCH  23  24
ENDBRANCH   2  18
TORSDOF 4
