REMARK  Name = ZINCvU000000051U.0
REMARK                            x       y       z     vdW  Elec       q    Type
REMARK                         _______ _______ _______ _____ _____    ______ ____
ROOT
ATOM      1  C   LIG    1        0.685   3.342  -0.234  0.00  0.00    +0.540 C 
ATOM      2  C   LIG    1        1.042   1.998  -0.209  0.00  0.00    -0.380 C 
ATOM      3  C   LIG    1       -0.077   1.216   0.123  0.00  0.00    +0.420 C 
ATOM      4  C   LIG    1       -1.219   2.192   0.312  0.00  0.00    +0.290 C 
ATOM      5  O   LIG    1       -0.120   0.006   0.233  0.00  0.00    -0.450 OA
ATOM      6  N   LIG    1       -0.630   3.516   0.069  0.00  0.00    -0.540 N 
ENDROOT
BRANCH   6   7
ATOM      7  C   LIG    1       -1.306   4.741   0.131  0.00  0.00    +0.090 A 
ATOM      8  C   LIG    1       -0.992   5.657   1.127  0.00  0.00    +0.040 A 
ATOM      9  C   LIG    1       -1.654   6.868   1.185  0.00  0.00    -0.020 A 
ATOM     10  C   LIG    1       -2.642   7.164   0.255  0.00  0.00    +0.130 A 
ATOM     11  C   LIG    1       -2.960   6.246  -0.737  0.00  0.00    +0.010 A 
ATOM     12  C   LIG    1       -2.294   5.038  -0.799  0.00  0.00    +0.050 A 
BRANCH  10  13
ATOM     13  N   LIG    1       -3.316   8.389   0.317  0.00  0.00    -0.490 N 
ATOM     14  C   LIG    1       -3.208   9.114  -0.956  0.00  0.00    +0.190 C 
ATOM     15  C   LIG    1       -4.074  10.374  -0.901  0.00  0.00    +0.020 C 
ATOM     16  C   LIG    1       -3.604  11.261   0.255  0.00  0.00    +0.000 C 
ATOM     17  C   LIG    1       -3.681  10.466   1.562  0.00  0.00    +0.020 C 
ATOM     18  C   LIG    1       -2.826   9.203   1.436  0.00  0.00    +0.180 C 
ENDBRANCH  10  13
ENDBRANCH   6   7
BRANCH   2  19
ATOM     19  C   LIG    1        2.391   1.473  -0.490  0.00  0.00    +0.230 A 
ATOM     20  N   LIG    1        2.729   0.216  -0.469  0.00  0.00    -0.470 NA
ATOM     21  C   LIG    1        3.991  -0.070  -0.749  0.00  0.00    +0.120 A 
ATOM     22  C   LIG    1        4.776   0.988  -1.024  0.00  0.00    -0.070 A 
ATOM     23  S   LIG    1        3.795   2.447  -0.915  0.00  0.00    -0.000 S 
BRANCH  21  24
ATOM     24  C   LIG    1        4.505  -1.462  -0.758  0.00  0.00    -0.010 A 
ATOM     25  C   LIG    1        5.841  -1.712  -1.065  0.00  0.00    +0.030 A 
ATOM     26  C   LIG    1        6.315  -3.008  -1.067  0.00  0.00    +0.050 A 
ATOM     27  C   LIG    1        5.463  -4.059  -0.776  0.00  0.00    -0.090 A 
ATOM     28  C   LIG    1        4.134  -3.817  -0.476  0.00  0.00    +0.050 A 
ATOM     29 BR   LIG    1        6.118  -5.833  -0.788  0.00  0.00    -0.050 Br
ATOM     30  C   LIG    1        3.651  -2.524  -0.466  0.00  0.00    +0.070 A 
ENDBRANCH  21  24
ENDBRANCH   2  19
BRANCH   1  31
ATOM     31  N   LIG    1        1.547   4.361  -0.524  0.00  0.00    -0.820 N 
ATOM     32  H   LIG    1        1.211   5.263  -0.636  0.00  0.00    +0.410 HD
ATOM     33  H   LIG    1        2.496   4.181  -0.618  0.00  0.00    +0.420 HD
ENDBRANCH   1  31
TORSDOF 5
