REMARK  Name = ZINCqH0000038mZj.0
REMARK                            x       y       z     vdW  Elec       q    Type
REMARK                         _______ _______ _______ _____ _____    ______ ____
ROOT
ATOM      1  C   LIG    1        3.494   3.160   0.125  0.00  0.00    +0.300 A 
ATOM      2  N   LIG    1        3.474   1.838   0.136  0.00  0.00    -0.510 NA
ATOM      3  C   LIG    1        4.584   1.128   0.214  0.00  0.00    +0.280 A 
ATOM      4  C   LIG    1        5.817   1.743   0.299  0.00  0.00    -0.040 A 
ATOM      5  C   LIG    1        5.887   3.130   0.297  0.00  0.00    +0.110 A 
ATOM      6  C   LIG    1        4.703   3.851   0.208  0.00  0.00    +0.100 A 
ENDROOT
BRANCH   6   7
ATOM      7  N   LIG    1        4.723   5.253   0.201  0.00  0.00    -0.670 N 
ATOM      8  H   LIG    1        4.002   5.750   0.618  0.00  0.00    +0.410 HD
ATOM      9  C   LIG    1        5.744   5.909  -0.385  0.00  0.00    +0.730 C 
ATOM     10  N   LIG    1        5.722   7.254  -0.466  0.00  0.00    -0.630 N 
ATOM     11  C   LIG    1        4.652   8.126   0.042  0.00  0.00    +0.210 C 
ATOM     12  C   LIG    1        5.046   9.579  -0.297  0.00  0.00    +0.180 C 
ATOM     13  C   LIG    1        6.040   9.404  -1.475  0.00  0.00    -0.070 C 
ATOM     14  C   LIG    1        7.020  10.577  -1.544  0.00  0.00    +0.050 C 
ATOM     15  C   LIG    1        5.295   9.236  -2.801  0.00  0.00    +0.050 C 
ATOM     16  C   LIG    1        6.769   8.096  -1.072  0.00  0.00    +0.290 C 
ATOM     17  O   LIG    1        6.684   5.288  -0.841  0.00  0.00    -0.570 OA
BRANCH  12  18
ATOM     18  O   LIG    1        3.901  10.331  -0.704  0.00  0.00    -0.550 OA
ATOM     19  H   LIG    1        3.216  10.403  -0.025  0.00  0.00    +0.380 HD
ENDBRANCH  12  18
ENDBRANCH   6   7
BRANCH   1  20
ATOM     20  O   LIG    1        2.328   3.850   0.038  0.00  0.00    -0.250 OA
BRANCH  20  26
ATOM     21  C   LIG    1       -1.083   1.305  -2.352  0.00  0.00    +0.090 C 
ATOM     22  C   LIG    1       -0.526   1.891  -1.080  0.00  0.00    -0.080 A 
ATOM     23  C   LIG    1       -1.197   1.708   0.116  0.00  0.00    +0.020 A 
ATOM     24  C   LIG    1       -0.692   2.249   1.284  0.00  0.00    +0.020 A 
ATOM     25  C   LIG    1        0.489   2.965   1.261  0.00  0.00    +0.010 A 
ATOM     26  C   LIG    1        1.166   3.145   0.064  0.00  0.00    +0.100 A 
ATOM     27  C   LIG    1        0.655   2.606  -1.108  0.00  0.00    -0.080 A 
ATOM     28  C   LIG    1        1.388   2.801  -2.410  0.00  0.00    +0.080 C 
ENDBRANCH  20  26
ENDBRANCH   1  20
TORSDOF 4
