REMARK  Name = ZINCrg000000pFJm.0
REMARK                            x       y       z     vdW  Elec       q    Type
REMARK                         _______ _______ _______ _____ _____    ______ ____
ROOT
ATOM      1  C   LIG    1       -0.401   2.165   1.221  0.00  0.00    +0.090 C 
ATOM      2  C   LIG    1        0.282   1.528   0.000  0.00  0.00    +0.340 C 
ATOM      3  N   LIG    1       -0.573   1.867  -1.141  0.00  0.00    -0.520 N 
ATOM      4  C   LIG    1       -1.666   2.623  -0.714  0.00  0.00    +0.150 A 
ATOM      5  C   LIG    1       -2.720   3.154  -1.459  0.00  0.00    +0.010 A 
ATOM      6  C   LIG    1       -3.714   3.880  -0.838  0.00  0.00    +0.050 A 
ATOM      7  C   LIG    1       -3.674   4.089   0.529  0.00  0.00    +0.000 A 
ATOM      8  C   LIG    1       -2.632   3.566   1.274  0.00  0.00    +0.080 A 
ATOM      9  C   LIG    1       -0.337   1.502  -2.417  0.00  0.00    +0.520 C 
ATOM     10  O   LIG    1       -1.152   1.754  -3.280  0.00  0.00    -0.490 OA
ATOM     11  C   LIG    1       -1.635   2.837   0.656  0.00  0.00    -0.130 A 
ENDROOT
BRANCH   9  12
ATOM     12  C   LIG    1        0.926   0.789  -2.769  0.00  0.00    +0.510 C 
ATOM     13  N   LIG    1        1.211   0.518  -4.058  0.00  0.00    -0.640 N 
ATOM     14  H   LIG    1        0.633   0.852  -4.762  0.00  0.00    +0.430 HD
ATOM     15  O   LIG    1        1.697   0.452  -1.893  0.00  0.00    -0.480 OA
BRANCH  13  16
ATOM     16  C   LIG    1        2.338  -0.242  -4.380  0.00  0.00    +0.130 A 
ATOM     17  C   LIG    1        3.033   0.009  -5.557  0.00  0.00    +0.030 A 
ATOM     18  C   LIG    1        4.151  -0.738  -5.878  0.00  0.00    +0.040 A 
ATOM     19  C   LIG    1        4.579  -1.744  -5.036  0.00  0.00    +0.030 A 
ATOM     20  C   LIG    1        3.885  -2.008  -3.854  0.00  0.00    -0.120 A 
ATOM     21  C   LIG    1        2.760  -1.252  -3.527  0.00  0.00    +0.090 A 
BRANCH  20  22
ATOM     22  C   LIG    1        4.342  -3.085  -2.950  0.00  0.00    +0.560 C 
ATOM     23  O   LIG    1        3.737  -3.313  -1.921  0.00  0.00    -0.530 OA
ATOM     24  N   LIG    1        5.430  -3.815  -3.267  0.00  0.00    -0.850 N 
ATOM     25  H   LIG    1        5.730  -4.522  -2.675  0.00  0.00    +0.410 HD
ATOM     26  H   LIG    1        5.913  -3.634  -4.089  0.00  0.00    +0.400 HD
ENDBRANCH  20  22
ENDBRANCH  13  16
ENDBRANCH   9  12
BRANCH   1  27
ATOM     27  C   LIG    1        0.508   3.182   1.861  0.00  0.00    +0.480 C 
ATOM     28  O   LIG    1        1.604   3.390   1.396  0.00  0.00    -0.500 OA
BRANCH  27  30
ATOM     29  C   LIG    1        1.029   4.821   3.511  0.00  0.00    +0.270 C 
ATOM     30  O   LIG    1        0.101   3.857   2.948  0.00  0.00    -0.350 OA
ENDBRANCH  27  30
ENDBRANCH   1  27
TORSDOF 5
