REMARK  Name = ZINCpk00000xIcqX.2
REMARK                            x       y       z     vdW  Elec       q    Type
REMARK                         _______ _______ _______ _____ _____    ______ ____
ROOT
ATOM      1  C   LIG    1       -2.479   0.934   0.019  0.00  0.00    +0.160 C 
ATOM      2  C   LIG    1       -2.381   0.048   1.264  0.00  0.00    -0.010 C 
ATOM      3  C   LIG    1       -3.567  -0.919   1.287  0.00  0.00    +0.030 C 
ATOM      4  C   LIG    1       -4.872  -0.119   1.265  0.00  0.00    +0.160 C 
ATOM      5  N   LIG    1       -4.918   0.712   0.056  0.00  0.00    -0.520 NA
ATOM      6  C   LIG    1       -3.815   1.681   0.034  0.00  0.00    +0.200 C 
ENDROOT
BRANCH   1   7
ATOM      7  O   LIG    1       -2.399   0.121  -1.153  0.00  0.00    -0.540 OA
ATOM      8  H   LIG    1       -1.577  -0.383  -1.228  0.00  0.00    +0.380 HD
ENDBRANCH   1   7
BRANCH   1   9
ATOM      9  C   LIG    1       -1.330   1.944   0.019  0.00  0.00    +0.030 C 
BRANCH   9  12
ATOM     10  C   LIG    1        2.422   1.183  -0.015  0.00  0.00    +0.290 C 
ATOM     11  N   LIG    1        1.143   1.898   0.001  0.00  0.00    -0.620 N 
ATOM     12  C   LIG    1       -0.014   1.209   0.009  0.00  0.00    +0.520 C 
ATOM     13  O   LIG    1        0.002  -0.004   0.002  0.00  0.00    -0.540 OA
ATOM     14  C   LIG    1        1.124   3.363   0.009  0.00  0.00    +0.290 C 
ENDBRANCH   9  12
ENDBRANCH   1   9
BRANCH   5  15
ATOM     15  C   LIG    1       -6.216   1.389  -0.069  0.00  0.00    +0.230 C 
BRANCH  15  16
ATOM     16  C   LIG    1       -7.297   0.364  -0.296  0.00  0.00    -0.150 A 
ATOM     17  C   LIG    1       -7.643  -0.017  -1.586  0.00  0.00    +0.110 A 
ATOM     18  C   LIG    1       -8.637  -0.964  -1.750  0.00  0.00    -0.040 A 
ATOM     19  C   LIG    1       -9.262  -1.492  -0.625  0.00  0.00    +0.300 A 
ATOM     20  N   LIG    1       -8.907  -1.099   0.589  0.00  0.00    -0.520 NA
ATOM     21  C   LIG    1       -7.958  -0.202   0.776  0.00  0.00    +0.280 A 
BRANCH  19  22
ATOM     22  N   LIG    1      -10.267  -2.440  -0.776  0.00  0.00    -0.460 N 
ATOM     23  C   LIG    1       -9.745  -3.671  -1.423  0.00  0.00    +0.180 C 
ATOM     24  C   LIG    1      -10.791  -4.746  -1.036  0.00  0.00    +0.040 C 
ATOM     25  C   LIG    1      -11.168  -4.356   0.412  0.00  0.00    +0.010 C 
ATOM     26  C   LIG    1      -10.794  -2.868   0.538  0.00  0.00    +0.200 C 
ENDBRANCH  19  22
ENDBRANCH  15  16
ENDBRANCH   5  15
TORSDOF 6
