REMARK  Name = ZINCqH0000038xPG.0
REMARK                            x       y       z     vdW  Elec       q    Type
REMARK                         _______ _______ _______ _____ _____    ______ ____
ROOT
ATOM      1  N   LIG    1       -0.011   0.966   0.007  0.00  0.00    -0.740 N 
ATOM      2  H   LIG    1        0.002  -0.004   0.002  0.00  0.00    +0.410 HD
ENDROOT
BRANCH   1   6
ATOM      3  C   LIG    1       -3.650   2.998   0.035  0.00  0.00    +0.070 A 
ATOM      4  C   LIG    1       -3.630   1.611   0.028  0.00  0.00    +0.110 A 
ATOM      5  C   LIG    1       -2.424   0.937   0.019  0.00  0.00    -0.030 A 
ATOM      6  C   LIG    1       -1.231   1.648   0.017  0.00  0.00    +0.240 A 
ATOM      7  C   LIG    1       -1.250   3.037   0.030  0.00  0.00    -0.060 A 
ATOM      8  C   LIG    1       -2.456   3.711   0.033  0.00  0.00    +0.130 A 
ATOM      9  F   LIG    1       -2.476   5.062   0.040  0.00  0.00    -0.130 F 
BRANCH   3  13
ATOM     10  C   LIG    1       -7.010   6.641   0.070  0.00  0.00    +0.120 C 
ATOM     11  C   LIG    1       -6.368   5.278   0.060  0.00  0.00    -0.230 A 
ATOM     12  C   LIG    1       -5.039   5.024   0.052  0.00  0.00    +0.230 A 
ATOM     13  N   LIG    1       -4.876   3.682   0.045  0.00  0.00    -0.320 N 
ATOM     14  N   LIG    1       -6.148   3.095   0.042  0.00  0.00    -0.290 NA
ATOM     15  C   LIG    1       -7.041   4.052   0.057  0.00  0.00    +0.250 A 
ENDBRANCH   3  13
ENDBRANCH   1   6
BRANCH   1  16
ATOM     16  C   LIG    1        1.248   1.716  -0.001  0.00  0.00    +0.370 C 
BRANCH  16  17
ATOM     17  C   LIG    1        2.406   0.752  -0.017  0.00  0.00    +0.060 A 
ATOM     18  C   LIG    1        3.091   0.316   1.062  0.00  0.00    -0.040 A 
ATOM     19  C   LIG    1        4.089  -0.571   0.611  0.00  0.00    +0.120 A 
ATOM     20  N   LIG    1        3.999  -0.648  -0.700  0.00  0.00    -0.260 NA
ATOM     21  N   LIG    1        2.946   0.177  -1.114  0.00  0.00    -0.460 N 
ATOM     22  H   LIG    1        2.654   0.313  -2.029  0.00  0.00    +0.440 HD
BRANCH  19  23
ATOM     23  C   LIG    1        5.070  -1.287   1.462  0.00  0.00    +0.190 A 
ATOM     24  C   LIG    1        6.008  -2.132   0.874  0.00  0.00    +0.000 A 
ATOM     25  C   LIG    1        6.918  -2.793   1.681  0.00  0.00    +0.060 A 
ATOM     26  C   LIG    1        6.859  -2.586   3.052  0.00  0.00    -0.030 A 
ATOM     27  C   LIG    1        5.902  -1.733   3.569  0.00  0.00    +0.260 A 
ATOM     28  N   LIG    1        5.051  -1.112   2.778  0.00  0.00    -0.470 NA
ENDBRANCH  19  23
ENDBRANCH  16  17
ENDBRANCH   1  16
TORSDOF 5
