REMARK  Name = ZINCah0000002lZj.0
REMARK                            x       y       z     vdW  Elec       q    Type
REMARK                         _______ _______ _______ _____ _____    ______ ____
ROOT
ATOM      1  C   LIG    1       -2.514   1.067   0.020  0.00  0.00    +0.040 A 
ATOM      2  N   LIG    1       -3.407   2.023   0.030  0.00  0.00    -0.270 NA
ATOM      3  N   LIG    1       -2.738   3.253   0.034  0.00  0.00    -0.380 N 
ATOM      4  C   LIG    1       -1.402   3.001   0.031  0.00  0.00    +0.130 A 
ATOM      5  C   LIG    1       -3.365   4.577   0.046  0.00  0.00    +0.350 C 
ATOM      6  C   LIG    1       -1.240   1.653   0.017  0.00  0.00    +0.060 A 
ENDROOT
BRANCH   1   8
ATOM      7  C   LIG    1       -3.604  -0.781   1.263  0.00  0.00    +0.030 C 
ATOM      8  C   LIG    1       -2.804  -0.412   0.012  0.00  0.00    +0.070 C 
ATOM      9  C   LIG    1       -3.616  -0.766  -1.235  0.00  0.00    +0.030 C 
ENDBRANCH   1   8
BRANCH   6  10
ATOM     10  N   LIG    1       -0.011   0.966   0.007  0.00  0.00    -0.880 N 
ATOM     11  H   LIG    1        0.822   1.462   0.002  0.00  0.00    +0.400 HD
ATOM     12  H   LIG    1        0.002  -0.004   0.002  0.00  0.00    +0.400 HD
ENDBRANCH   6  10
TORSDOF 2
