REMARK  Name = ZINCpk00000khZxk.0
REMARK                            x       y       z     vdW  Elec       q    Type
REMARK                         _______ _______ _______ _____ _____    ______ ____
ROOT
ATOM      1  C   LIG    1        3.798  -0.321  -5.319  0.00  0.00    +0.120 A 
ATOM      2  C   LIG    1        5.098  -0.724  -5.585  0.00  0.00    -0.050 A 
ATOM      3  C   LIG    1        6.027  -0.800  -4.564  0.00  0.00    +0.060 A 
ATOM      4  C   LIG    1        5.661  -0.475  -3.266  0.00  0.00    +0.060 A 
ATOM      5  O   LIG    1        6.581  -0.563  -2.268  0.00  0.00    -0.310 OA
ATOM      6  C   LIG    1        6.331   0.171  -1.067  0.00  0.00    +0.250 C 
ATOM      7  C   LIG    1        4.902  -0.116  -0.597  0.00  0.00    +0.260 C 
ATOM      8  N   LIG    1        3.986   0.267  -1.686  0.00  0.00    -0.560 N 
ATOM      9  C   LIG    1        2.835   0.920  -1.431  0.00  0.00    +0.500 C 
ATOM     10  O   LIG    1        2.150   1.322  -2.348  0.00  0.00    -0.490 OA
ATOM     11  C   LIG    1        4.357  -0.069  -2.999  0.00  0.00    +0.120 A 
ATOM     12  C   LIG    1        3.427   0.007  -4.023  0.00  0.00    +0.020 A 
ENDROOT
BRANCH   1  14
ATOM     13  C   LIG    1        3.341  -0.602  -7.635  0.00  0.00    +0.250 C 
ATOM     14  O   LIG    1        2.888  -0.249  -6.327  0.00  0.00    -0.310 OA
ENDBRANCH   1  14
BRANCH   9  15
ATOM     15  C   LIG    1        2.398   1.151  -0.008  0.00  0.00    +0.320 C 
BRANCH  15  16
ATOM     16  N   LIG    1        1.125   1.876   0.001  0.00  0.00    -0.580 N 
ATOM     17  C   LIG    1        1.123   3.348   0.019  0.00  0.00    +0.290 C 
ATOM     18  C   LIG    1        0.674   3.820   1.403  0.00  0.00    +0.010 C 
ATOM     19  C   LIG    1       -0.840   3.907   1.480  0.00  0.00    +0.030 C 
ATOM     20  C   LIG    1       -1.536   2.561   1.395  0.00  0.00    +0.050 C 
ATOM     21  C   LIG    1       -1.344   1.939   0.003  0.00  0.00    +0.180 C 
ATOM     22  C   LIG    1       -0.023   1.199  -0.007  0.00  0.00    +0.510 C 
ATOM     23  O   LIG    1       -0.010  -0.014  -0.029  0.00  0.00    -0.540 OA
BRANCH  21  24
ATOM     24  O   LIG    1       -1.325   2.969  -0.987  0.00  0.00    -0.360 OA
ATOM     25  C   LIG    1       -1.794   2.550  -2.271  0.00  0.00    +0.210 C 
ENDBRANCH  21  24
ENDBRANCH  15  16
ENDBRANCH   9  15
TORSDOF 4
