REMARK  Name = ZINCnE000008Jbi5.0
REMARK                            x       y       z     vdW  Elec       q    Type
REMARK                         _______ _______ _______ _____ _____    ______ ____
ROOT
ATOM      1  S   LIG    1        0.002  -0.004   0.002  0.00  0.00    +2.610 S 
ATOM      2  O   LIG    1        0.564  -0.405   1.244  0.00  0.00    -1.020 OA
ATOM      3  O   LIG    1        0.540  -0.391  -1.255  0.00  0.00    -1.030 OA
ENDROOT
BRANCH   1  10
ATOM      4  C   LIG    1       -2.480  -0.286   1.113  0.00  0.00    +0.240 A 
ATOM      5  C   LIG    1       -3.799  -0.716   1.121  0.00  0.00    -0.090 A 
ATOM      6  C   LIG    1       -4.307  -1.404   0.036  0.00  0.00    +0.110 A 
ATOM      7  C   LIG    1       -3.501  -1.665  -1.058  0.00  0.00    -0.100 A 
ATOM      8  C   LIG    1       -2.187  -1.232  -1.070  0.00  0.00    +0.170 A 
ATOM      9 CL   LIG    1       -4.142  -2.530  -2.420  0.00  0.00    -0.080 Cl
ATOM     10  C   LIG    1       -1.674  -0.548   0.015  0.00  0.00    -0.640 A 
BRANCH   4  11
ATOM     11  O   LIG    1       -1.979   0.392   2.179  0.00  0.00    -0.280 OA
BRANCH  11  13
ATOM     12  C   LIG    1       -2.130   1.397   4.372  0.00  0.00    +0.060 C 
ATOM     13  C   LIG    1       -2.866   0.626   3.274  0.00  0.00    +0.170 C 
ENDBRANCH  11  13
ENDBRANCH   4  11
ENDBRANCH   1  10
BRANCH   1  14
ATOM     14  N   LIG    1       -0.020   1.652   0.011  0.00  0.00    -1.070 NA
BRANCH  14  15
ATOM     15  C   LIG    1        1.179   2.366   0.004  0.00  0.00    +0.310 A 
ATOM     16  C   LIG    1        1.141   3.729   0.011  0.00  0.00    -0.120 A 
ATOM     17  C   LIG    1        2.349   4.459   0.004  0.00  0.00    +0.160 A 
ATOM     18  N   LIG    1        2.656   5.743   0.008  0.00  0.00    -0.360 NA
ATOM     19  N   LIG    1        4.049   5.877  -0.005  0.00  0.00    -0.450 N 
ATOM     20  H   LIG    1        4.528   6.721  -0.004  0.00  0.00    +0.430 HD
ATOM     21  C   LIG    1        4.625   4.667  -0.016  0.00  0.00    +0.240 A 
ATOM     22  C   LIG    1        3.620   3.718  -0.012  0.00  0.00    -0.240 A 
ATOM     23  C   LIG    1        3.587   2.307  -0.019  0.00  0.00    +0.080 A 
ATOM     24  C   LIG    1        2.394   1.664  -0.006  0.00  0.00    -0.110 A 
ENDBRANCH  14  15
ENDBRANCH   1  14
TORSDOF 5
