REMARK  Name = ZINCrD00000l90bf.0
REMARK                            x       y       z     vdW  Elec       q    Type
REMARK                         _______ _______ _______ _____ _____    ______ ____
ROOT
ATOM      1  C   LIG    1       -0.014   1.211   0.009  0.00  0.00    +0.530 C 
ATOM      2  O   LIG    1        0.002  -0.004   0.002  0.00  0.00    -0.510 OA
ENDROOT
BRANCH   1   8
ATOM      3  N   LIG    1       -4.933   3.808   0.047  0.00  0.00    -0.380 N 
ATOM      4  N   LIG    1       -5.795   2.708   0.045  0.00  0.00    -0.230 NA
ATOM      5  C   LIG    1       -5.110   1.601   0.036  0.00  0.00    +0.310 A 
ATOM      6  C   LIG    1       -3.695   1.959   0.030  0.00  0.00    -0.240 A 
ATOM      7  C   LIG    1       -2.507   1.225   0.015  0.00  0.00    +0.240 A 
ATOM      8  C   LIG    1       -1.302   1.931   0.019  0.00  0.00    -0.230 A 
ATOM      9  C   LIG    1       -1.331   3.333   0.026  0.00  0.00    +0.410 A 
ATOM     10  N   LIG    1       -2.466   3.992   0.035  0.00  0.00    -0.510 NA
ATOM     11  C   LIG    1       -3.639   3.369   0.038  0.00  0.00    +0.340 A 
BRANCH   3  13
ATOM     12  C   LIG    1       -6.194   5.502  -1.187  0.00  0.00    +0.050 C 
ATOM     13  C   LIG    1       -5.351   5.212   0.057  0.00  0.00    +0.270 C 
ATOM     14  C   LIG    1       -6.181   5.489   1.312  0.00  0.00    +0.050 C 
ENDBRANCH   3  13
ENDBRANCH   1   8
BRANCH   1  15
ATOM     15  O   LIG    1        1.143   1.900   0.001  0.00  0.00    -0.320 OA
BRANCH  15  16
ATOM     16  C   LIG    1        2.371   1.126  -0.015  0.00  0.00    +0.180 C 
ATOM     17  C   LIG    1        2.817   0.846   1.422  0.00  0.00    +0.070 C 
BRANCH  16  18
ATOM     18  C   LIG    1        3.446   1.903  -0.731  0.00  0.00    +0.520 C 
ATOM     19  N   LIG    1        4.648   1.338  -0.958  0.00  0.00    -0.730 N 
ATOM     20  H   LIG    1        4.822   0.432  -0.659  0.00  0.00    +0.400 HD
ATOM     21  O   LIG    1        3.228   3.036  -1.104  0.00  0.00    -0.510 OA
BRANCH  19  22
ATOM     22  C   LIG    1        5.693   2.094  -1.654  0.00  0.00    +0.240 C 
ATOM     23  C   LIG    1        5.469   1.968  -3.175  0.00  0.00    +0.020 C 
ATOM     24  C   LIG    1        6.178   3.108  -3.857  0.00  0.00    +0.000 C 
ATOM     25  C   LIG    1        7.595   2.723  -4.324  0.00  0.00    +0.000 C 
ATOM     26  C   LIG    1        8.357   1.877  -3.286  0.00  0.00    +0.000 C 
ATOM     27  C   LIG    1        8.158   2.374  -1.880  0.00  0.00    +0.030 C 
ATOM     28  C   LIG    1        6.994   1.588  -1.243  0.00  0.00    +0.010 C 
ENDBRANCH  19  22
ENDBRANCH  16  18
ENDBRANCH  15  16
ENDBRANCH   1  15
TORSDOF 6
