REMARK  Name = ZINCqH0000007Q5n.0
REMARK                            x       y       z     vdW  Elec       q    Type
REMARK                         _______ _______ _______ _____ _____    ______ ____
ROOT
ATOM      1  N   LIG    1       -3.058   1.279  -1.899  0.00  0.00    -0.490 N 
ATOM      2  C   LIG    1       -2.946   2.475  -2.745  0.00  0.00    +0.180 C 
ATOM      3  C   LIG    1       -4.001   3.501  -2.316  0.00  0.00    +0.290 C 
ATOM      4  N   LIG    1       -3.856   3.744  -0.873  0.00  0.00    -0.600 N 
ATOM      5  C   LIG    1       -3.821   2.583   0.029  0.00  0.00    +0.300 C 
ATOM      6  C   LIG    1       -3.757   4.998  -0.389  0.00  0.00    +0.560 C 
ATOM      7  O   LIG    1       -3.724   5.186   0.809  0.00  0.00    -0.530 OA
ATOM      8  C   LIG    1       -2.773   1.593  -0.493  0.00  0.00    +0.180 C 
ENDROOT
BRANCH   1  14
ATOM      9  C   LIG    1       -2.774  -0.934  -2.836  0.00  0.00    +0.150 A 
ATOM     10  C   LIG    1       -1.944  -1.940  -3.300  0.00  0.00    -0.080 A 
ATOM     11  C   LIG    1       -0.572  -1.764  -3.294  0.00  0.00    +0.050 A 
ATOM     12  C   LIG    1       -0.025  -0.584  -2.825  0.00  0.00    -0.030 A 
ATOM     13  C   LIG    1       -0.848   0.426  -2.361  0.00  0.00    +0.010 A 
ATOM     14  C   LIG    1       -2.224   0.256  -2.364  0.00  0.00    +0.050 A 
BRANCH   9  16
ATOM     15  C   LIG    1       -4.616  -2.352  -3.340  0.00  0.00    +0.220 C 
ATOM     16  O   LIG    1       -4.123  -1.106  -2.841  0.00  0.00    -0.300 OA
ENDBRANCH   9  16
ENDBRANCH   1  14
BRANCH   6  17
ATOM     17  C   LIG    1       -3.688   6.168  -1.337  0.00  0.00    -0.130 C 
ATOM     18  C   LIG    1       -4.269   7.500  -0.859  0.00  0.00    +0.090 C 
ATOM     19  C   LIG    1       -5.004   6.682  -1.923  0.00  0.00    +0.060 C 
BRANCH  17  20
ATOM     20  C   LIG    1       -2.467   6.218  -2.220  0.00  0.00    -0.040 A 
ATOM     21  C   LIG    1       -2.609   6.258  -3.594  0.00  0.00    +0.040 A 
ATOM     22  C   LIG    1       -1.490   6.309  -4.404  0.00  0.00    +0.040 A 
ATOM     23  C   LIG    1       -0.227   6.308  -3.839  0.00  0.00    -0.030 A 
ATOM     24  C   LIG    1       -0.086   6.262  -2.463  0.00  0.00    +0.040 A 
ATOM     25 CL   LIG    1        1.179   6.364  -4.855  0.00  0.00    -0.070 Cl
ATOM     26  C   LIG    1       -1.205   6.218  -1.654  0.00  0.00    +0.040 A 
ENDBRANCH  17  20
ENDBRANCH   6  17
TORSDOF 4
