REMARK  Name = ZINCvU0000000CvR.0
REMARK                            x       y       z     vdW  Elec       q    Type
REMARK                         _______ _______ _______ _____ _____    ______ ____
ROOT
ATOM      1  C   LIG    1       -1.015   3.663  -0.366  0.00  0.00    +0.240 C 
ATOM      2  C   LIG    1        0.147   4.562   0.080  0.00  0.00    +0.300 C 
ATOM      3  N   LIG    1       -0.248   5.243   1.322  0.00  0.00    -0.550 N 
ATOM      4  C   LIG    1       -1.528   5.809   1.404  0.00  0.00    +0.130 A 
ATOM      5  C   LIG    1       -1.821   6.735   2.392  0.00  0.00    +0.020 A 
ATOM      6  C   LIG    1       -3.088   7.285   2.467  0.00  0.00    +0.020 A 
ATOM      7  C   LIG    1       -4.063   6.915   1.560  0.00  0.00    +0.010 A 
ATOM      8  C   LIG    1       -3.779   5.992   0.570  0.00  0.00    +0.040 A 
ATOM      9  C   LIG    1       -2.512   5.436   0.487  0.00  0.00    +0.120 A 
ATOM     10  C   LIG    1        0.605   5.321   2.363  0.00  0.00    +0.570 C 
ATOM     11  O   LIG    1        0.177   5.497   3.487  0.00  0.00    -0.490 OA
ATOM     12  N   LIG    1       -2.214   4.501  -0.514  0.00  0.00    -0.540 N 
ATOM     13  C   LIG    1       -3.012   4.373  -1.593  0.00  0.00    +0.570 C 
ATOM     14  O   LIG    1       -4.061   4.984  -1.649  0.00  0.00    -0.500 OA
ENDROOT
BRANCH  10  15
ATOM     15  C   LIG    1        2.060   5.193   2.138  0.00  0.00    -0.110 A 
ATOM     16  C   LIG    1        2.566   5.137   0.838  0.00  0.00    +0.030 A 
ATOM     17  C   LIG    1        3.925   5.024   0.633  0.00  0.00    +0.050 A 
ATOM     18  C   LIG    1        4.788   4.954   1.712  0.00  0.00    +0.020 A 
ATOM     19  C   LIG    1        4.293   5.003   3.006  0.00  0.00    +0.100 A 
ATOM     20  F   LIG    1        5.141   4.934   4.055  0.00  0.00    -0.130 F 
ATOM     21  C   LIG    1        2.934   5.122   3.224  0.00  0.00    +0.060 A 
ENDBRANCH  10  15
BRANCH  13  22
ATOM     22  C   LIG    1       -2.611   3.489  -2.708  0.00  0.00    -0.100 A 
ATOM     23  C   LIG    1       -2.077   4.033  -3.877  0.00  0.00    +0.050 A 
ATOM     24  C   LIG    1       -1.705   3.204  -4.914  0.00  0.00    +0.050 A 
ATOM     25  C   LIG    1       -1.859   1.834  -4.799  0.00  0.00    +0.010 A 
ATOM     26  C   LIG    1       -2.387   1.286  -3.641  0.00  0.00    +0.100 A 
ATOM     27  F   LIG    1       -2.535  -0.053  -3.535  0.00  0.00    -0.130 F 
ATOM     28  C   LIG    1       -2.759   2.106  -2.593  0.00  0.00    +0.010 A 
ENDBRANCH  13  22
BRANCH   1  30
ATOM     29  C   LIG    1       -2.425   1.691   0.239  0.00  0.00    +0.030 C 
ATOM     30  C   LIG    1       -1.266   2.584   0.689  0.00  0.00    -0.030 C 
ATOM     31  C   LIG    1       -0.005   1.734   0.861  0.00  0.00    +0.040 C 
ENDBRANCH   1  30
TORSDOF 3
