REMARK  Name = ZINCqH00000380vg.0
REMARK                            x       y       z     vdW  Elec       q    Type
REMARK                         _______ _______ _______ _____ _____    ______ ____
ROOT
ATOM      1  C   LIG    1       -2.718   3.911   0.072  0.00  0.00    +0.110 C 
ATOM      2  C   LIG    1       -1.375   3.228   0.045  0.00  0.00    -0.090 A 
ATOM      3  C   LIG    1       -1.297   1.856   0.195  0.00  0.00    +0.030 A 
ATOM      4  C   LIG    1       -0.071   1.224   0.177  0.00  0.00    +0.030 A 
ATOM      5  C   LIG    1        1.096   1.968  -0.003  0.00  0.00    -0.110 A 
ATOM      6  C   LIG    1        1.017   3.352  -0.160  0.00  0.00    +0.090 A 
ATOM      7  C   LIG    1       -0.219   3.978  -0.135  0.00  0.00    +0.140 A 
ENDROOT
BRANCH   5   8
ATOM      8  C   LIG    1        2.411   1.292  -0.028  0.00  0.00    +0.560 C 
ATOM      9  N   LIG    1        2.519   0.048  -0.534  0.00  0.00    -0.600 N 
ATOM     10  C   LIG    1        1.366  -0.606  -1.168  0.00  0.00    +0.260 C 
ATOM     11  C   LIG    1        1.779  -1.074  -2.571  0.00  0.00    -0.030 C 
ATOM     12  C   LIG    1        3.022  -1.960  -2.462  0.00  0.00    +0.030 C 
ATOM     13  C   LIG    1        4.176  -1.153  -1.864  0.00  0.00    -0.030 C 
ATOM     14  C   LIG    1        5.427  -2.030  -1.785  0.00  0.00    +0.030 C 
ATOM     15  C   LIG    1        2.095   0.141  -3.446  0.00  0.00    +0.020 C 
ATOM     16  C   LIG    1        3.791  -0.683  -0.457  0.00  0.00    +0.280 C 
ATOM     17  O   LIG    1        3.394   1.859   0.407  0.00  0.00    -0.530 OA
ENDBRANCH   5   8
BRANCH   7  18
ATOM     18  N   LIG    1       -0.303   5.366  -0.292  0.00  0.00    -0.650 N 
ATOM     19  H   LIG    1       -1.120   5.767  -0.628  0.00  0.00    +0.420 HD
ATOM     20  C   LIG    1        0.750   6.145   0.023  0.00  0.00    +0.570 C 
ATOM     21  O   LIG    1        1.737   5.654   0.536  0.00  0.00    -0.500 OA
BRANCH  20  22
ATOM     22  C   LIG    1        0.706   7.599  -0.256  0.00  0.00    +0.070 A 
ATOM     23  C   LIG    1        1.796   8.400   0.077  0.00  0.00    +0.040 A 
ATOM     24  C   LIG    1        1.742   9.758  -0.195  0.00  0.00    +0.070 A 
ATOM     25  C   LIG    1        0.594  10.269  -0.781  0.00  0.00    +0.000 A 
ATOM     26  C   LIG    1       -0.455   9.415  -1.080  0.00  0.00    +0.270 A 
ATOM     27  N   LIG    1       -0.375   8.129  -0.816  0.00  0.00    -0.460 NA
ENDBRANCH  20  22
ENDBRANCH   7  18
TORSDOF 3
