REMARK  Name = ZINCnE000001FwAE.0
REMARK                            x       y       z     vdW  Elec       q    Type
REMARK                         _______ _______ _______ _____ _____    ______ ____
ROOT
ATOM      1  N   LIG    1        1.052  -0.365   0.927  0.00  0.00    -0.740 N 
ATOM      2  H   LIG    1        0.494  -0.583   1.690  0.00  0.00    +0.390 HD
ATOM      3  C   LIG    1        2.388  -0.526   1.001  0.00  0.00    +0.710 C 
ATOM      4  N   LIG    1        2.959  -0.893   2.165  0.00  0.00    -0.620 N 
ATOM      5  C   LIG    1        2.131  -1.221   3.334  0.00  0.00    +0.260 C 
ATOM      6  C   LIG    1        2.591  -0.378   4.522  0.00  0.00    +0.000 C 
ATOM      7  C   LIG    1        4.093  -0.581   4.737  0.00  0.00    +0.060 C 
ATOM      8  C   LIG    1        4.855  -0.122   3.493  0.00  0.00    +0.010 C 
ATOM      9  C   LIG    1        4.421  -0.968   2.292  0.00  0.00    +0.290 C 
ATOM     10  O   LIG    1        3.078  -0.341   0.017  0.00  0.00    -0.600 OA
ENDROOT
BRANCH   7  11
ATOM     11  C   LIG    1        4.542   0.227   5.928  0.00  0.00    -0.030 A 
ATOM     12  C   LIG    1        4.249   1.572   6.001  0.00  0.00    -0.030 A 
ATOM     13  C   LIG    1        4.655   2.314   7.096  0.00  0.00    -0.020 A 
ATOM     14  C   LIG    1        5.369   1.716   8.119  0.00  0.00    -0.040 A 
ATOM     15  C   LIG    1        5.675   0.372   8.057  0.00  0.00    +0.040 A 
ATOM     16  C   LIG    1        5.263  -0.385   6.957  0.00  0.00    -0.140 A 
BRANCH  16  17
ATOM     17  C   LIG    1        5.586  -1.822   6.883  0.00  0.00    +0.530 C 
ATOM     18  O   LIG    1        5.110  -2.511   5.992  0.00  0.00    -0.660 OA
ATOM     19  O   LIG    1        6.329  -2.325   7.714  0.00  0.00    -0.680 OA
ENDBRANCH  16  17
ENDBRANCH   7  11
BRANCH   1  20
ATOM     20  C   LIG    1        0.442   0.140  -0.306  0.00  0.00    +0.250 C 
ATOM     21  C   LIG    1        0.480   1.670  -0.304  0.00  0.00    +0.010 C 
BRANCH  20  22
ATOM     22  C   LIG    1       -1.010  -0.334  -0.388  0.00  0.00    +0.020 C 
BRANCH  22  24
ATOM     23  C   LIG    1       -2.495  -2.332  -0.598  0.00  0.00    +0.000 C 
ATOM     24  C   LIG    1       -1.042  -1.858  -0.516  0.00  0.00    -0.010 C 
ENDBRANCH  22  24
ENDBRANCH  20  22
ENDBRANCH   1  20
TORSDOF 5
