REMARK  Name = ZINCtV000002L5qQ.0
REMARK                            x       y       z     vdW  Elec       q    Type
REMARK                         _______ _______ _______ _____ _____    ______ ____
ROOT
ATOM      1  C   LIG    1        1.132   5.926   1.440  0.00  0.00    +0.170 A 
ATOM      2  N   LIG    1        1.119   6.527   0.271  0.00  0.00    -0.280 NA
ATOM      3  N   LIG    1        1.098   7.802   0.428  0.00  0.00    -0.240 NA
ATOM      4  C   LIG    1        1.106   8.098   1.710  0.00  0.00    +0.270 A 
ATOM      5  N   LIG    1        1.128   6.903   2.399  0.00  0.00    -0.420 N 
ENDROOT
BRANCH   5   6
ATOM      6  C   LIG    1        1.143   6.726   3.790  0.00  0.00    +0.100 A 
ATOM      7  C   LIG    1        0.058   7.133   4.554  0.00  0.00    +0.070 A 
ATOM      8  C   LIG    1        0.072   6.953   5.923  0.00  0.00    +0.050 A 
ATOM      9  C   LIG    1        1.172   6.377   6.535  0.00  0.00    -0.020 A 
ATOM     10  C   LIG    1        2.257   5.976   5.776  0.00  0.00    +0.050 A 
ATOM     11 CL   LIG    1        1.191   6.159   8.257  0.00  0.00    -0.050 Cl
ATOM     12  C   LIG    1        2.245   6.149   4.405  0.00  0.00    +0.060 A 
ENDBRANCH   5   6
BRANCH   4  13
ATOM     13  C   LIG    1        1.094   9.446   2.297  0.00  0.00    +0.030 A 
ATOM     14  C   LIG    1        1.363  10.608   1.638  0.00  0.00    +0.030 A 
ATOM     15  C   LIG    1        1.234  11.648   2.579  0.00  0.00    -0.050 A 
ATOM     16  C   LIG    1        0.904  11.078   3.755  0.00  0.00    +0.200 A 
ATOM     17  O   LIG    1        0.820   9.748   3.581  0.00  0.00    -0.170 OA
ENDBRANCH   4  13
BRANCH   1  18
ATOM     18  S   LIG    1        1.159   4.186   1.720  0.00  0.00    +0.030 S 
BRANCH  18  19
ATOM     19  C   LIG    1        1.150   3.592   0.010  0.00  0.00    +0.160 C 
BRANCH  19  24
ATOM     20  C   LIG    1        0.002  -0.004   0.002  0.00  0.00    -0.180 A 
ATOM     21  C   LIG    1        1.208  -0.679  -0.014  0.00  0.00    +0.080 A 
ATOM     22  C   LIG    1        2.396   0.029  -0.021  0.00  0.00    +0.020 A 
ATOM     23  C   LIG    1        2.377   1.411  -0.014  0.00  0.00    +0.070 A 
ATOM     24  C   LIG    1        1.171   2.086   0.002  0.00  0.00    -0.090 A 
ATOM     25  C   LIG    1       -0.017   1.378   0.010  0.00  0.00    +0.090 A 
BRANCH  20  27
ATOM     26  F   LIG    1       -1.706  -1.007  -1.306  0.00  0.00    -0.170 F 
ATOM     27  C   LIG    1       -1.293  -0.775   0.010  0.00  0.00    +0.510 C 
ATOM     28  F   LIG    1       -2.271  -0.036   0.683  0.00  0.00    -0.180 F 
ATOM     29  F   LIG    1       -1.103  -1.999   0.661  0.00  0.00    -0.180 F 
ENDBRANCH  20  27
ENDBRANCH  19  24
ENDBRANCH  18  19
ENDBRANCH   1  18
TORSDOF 6
