REMARK  Name = ZINCrg00000cc0BF.0
REMARK                            x       y       z     vdW  Elec       q    Type
REMARK                         _______ _______ _______ _____ _____    ______ ____
ROOT
ATOM      1  C   LIG    1        1.691   2.317   1.460  0.00  0.00    -0.060 C 
ATOM      2  C   LIG    1        0.803   3.322   2.077  0.00  0.00    +0.200 C 
ATOM      3  O   LIG    1       -0.563   2.919   2.138  0.00  0.00    -0.360 OA
ATOM      4  C   LIG    1       -1.296   3.243   0.983  0.00  0.00    +0.210 C 
ATOM      5  C   LIG    1       -1.328   2.033   0.020  0.00  0.00    +0.240 C 
ATOM      6  N   LIG    1       -0.016   1.344   0.009  0.00  0.00    -0.600 N 
ATOM      7  C   LIG    1        0.002  -0.004   0.002  0.00  0.00    +0.500 C 
ATOM      8  O   LIG    1        1.060  -0.596  -0.011  0.00  0.00    -0.520 OA
ATOM      9  C   LIG    1        1.244   2.050   0.001  0.00  0.00    +0.290 C 
ENDROOT
BRANCH   1  10
ATOM     10  C   LIG    1        3.130   2.838   1.464  0.00  0.00    +0.290 C 
BRANCH  10  13
ATOM     11  O   LIG    1        5.581   3.711   2.173  0.00  0.00    -0.530 OA
ATOM     12  C   LIG    1        4.842   3.423   3.095  0.00  0.00    +0.580 C 
ATOM     13  N   LIG    1        3.595   2.977   2.846  0.00  0.00    -0.730 N 
ATOM     14  H   LIG    1        3.006   2.748   3.581  0.00  0.00    +0.400 HD
BRANCH  12  15
ATOM     15  C   LIG    1        5.310   3.563   4.484  0.00  0.00    -0.150 A 
ATOM     16  C   LIG    1        4.544   3.263   5.566  0.00  0.00    -0.030 A 
ATOM     17  S   LIG    1        5.402   3.542   7.013  0.00  0.00    +0.250 S 
ATOM     18  C   LIG    1        6.832   4.079   6.149  0.00  0.00    -0.170 A 
ATOM     19 CL   LIG    1        8.307   4.597   6.904  0.00  0.00    -0.000 Cl
ATOM     20  C   LIG    1        6.631   4.028   4.836  0.00  0.00    +0.090 A 
ENDBRANCH  12  15
ENDBRANCH  10  13
ENDBRANCH   1  10
BRANCH   7  21
ATOM     21  C   LIG    1       -1.293  -0.775   0.010  0.00  0.00    +0.340 C 
BRANCH  21  22
ATOM     22  N   LIG    1       -1.005  -2.212  -0.000  0.00  0.00    -0.610 N 
ATOM     23  C   LIG    1       -0.883  -2.909  -1.281  0.00  0.00    +0.270 C 
ATOM     24  C   LIG    1        0.078  -4.095  -1.116  0.00  0.00    +0.030 C 
ATOM     25  C   LIG    1       -0.440  -4.983   0.021  0.00  0.00    +0.260 C 
ATOM     26  N   LIG    1       -0.592  -4.174   1.232  0.00  0.00    -0.740 N 
ATOM     27  H   LIG    1       -0.492  -4.595   2.100  0.00  0.00    +0.420 HD
ATOM     28  C   LIG    1       -0.866  -2.862   1.164  0.00  0.00    +0.720 C 
ATOM     29  O   LIG    1       -0.992  -2.239   2.200  0.00  0.00    -0.600 OA
ENDBRANCH  21  22
ENDBRANCH   7  21
TORSDOF 5
