REMARK  Name = ZINCrH000004jNnT.2
REMARK                            x       y       z     vdW  Elec       q    Type
REMARK                         _______ _______ _______ _____ _____    ______ ____
ROOT
ATOM      1  C   LIG    1        5.985  -0.506   1.278  0.00  0.00    +0.510 C 
ATOM      2  N   LIG    1        6.426  -1.755   1.030  0.00  0.00    -0.680 N 
ATOM      3  H   LIG    1        6.120  -2.230   0.242  0.00  0.00    +0.410 HD
ATOM      4  O   LIG    1        6.427   0.118   2.219  0.00  0.00    -0.490 OA
ENDROOT
BRANCH   2   5
ATOM      5  C   LIG    1        7.326  -2.368   1.911  0.00  0.00    +0.160 A 
ATOM      6  C   LIG    1        7.247  -3.734   2.146  0.00  0.00    +0.000 A 
ATOM      7  C   LIG    1        8.134  -4.342   3.015  0.00  0.00    +0.040 A 
ATOM      8  C   LIG    1        9.102  -3.585   3.652  0.00  0.00    +0.050 A 
ATOM      9  O   LIG    1        9.981  -4.176   4.513  0.00  0.00    -0.320 OA
ATOM     10  C   LIG    1       11.342  -4.225   4.081  0.00  0.00    +0.220 C 
ATOM     11  C   LIG    1       12.061  -2.927   4.414  0.00  0.00    -0.020 C 
ATOM     12  C   LIG    1       11.491  -1.738   3.656  0.00  0.00    +0.230 C 
ATOM     13  O   LIG    1       10.143  -1.483   4.054  0.00  0.00    -0.320 OA
ATOM     14  C   LIG    1        9.184  -2.219   3.420  0.00  0.00    +0.090 A 
ATOM     15  C   LIG    1        8.302  -1.608   2.546  0.00  0.00    +0.030 A 
ENDBRANCH   2   5
BRANCH   1  16
ATOM     16  C   LIG    1        4.942   0.116   0.385  0.00  0.00    +0.220 C 
BRANCH  16  18
ATOM     17  C   LIG    1        3.839   1.425   2.097  0.00  0.00    +0.200 C 
ATOM     18  N   LIG    1        4.633   1.470   0.862  0.00  0.00    -0.510 NA
BRANCH  18  19
ATOM     19  C   LIG    1        3.948   2.251  -0.176  0.00  0.00    +0.230 C 
ATOM     20  C   LIG    1        2.692   1.505  -0.622  0.00  0.00    -0.010 C 
ATOM     21  C   LIG    1        2.112   2.221  -1.847  0.00  0.00    +0.020 C 
ATOM     22  C   LIG    1        3.055   1.998  -3.027  0.00  0.00    +0.080 C 
ATOM     23  C   LIG    1        4.469   2.353  -2.649  0.00  0.00    -0.070 A 
ATOM     24  C   LIG    1        5.378   2.572  -3.676  0.00  0.00    -0.010 A 
ATOM     25  C   LIG    1        6.691   2.889  -3.395  0.00  0.00    +0.010 A 
ATOM     26  C   LIG    1        7.106   2.990  -2.080  0.00  0.00    -0.010 A 
ATOM     27  C   LIG    1        6.205   2.775  -1.058  0.00  0.00    +0.040 A 
ATOM     28  C   LIG    1        4.882   2.458  -1.339  0.00  0.00    -0.080 A 
ENDBRANCH  18  19
ENDBRANCH  16  18
ENDBRANCH   1  16
TORSDOF 4
