REMARK  Name = ZINCqH0000035ETg.0
REMARK                            x       y       z     vdW  Elec       q    Type
REMARK                         _______ _______ _______ _____ _____    ______ ____
ROOT
ATOM      1  C   LIG    1        1.668   4.185   0.007  0.00  0.00    +0.370 C 
ATOM      2  C   LIG    1        2.535   4.105  -1.251  0.00  0.00    +0.060 C 
ENDROOT
BRANCH   1   6
ATOM      3  C   LIG    1        4.615   2.408   3.630  0.00  0.00    +0.150 A 
ATOM      4  C   LIG    1        3.845   3.213   2.794  0.00  0.00    +0.030 A 
ATOM      5  O   LIG    1        3.116   2.968   1.685  0.00  0.00    -0.150 OA
ATOM      6  C   LIG    1        2.545   4.096   1.229  0.00  0.00    +0.020 A 
ATOM      7  C   LIG    1        2.865   5.128   2.021  0.00  0.00    -0.160 A 
ATOM      8  C   LIG    1        2.427   6.561   1.861  0.00  0.00    +0.120 C 
ATOM      9  C   LIG    1        3.729   4.583   3.075  0.00  0.00    -0.090 A 
ATOM     10  C   LIG    1        4.380   5.129   4.181  0.00  0.00    +0.020 A 
ATOM     11  C   LIG    1        5.137   4.318   4.997  0.00  0.00    -0.060 A 
ATOM     12  C   LIG    1        5.841   4.905   6.194  0.00  0.00    +0.100 C 
ATOM     13  C   LIG    1        5.255   2.963   4.723  0.00  0.00    -0.050 A 
BRANCH   3  15
ATOM     14  C   LIG    1        5.543   0.315   4.273  0.00  0.00    +0.250 C 
ATOM     15  O   LIG    1        4.738   1.078   3.373  0.00  0.00    -0.310 OA
ENDBRANCH   3  15
ENDBRANCH   1   6
BRANCH   1  16
ATOM     16  N   LIG    1        0.710   3.076   0.011  0.00  0.00    -0.580 N 
ATOM     17  C   LIG    1        1.057   1.784   0.002  0.00  0.00    +0.700 C 
ATOM     18  N   LIG    1       -0.011   0.966   0.007  0.00  0.00    -0.730 N 
ATOM     19  H   LIG    1        0.002  -0.004   0.002  0.00  0.00    +0.440 HD
ATOM     20  C   LIG    1       -1.204   1.830   0.017  0.00  0.00    +0.230 C 
ATOM     21  O   LIG    1        2.207   1.393  -0.011  0.00  0.00    -0.510 OA
ATOM     22  C   LIG    1       -0.628   3.232   0.024  0.00  0.00    +0.530 C 
ATOM     23  O   LIG    1       -1.244   4.276   0.034  0.00  0.00    -0.460 OA
BRANCH  20  24
ATOM     24  C   LIG    1       -2.047   1.598  -1.239  0.00  0.00    +0.090 C 
BRANCH  24  25
ATOM     25  C   LIG    1       -2.627   0.182  -1.209  0.00  0.00    +0.080 C 
BRANCH  25  26
ATOM     26  S   LIG    1       -3.626  -0.093  -2.698  0.00  0.00    -0.250 S 
ATOM     27  C   LIG    1       -4.218  -1.794  -2.484  0.00  0.00    +0.140 C 
ENDBRANCH  25  26
ENDBRANCH  24  25
ENDBRANCH  20  24
ENDBRANCH   1  16
TORSDOF 6
