REMARK  Name = ZINCrD000000Al6c.0
REMARK                            x       y       z     vdW  Elec       q    Type
REMARK                         _______ _______ _______ _____ _____    ______ ____
ROOT
ATOM      1  O   LIG    1       -1.186  10.157   0.069  0.00  0.00    -0.420 OA
ATOM      2  C   LIG    1       -0.128   9.565   0.055  0.00  0.00    +0.380 C 
ENDROOT
BRANCH   2   3
ATOM      3  C   LIG    1       -0.108   8.095   0.046  0.00  0.00    -0.170 A 
ATOM      4  C   LIG    1       -1.310   7.377   0.053  0.00  0.00    +0.090 A 
ATOM      5  C   LIG    1       -1.289   6.007   0.045  0.00  0.00    +0.010 A 
ATOM      6  C   LIG    1       -0.070   5.327   0.030  0.00  0.00    -0.000 A 
ATOM      7  C   LIG    1        1.129   6.040   0.029  0.00  0.00    +0.020 A 
ATOM      8  C   LIG    1        1.113   7.410   0.031  0.00  0.00    +0.070 A 
BRANCH   6   9
ATOM      9  C   LIG    1       -0.050   3.844   0.023  0.00  0.00    -0.060 A 
ATOM     10  C   LIG    1        1.165   3.161   0.008  0.00  0.00    +0.030 A 
ATOM     11  C   LIG    1        1.178   1.781   0.000  0.00  0.00    +0.010 A 
ATOM     12  C   LIG    1       -0.013   1.076   0.008  0.00  0.00    +0.020 A 
ATOM     13  C   LIG    1       -1.221   1.748   0.017  0.00  0.00    +0.010 A 
ATOM     14  C   LIG    1       -1.246   3.128   0.030  0.00  0.00    +0.030 A 
ENDBRANCH   6   9
ENDBRANCH   2   3
BRANCH   2  15
ATOM     15  C   LIG    1        1.167  10.336   0.047  0.00  0.00    +0.360 C 
BRANCH  15  16
ATOM     16  N   LIG    1        0.880  11.773   0.059  0.00  0.00    -0.920 N 
ATOM     17  C   LIG    1        0.641  12.540   1.132  0.00  0.00    +0.540 C 
ATOM     18  C   LIG    1        0.374  13.968   0.912  0.00  0.00    -0.110 A 
ATOM     19  C   LIG    1        0.097  14.989   1.837  0.00  0.00    +0.110 A 
ATOM     20  C   LIG    1       -0.126  16.276   1.405  0.00  0.00    +0.070 A 
ATOM     21  C   LIG    1       -0.081  16.592   0.059  0.00  0.00    +0.060 A 
ATOM     22  C   LIG    1        0.192  15.597  -0.869  0.00  0.00    +0.160 A 
ATOM     23  C   LIG    1        0.413  14.317  -0.444  0.00  0.00    -0.620 A 
ATOM     24  O   LIG    1        0.645  12.069   2.252  0.00  0.00    -0.460 OA
ATOM     25  S   LIG    1        0.790  12.792  -1.263  0.00  0.00    +2.660 S 
ATOM     26  O   LIG    1       -0.356  12.418  -2.015  0.00  0.00    -0.910 OA
ATOM     27  O   LIG    1        2.099  12.907  -1.804  0.00  0.00    -0.920 OA
ENDBRANCH  15  16
ENDBRANCH   2  15
TORSDOF 4
