REMARK  Name = ZINCrH00000No4EB.0
REMARK                            x       y       z     vdW  Elec       q    Type
REMARK                         _______ _______ _______ _____ _____    ______ ____
ROOT
ATOM      1  C   LIG    1        1.087   1.917  -0.139  0.00  0.00    -0.230 A 
ATOM      2  C   LIG    1       -0.026   1.105  -0.252  0.00  0.00    +0.270 A 
ATOM      3  N   LIG    1       -1.111   1.860  -0.013  0.00  0.00    -0.360 N 
ATOM      4  N   LIG    1       -0.720   3.172   0.267  0.00  0.00    -0.250 NA
ATOM      5  C   LIG    1        0.589   3.255   0.200  0.00  0.00    +0.150 A 
ENDROOT
BRANCH   5   6
ATOM      6  C   LIG    1        1.408   4.470   0.424  0.00  0.00    -0.050 A 
ATOM      7  C   LIG    1        2.532   4.414   1.246  0.00  0.00    +0.080 A 
ATOM      8  C   LIG    1        3.295   5.547   1.447  0.00  0.00    -0.030 A 
ATOM      9  C   LIG    1        2.941   6.741   0.844  0.00  0.00    +0.060 A 
ATOM     10  C   LIG    1        1.825   6.809   0.032  0.00  0.00    -0.080 A 
ATOM     11  C   LIG    1        1.054   5.679  -0.184  0.00  0.00    +0.160 A 
BRANCH  11  12
ATOM     12  O   LIG    1       -0.043   5.744  -0.982  0.00  0.00    -0.300 OA
ATOM     13  C   LIG    1       -0.344   7.012  -1.569  0.00  0.00    +0.250 C 
ENDBRANCH  11  12
ENDBRANCH   5   6
BRANCH   1  15
ATOM     14  C   LIG    1        2.821   0.210  -0.349  0.00  0.00    -0.140 C 
ATOM     15  C   LIG    1        2.488   1.520  -0.322  0.00  0.00    +0.200 C 
BRANCH  14  18
ATOM     16  N   LIG    1        4.505  -1.480  -0.553  0.00  0.00    -0.730 N 
ATOM     17  H   LIG    1        3.818  -2.157  -0.452  0.00  0.00    +0.400 HD
ATOM     18  C   LIG    1        4.174  -0.174  -0.526  0.00  0.00    +0.550 C 
ATOM     19  O   LIG    1        5.036   0.676  -0.652  0.00  0.00    -0.550 OA
BRANCH  16  21
ATOM     20  C   LIG    1        6.006  -3.404  -0.729  0.00  0.00    +0.020 C 
ATOM     21  C   LIG    1        5.904  -1.877  -0.735  0.00  0.00    +0.250 C 
ENDBRANCH  16  21
ENDBRANCH  14  18
ENDBRANCH   1  15
BRANCH   3  22
ATOM     22  C   LIG    1       -2.495   1.379  -0.039  0.00  0.00    +0.380 C 
BRANCH  22  23
ATOM     23  C   LIG    1       -3.163   1.703   1.272  0.00  0.00    -0.110 A 
ATOM     24  C   LIG    1       -3.117   0.796   2.315  0.00  0.00    +0.020 A 
ATOM     25  C   LIG    1       -3.727   1.096   3.519  0.00  0.00    +0.000 A 
ATOM     26  C   LIG    1       -4.391   2.298   3.677  0.00  0.00    +0.010 A 
ATOM     27  C   LIG    1       -4.442   3.203   2.633  0.00  0.00    +0.000 A 
ATOM     28  C   LIG    1       -3.828   2.905   1.431  0.00  0.00    +0.040 A 
ENDBRANCH  22  23
ENDBRANCH   3  22
TORSDOF 7
