REMARK  Name = ZINCrH000004pqgw.0
REMARK                            x       y       z     vdW  Elec       q    Type
REMARK                         _______ _______ _______ _____ _____    ______ ____
ROOT
ATOM      1  N   LIG    1        4.102   7.325   0.889  0.00  0.00    -0.720 N 
ATOM      2  H   LIG    1        4.678   6.565   1.063  0.00  0.00    +0.390 HD
ATOM      3  C   LIG    1        4.372   8.520   1.452  0.00  0.00    +0.600 C 
ATOM      4  O   LIG    1        3.648   9.473   1.233  0.00  0.00    -0.510 OA
ENDROOT
BRANCH   3   5
ATOM      5  C   LIG    1        5.541   8.671   2.333  0.00  0.00    -0.040 A 
ATOM      6  C   LIG    1        5.946   9.822   2.980  0.00  0.00    +0.040 A 
ATOM      7  C   LIG    1        7.104   9.460   3.693  0.00  0.00    +0.070 A 
ATOM      8  N   LIG    1        7.332   8.185   3.459  0.00  0.00    -0.250 NA
ATOM      9  N   LIG    1        6.437   7.698   2.677  0.00  0.00    -0.370 N 
ATOM     10  H   LIG    1        6.404   6.777   2.373  0.00  0.00    +0.440 HD
BRANCH   7  11
ATOM     11  C   LIG    1        7.920  10.354   4.552  0.00  0.00    -0.010 A 
ATOM     12  C   LIG    1        7.565  11.692   4.706  0.00  0.00    +0.030 A 
ATOM     13  C   LIG    1        8.325  12.517   5.509  0.00  0.00    +0.010 A 
ATOM     14  C   LIG    1        9.444  12.021   6.153  0.00  0.00    +0.010 A 
ATOM     15  C   LIG    1        9.805  10.694   6.000  0.00  0.00    +0.010 A 
ATOM     16  C   LIG    1        9.049   9.859   5.202  0.00  0.00    +0.040 A 
ENDBRANCH   7  11
ENDBRANCH   3   5
BRANCH   1  18
ATOM     17  C   LIG    1        3.313   7.597  -1.410  0.00  0.00    +0.040 C 
ATOM     18  C   LIG    1        2.938   7.175   0.012  0.00  0.00    +0.300 C 
BRANCH  18  19
ATOM     19  C   LIG    1        2.494   5.735   0.009  0.00  0.00    -0.100 A 
ATOM     20  C   LIG    1        1.146   5.429   0.021  0.00  0.00    +0.070 A 
ATOM     21  C   LIG    1        0.736   4.109   0.018  0.00  0.00    +0.010 A 
ATOM     22  C   LIG    1        1.679   3.091   0.003  0.00  0.00    +0.140 A 
ATOM     23  C   LIG    1        3.032   3.402  -0.003  0.00  0.00    +0.000 A 
ATOM     24  C   LIG    1        3.436   4.723  -0.006  0.00  0.00    +0.040 A 
BRANCH  22  25
ATOM     25  N   LIG    1        1.266   1.751  -0.001  0.00  0.00    -0.410 N 
ATOM     26  C   LIG    1        2.079   0.647  -0.014  0.00  0.00    +0.120 A 
ATOM     27  C   LIG    1        1.273  -0.431  -0.012  0.00  0.00    +0.160 A 
ATOM     28  N   LIG    1        0.002  -0.004   0.002  0.00  0.00    -0.480 NA
ATOM     29  C   LIG    1       -0.016   1.301   0.009  0.00  0.00    +0.400 A 
ENDBRANCH  22  25
ENDBRANCH  18  19
ENDBRANCH   1  18
TORSDOF 5
