REMARK  Name = ZINCqH0000004BIS.0
REMARK                            x       y       z     vdW  Elec       q    Type
REMARK                         _______ _______ _______ _____ _____    ______ ____
ROOT
ATOM      1  C   LIG    1        1.136   1.592   3.694  0.00  0.00    +0.570 C 
ATOM      2  N   LIG    1        0.665   1.036   2.561  0.00  0.00    -0.610 N 
ATOM      3  C   LIG    1        0.165   1.879   1.466  0.00  0.00    +0.270 C 
ATOM      4  C   LIG    1       -1.267   1.446   1.128  0.00  0.00    +0.290 C 
ATOM      5  N   LIG    1       -1.290  -0.014   0.964  0.00  0.00    -0.610 N 
ATOM      6  C   LIG    1       -0.790  -0.857   2.059  0.00  0.00    +0.260 C 
ATOM      7  C   LIG    1       -1.761  -0.570  -0.170  0.00  0.00    +0.570 C 
ATOM      8  O   LIG    1       -2.255   0.132  -1.031  0.00  0.00    -0.510 OA
ATOM      9  C   LIG    1        0.642  -0.424   2.397  0.00  0.00    +0.290 C 
ATOM     10  O   LIG    1        1.616   0.889   4.562  0.00  0.00    -0.530 OA
ENDROOT
BRANCH   7  11
ATOM     11  C   LIG    1       -1.677  -2.031  -0.365  0.00  0.00    -0.170 A 
ATOM     12  C   LIG    1       -0.584  -2.744   0.130  0.00  0.00    +0.120 A 
ATOM     13  C   LIG    1       -0.514  -4.110  -0.053  0.00  0.00    -0.110 A 
ATOM     14  C   LIG    1       -1.521  -4.774  -0.734  0.00  0.00    +0.120 A 
ATOM     15  C   LIG    1       -2.604  -4.075  -1.233  0.00  0.00    +0.010 A 
ATOM     16 BR   LIG    1        0.963  -5.078   0.624  0.00  0.00    -0.030 Br
ATOM     17  C   LIG    1       -2.690  -2.707  -1.053  0.00  0.00    +0.170 A 
ATOM     18  F   LIG    1       -3.749  -2.025  -1.541  0.00  0.00    -0.110 F 
ENDBRANCH   7  11
BRANCH   1  22
ATOM     19  C   LIG    1        0.946   5.801   4.236  0.00  0.00    -0.060 A 
ATOM     20  C   LIG    1        0.638   4.956   5.288  0.00  0.00    +0.010 A 
ATOM     21  C   LIG    1        0.698   3.588   5.118  0.00  0.00    +0.070 A 
ATOM     22  C   LIG    1        1.070   3.057   3.883  0.00  0.00    -0.140 A 
ATOM     23  C   LIG    1        1.384   3.914   2.827  0.00  0.00    +0.040 A 
ATOM     24  C   LIG    1        1.315   5.280   3.008  0.00  0.00    +0.010 A 
BRANCH  19  26
ATOM     25  C   LIG    1        2.239   7.808   4.905  0.00  0.00    +0.030 C 
ATOM     26  C   LIG    1        0.879   7.294   4.428  0.00  0.00    +0.070 C 
ENDBRANCH  19  26
ENDBRANCH   1  22
TORSDOF 3
