REMARK  Name = ZINCpk000004LDWa.0
REMARK                            x       y       z     vdW  Elec       q    Type
REMARK                         _______ _______ _______ _____ _____    ______ ____
ROOT
ATOM      1  N   LIG    1        4.772   5.992  -0.134  0.00  0.00    -0.700 N 
ATOM      2  H   LIG    1        5.165   6.158  -1.006  0.00  0.00    +0.430 HD
ENDROOT
BRANCH   1   6
ATOM      3  N   LIG    1        3.516   9.117   2.212  0.00  0.00    -0.550 N 
ATOM      4  C   LIG    1        4.056   9.385   1.007  0.00  0.00    +0.560 A 
ATOM      5  C   LIG    1        4.495   8.328   0.194  0.00  0.00    -0.230 A 
ATOM      6  C   LIG    1        4.356   7.044   0.641  0.00  0.00    +0.470 A 
ATOM      7  N   LIG    1        3.800   6.817   1.877  0.00  0.00    -0.650 N 
ATOM      8  H   LIG    1        3.702   5.908   2.202  0.00  0.00    +0.430 HD
ATOM      9  O   LIG    1        4.165  10.538   0.626  0.00  0.00    -0.520 OA
ATOM     10  C   LIG    1        3.391   7.848   2.639  0.00  0.00    +0.710 A 
ATOM     11  O   LIG    1        2.901   7.628   3.730  0.00  0.00    -0.540 OA
BRANCH   3  13
ATOM     12  C   LIG    1        4.241  11.140   3.380  0.00  0.00    +0.040 C 
ATOM     13  C   LIG    1        3.061  10.219   3.065  0.00  0.00    +0.240 C 
ATOM     14  C   LIG    1        1.974  11.012   2.337  0.00  0.00    +0.040 C 
ENDBRANCH   3  13
ENDBRANCH   1   6
BRANCH   1  15
ATOM     15  C   LIG    1        4.625   4.619   0.355  0.00  0.00    +0.220 C 
ATOM     16  C   LIG    1        5.661   3.677  -0.314  0.00  0.00    +0.060 C 
ATOM     17  C   LIG    1        4.967   2.300  -0.251  0.00  0.00    +0.230 C 
ATOM     18  N   LIG    1        3.523   2.545  -0.120  0.00  0.00    -0.610 N 
ATOM     19  C   LIG    1        2.572   1.595  -0.014  0.00  0.00    +0.610 C 
ATOM     20  O   LIG    1        2.889   0.425   0.080  0.00  0.00    -0.520 OA
ATOM     21  C   LIG    1        5.247   1.517  -1.536  0.00  0.00    +0.030 C 
ATOM     22  C   LIG    1        3.288   4.000  -0.129  0.00  0.00    +0.250 C 
BRANCH  19  23
ATOM     23  C   LIG    1        1.149   1.976  -0.013  0.00  0.00    -0.230 A 
ATOM     24  C   LIG    1        0.626   3.214  -0.244  0.00  0.00    +0.220 A 
ATOM     25  O   LIG    1       -0.705   3.134  -0.151  0.00  0.00    -0.170 OA
ATOM     26  C   LIG    1       -1.091   1.880   0.130  0.00  0.00    +0.180 A 
ATOM     27  C   LIG    1       -0.005   1.099   0.238  0.00  0.00    -0.010 A 
ENDBRANCH  19  23
ENDBRANCH   1  15
TORSDOF 4
