REMARK  Name = ZINCqH00000h4O2C.0
REMARK                            x       y       z     vdW  Elec       q    Type
REMARK                         _______ _______ _______ _____ _____    ______ ____
ROOT
ATOM      1  C   LIG    1        4.560   1.250  -1.288  0.00  0.00    +0.530 C 
ATOM      2  N   LIG    1        5.391   1.422  -2.335  0.00  0.00    -0.670 N 
ATOM      3  H   LIG    1        5.086   1.894  -3.125  0.00  0.00    +0.410 HD
ATOM      4  O   LIG    1        4.967   0.736  -0.268  0.00  0.00    -0.510 OA
ENDROOT
BRANCH   2   5
ATOM      5  C   LIG    1        6.698   0.919  -2.281  0.00  0.00    +0.150 A 
ATOM      6  C   LIG    1        7.396   0.929  -1.076  0.00  0.00    +0.070 A 
ATOM      7  C   LIG    1        8.680   0.432  -1.009  0.00  0.00    +0.070 A 
ATOM      8  C   LIG    1        9.288  -0.072  -2.149  0.00  0.00    -0.000 A 
ATOM      9  O   LIG    1       10.501  -0.611  -2.403  0.00  0.00    -0.210 OA
ATOM     10  C   LIG    1       10.552  -0.933  -3.705  0.00  0.00    +0.260 A 
ATOM     11  N   LIG    1        9.432  -0.626  -4.289  0.00  0.00    -0.480 NA
ATOM     12  C   LIG    1        8.592  -0.081  -3.368  0.00  0.00    +0.040 A 
ATOM     13  C   LIG    1        7.291   0.419  -3.426  0.00  0.00    +0.050 A 
BRANCH  10  14
ATOM     14  C   LIG    1       11.738  -1.560  -4.392  0.00  0.00    +0.120 C 
ATOM     15  C   LIG    1       12.053  -2.906  -3.737  0.00  0.00    +0.060 C 
ATOM     16  C   LIG    1       12.949  -0.634  -4.264  0.00  0.00    +0.060 C 
ENDBRANCH  10  14
ENDBRANCH   2   5
BRANCH   1  22
ATOM     17  C   LIG    1       -0.029   1.167   0.110  0.00  0.00    +0.520 C 
ATOM     18  N   LIG    1        1.044   1.945  -0.135  0.00  0.00    -0.610 N 
ATOM     19  C   LIG    1        0.877   3.364  -0.477  0.00  0.00    +0.260 C 
ATOM     20  C   LIG    1        1.616   3.651  -1.783  0.00  0.00    +0.020 C 
ATOM     21  C   LIG    1        3.073   3.203  -1.650  0.00  0.00    +0.040 C 
ATOM     22  C   LIG    1        3.124   1.697  -1.386  0.00  0.00    -0.010 C 
ATOM     23  C   LIG    1        2.402   1.389  -0.070  0.00  0.00    +0.310 C 
ATOM     24  O   LIG    1        0.117  -0.018   0.325  0.00  0.00    -0.530 OA
BRANCH  17  26
ATOM     25  C   LIG    1       -2.452   0.654   0.241  0.00  0.00    +0.050 C 
ATOM     26  C   LIG    1       -1.411   1.768   0.111  0.00  0.00    -0.010 C 
ATOM     27  C   LIG    1       -1.547   2.734   1.290  0.00  0.00    +0.040 C 
ENDBRANCH  17  26
ENDBRANCH   1  22
TORSDOF 4
