REMARK  Name = ZINCrD000000fOUN.0
REMARK                            x       y       z     vdW  Elec       q    Type
REMARK                         _______ _______ _______ _____ _____    ______ ____
ROOT
ATOM      1  N   LIG    1        3.905   2.489   1.553  0.00  0.00    -0.680 N 
ATOM      2  H   LIG    1        3.560   3.349   1.267  0.00  0.00    +0.410 HD
ATOM      3  C   LIG    1        3.201   1.365   1.312  0.00  0.00    +0.730 C 
ATOM      4  N   LIG    1        1.971   1.445   0.767  0.00  0.00    -0.630 N 
ATOM      5  C   LIG    1        1.277   2.691   0.388  0.00  0.00    +0.250 C 
ATOM      6  C   LIG    1       -0.232   2.333   0.411  0.00  0.00    +0.090 C 
ATOM      7  C   LIG    1       -0.210   0.882  -0.103  0.00  0.00    -0.070 C 
ATOM      8  C   LIG    1       -0.257   0.828  -1.603  0.00  0.00    +0.540 C 
ATOM      9  N   LIG    1       -1.351   0.111  -1.928  0.00  0.00    -0.660 N 
ATOM     10  H   LIG    1       -1.621  -0.082  -2.839  0.00  0.00    +0.420 HD
ATOM     11  C   LIG    1       -2.050  -0.324  -0.799  0.00  0.00    +0.150 A 
ATOM     12  C   LIG    1       -3.214  -1.078  -0.684  0.00  0.00    -0.010 A 
ATOM     13  C   LIG    1       -3.723  -1.386   0.561  0.00  0.00    +0.050 A 
ATOM     14  C   LIG    1       -3.081  -0.948   1.704  0.00  0.00    -0.010 A 
ATOM     15  C   LIG    1       -1.923  -0.198   1.600  0.00  0.00    +0.070 A 
ATOM     16  O   LIG    1        0.535   1.330  -2.372  0.00  0.00    -0.480 OA
ATOM     17  C   LIG    1       -1.411   0.112   0.360  0.00  0.00    -0.130 A 
ATOM     18  C   LIG    1        1.095   0.304   0.452  0.00  0.00    +0.330 C 
ATOM     19  O   LIG    1        3.675   0.280   1.585  0.00  0.00    -0.570 OA
ENDROOT
BRANCH   1  22
ATOM     20  C   LIG    1        7.379   3.218   2.556  0.00  0.00    -0.160 A 
ATOM     21  C   LIG    1        6.153   3.296   1.890  0.00  0.00    +0.040 A 
ATOM     22  C   LIG    1        5.136   2.414   2.217  0.00  0.00    +0.150 A 
ATOM     23  C   LIG    1        5.334   1.459   3.207  0.00  0.00    +0.060 A 
ATOM     24  C   LIG    1        6.549   1.377   3.863  0.00  0.00    +0.020 A 
ATOM     25  C   LIG    1        7.569   2.249   3.547  0.00  0.00    -0.040 A 
ATOM     26  C   LIG    1        8.889   2.159   4.270  0.00  0.00    +0.110 C 
BRANCH  20  28
ATOM     27  C   LIG    1        8.309   5.101   1.057  0.00  0.00    +0.070 C 
ATOM     28  C   LIG    1        8.466   4.151   2.217  0.00  0.00    +0.390 C 
ATOM     29  O   LIG    1        9.487   4.156   2.870  0.00  0.00    -0.450 OA
ENDBRANCH  20  28
ENDBRANCH   1  22
TORSDOF 2
