REMARK  Name = ZINCrg00000BCfwx.0
REMARK                            x       y       z     vdW  Elec       q    Type
REMARK                         _______ _______ _______ _____ _____    ______ ____
ROOT
ATOM      1  C   LIG    1       -4.892   0.467  -3.751  0.00  0.00    +0.040 C 
ENDROOT
BRANCH   1   6
ATOM      2  C   LIG    1       -0.794   1.610  -1.169  0.00  0.00    +0.520 C 
ATOM      3  N   LIG    1       -1.939   1.003  -1.541  0.00  0.00    -0.620 N 
ATOM      4  C   LIG    1       -2.534  -0.176  -0.895  0.00  0.00    +0.250 C 
ATOM      5  C   LIG    1       -3.819  -0.526  -1.674  0.00  0.00    +0.040 C 
ATOM      6  C   LIG    1       -3.570   0.124  -3.061  0.00  0.00    -0.010 C 
ATOM      7  C   LIG    1       -2.799   1.409  -2.668  0.00  0.00    +0.260 C 
ATOM      8  O   LIG    1       -0.394   2.577  -1.781  0.00  0.00    -0.510 OA
BRANCH   2  13
ATOM      9  O   LIG    1        2.599   2.898   1.368  0.00  0.00    -0.510 OA
ATOM     10  C   LIG    1        1.551   2.338   1.113  0.00  0.00    +0.650 C 
ATOM     11  N   LIG    1        1.357   1.621  -0.002  0.00  0.00    -0.710 N 
ATOM     12  H   LIG    1        2.013   1.479  -0.702  0.00  0.00    +0.440 HD
ATOM     13  C   LIG    1       -0.013   1.086   0.008  0.00  0.00    +0.210 C 
ATOM     14  C   LIG    1       -0.602   1.612   1.331  0.00  0.00    +0.290 C 
ATOM     15  O   LIG    1        0.486   2.380   1.921  0.00  0.00    -0.320 OA
ENDBRANCH   2  13
ENDBRANCH   1   6
BRANCH   1  16
ATOM     16  C   LIG    1       -5.564  -0.820  -4.234  0.00  0.00    +0.260 C 
BRANCH  16  17
ATOM     17  N   LIG    1       -6.830  -0.492  -4.894  0.00  0.00    -0.730 N 
ATOM     18  H   LIG    1       -7.114   0.433  -4.965  0.00  0.00    +0.400 HD
ATOM     19  C   LIG    1       -7.599  -1.474  -5.403  0.00  0.00    +0.590 C 
ATOM     20  O   LIG    1       -7.243  -2.634  -5.313  0.00  0.00    -0.540 OA
BRANCH  19  21
ATOM     21  C   LIG    1       -8.874  -1.144  -6.068  0.00  0.00    -0.180 A 
ATOM     22  C   LIG    1       -9.759  -2.040  -6.632  0.00  0.00    +0.200 A 
ATOM     23  N   LIG    1      -10.807  -1.355  -7.141  0.00  0.00    -0.340 N 
ATOM     24  C   LIG    1      -11.937  -1.781  -7.796  0.00  0.00    +0.200 A 
ATOM     25  C   LIG    1      -12.861  -0.898  -8.219  0.00  0.00    +0.020 A 
ATOM     26  C   LIG    1      -12.687   0.481  -7.998  0.00  0.00    +0.010 A 
ATOM     27  C   LIG    1      -11.578   0.926  -7.354  0.00  0.00    +0.060 A 
ATOM     28  C   LIG    1      -10.613  -0.008  -6.913  0.00  0.00    +0.030 A 
ATOM     29  C   LIG    1       -9.418   0.148  -6.240  0.00  0.00    -0.020 A 
ENDBRANCH  19  21
ENDBRANCH  16  17
ENDBRANCH   1  16
TORSDOF 5
