REMARK  Name = ZINCkj000005gnww.0
REMARK                            x       y       z     vdW  Elec       q    Type
REMARK                         _______ _______ _______ _____ _____    ______ ____
ROOT
ATOM      1  N   LIG    1        0.058   4.109  -0.878  0.00  0.00    -0.490 N 
ATOM      2  H   LIG    1        0.130   5.116  -0.882  0.00  0.00    +0.440 HD
ATOM      3  H   LIG    1       -0.867   3.839  -0.580  0.00  0.00    +0.430 HD
ENDROOT
BRANCH   1   4
ATOM      4  C   LIG    1        1.054   3.551   0.046  0.00  0.00    +0.230 C 
ATOM      5  C   LIG    1        0.888   4.195   1.424  0.00  0.00    +0.110 C 
BRANCH   4  10
ATOM      6  C   LIG    1        1.763  -0.151   0.316  0.00  0.00    +0.150 A 
ATOM      7  C   LIG    1        0.479  -0.673   0.368  0.00  0.00    -0.050 A 
ATOM      8  C   LIG    1       -0.612   0.173   0.317  0.00  0.00    +0.080 A 
ATOM      9  C   LIG    1       -0.426   1.538   0.213  0.00  0.00    -0.050 A 
ATOM     10  C   LIG    1        0.853   2.062   0.160  0.00  0.00    -0.100 A 
ATOM     11  C   LIG    1        1.948   1.220   0.211  0.00  0.00    +0.010 A 
BRANCH   6  12
ATOM     12  O   LIG    1        2.838  -0.981   0.365  0.00  0.00    -0.310 OA
BRANCH  12  14
ATOM     13  C   LIG    1        3.895  -3.149   0.515  0.00  0.00    +0.070 C 
ATOM     14  C   LIG    1        2.572  -2.381   0.472  0.00  0.00    +0.190 C 
ENDBRANCH  12  14
ENDBRANCH   6  12
ENDBRANCH   4  10
ENDBRANCH   1   4
BRANCH   1  15
ATOM     15  C   LIG    1        0.304   3.596  -2.232  0.00  0.00    +0.180 C 
ATOM     16  C   LIG    1        1.646   4.126  -2.742  0.00  0.00    +0.120 C 
BRANCH  15  17
ATOM     17  C   LIG    1       -0.799   4.053  -3.152  0.00  0.00    +0.520 C 
ATOM     18  N   LIG    1       -0.782   3.699  -4.452  0.00  0.00    -0.670 N 
ATOM     19  H   LIG    1       -0.060   3.151  -4.796  0.00  0.00    +0.420 HD
ATOM     20  C   LIG    1       -1.769   4.108  -5.274  0.00  0.00    +0.700 C 
ATOM     21  O   LIG    1       -2.673   4.796  -4.843  0.00  0.00    -0.520 OA
ATOM     22  N   LIG    1       -1.752   3.755  -6.575  0.00  0.00    -0.850 N 
ATOM     23  H   LIG    1       -2.462   4.049  -7.167  0.00  0.00    +0.430 HD
ATOM     24  H   LIG    1       -1.030   3.206  -6.919  0.00  0.00    +0.400 HD
ATOM     25  O   LIG    1       -1.701   4.739  -2.721  0.00  0.00    -0.450 OA
ENDBRANCH  15  17
ENDBRANCH   1  15
TORSDOF 6
