REMARK  Name = ZINCkj00000hb0iC.0
REMARK                            x       y       z     vdW  Elec       q    Type
REMARK                         _______ _______ _______ _____ _____    ______ ____
ROOT
ATOM      1  N   LIG    1       -0.331   0.451   0.397  0.00  0.00    -0.380 N 
ATOM      2  C   LIG    1        1.049   0.673  -0.050  0.00  0.00    +0.260 C 
ATOM      3  C   LIG    1        1.391  -0.310  -1.172  0.00  0.00    +0.050 C 
ATOM      4  C   LIG    1        0.431  -0.091  -2.345  0.00  0.00    +0.040 C 
ATOM      5  C   LIG    1       -1.010  -0.252  -1.850  0.00  0.00    +0.060 C 
ATOM      6  C   LIG    1       -1.262   0.729  -0.703  0.00  0.00    +0.180 C 
ATOM      7  H   LIG    1       -0.438  -0.508   0.692  0.00  0.00    +0.420 HD
ENDROOT
BRANCH   1   8
ATOM      8  C   LIG    1       -0.629   1.345   1.524  0.00  0.00    +0.270 C 
BRANCH   8   9
ATOM      9  C   LIG    1        0.202   0.927   2.739  0.00  0.00    +0.190 C 
BRANCH   9  10
ATOM     10  C   LIG    1       -0.255   1.720   3.966  0.00  0.00    -0.070 C 
ATOM     11  C   LIG    1        0.731   2.727   4.563  0.00  0.00    +0.050 C 
ATOM     12  C   LIG    1        0.433   1.418   5.298  0.00  0.00    +0.040 C 
ENDBRANCH   9  10
BRANCH   9  13
ATOM     13  O   LIG    1        1.583   1.193   2.487  0.00  0.00    -0.380 OA
BRANCH  13  15
ATOM     14  C   LIG    1        3.915   0.611   2.738  0.00  0.00    +0.050 C 
ATOM     15  C   LIG    1        2.465   0.165   2.942  0.00  0.00    +0.160 C 
ENDBRANCH  13  15
ENDBRANCH   9  13
ENDBRANCH   8   9
ENDBRANCH   1   8
BRANCH   6  16
ATOM     16  C   LIG    1       -2.700   0.572  -0.206  0.00  0.00    +0.070 C 
BRANCH  16  17
ATOM     17  C   LIG    1       -3.671   0.911  -1.338  0.00  0.00    -0.340 C 
BRANCH  17  18
ATOM     18  S   LIG    1       -5.372   0.879  -0.706  0.00  0.00    +2.620 S 
ATOM     19  O   LIG    1       -5.587   1.951   0.200  0.00  0.00    -0.950 OA
ATOM     20  O   LIG    1       -5.755  -0.449  -0.375  0.00  0.00    -0.950 OA
BRANCH  18  21
ATOM     21  N   LIG    1       -6.307   1.259  -2.019  0.00  0.00    -1.250 NA
ATOM     22  H   LIG    1       -7.272   1.305  -1.929  0.00  0.00    +0.430 HD
ATOM     23  H   LIG    1       -5.891   1.436  -2.877  0.00  0.00    +0.410 HD
ENDBRANCH  18  21
ENDBRANCH  17  18
ENDBRANCH  16  17
ENDBRANCH   6  16
TORSDOF 9
