REMARK  Name = ZINCkj00000hb0iC.1
REMARK                            x       y       z     vdW  Elec       q    Type
REMARK                         _______ _______ _______ _____ _____    ______ ____
ROOT
ATOM      1  N   LIG    1       -0.112  -0.504   0.031  0.00  0.00    -0.380 N 
ATOM      2  C   LIG    1        0.024   0.926  -0.271  0.00  0.00    +0.250 C 
ATOM      3  C   LIG    1        1.504   1.278  -0.433  0.00  0.00    +0.050 C 
ATOM      4  C   LIG    1        2.097   0.454  -1.579  0.00  0.00    +0.050 C 
ATOM      5  C   LIG    1        1.883  -1.034  -1.289  0.00  0.00    +0.060 C 
ATOM      6  C   LIG    1        0.389  -1.301  -1.096  0.00  0.00    +0.190 C 
ATOM      7  H   LIG    1       -1.085  -0.722   0.188  0.00  0.00    +0.420 HD
ENDROOT
BRANCH   1   8
ATOM      8  C   LIG    1        0.661  -0.824   1.238  0.00  0.00    +0.260 C 
BRANCH   8   9
ATOM      9  C   LIG    1        0.056  -0.097   2.440  0.00  0.00    +0.180 C 
BRANCH   9  10
ATOM     10  C   LIG    1        0.933  -0.330   3.672  0.00  0.00    -0.060 C 
ATOM     11  C   LIG    1        1.278   0.887   4.534  0.00  0.00    +0.050 C 
ATOM     12  C   LIG    1        2.350   0.247   3.649  0.00  0.00    +0.040 C 
ENDBRANCH   9  10
BRANCH   9  13
ATOM     13  O   LIG    1       -1.258  -0.600   2.689  0.00  0.00    -0.390 OA
BRANCH  13  15
ATOM     14  C   LIG    1       -3.474  -0.325   3.613  0.00  0.00    +0.050 C 
ATOM     15  C   LIG    1       -2.140   0.351   3.289  0.00  0.00    +0.170 C 
ENDBRANCH  13  15
ENDBRANCH   9  13
ENDBRANCH   8   9
ENDBRANCH   1   8
BRANCH   6  16
ATOM     16  C   LIG    1        0.169  -2.787  -0.806  0.00  0.00    +0.100 C 
BRANCH  16  17
ATOM     17  C   LIG    1       -1.331  -3.078  -0.739  0.00  0.00    -0.380 C 
BRANCH  17  18
ATOM     18  S   LIG    1       -1.591  -4.840  -0.396  0.00  0.00    +2.620 S 
ATOM     19  O   LIG    1       -1.169  -5.158   0.923  0.00  0.00    -0.950 OA
ATOM     20  O   LIG    1       -1.185  -5.629  -1.505  0.00  0.00    -0.940 OA
BRANCH  18  21
ATOM     21  N   LIG    1       -3.237  -5.014  -0.351  0.00  0.00    -1.250 NA
ATOM     22  H   LIG    1       -3.628  -5.885  -0.179  0.00  0.00    +0.430 HD
ATOM     23  H   LIG    1       -3.810  -4.245  -0.497  0.00  0.00    +0.410 HD
ENDBRANCH  18  21
ENDBRANCH  17  18
ENDBRANCH  16  17
ENDBRANCH   6  16
TORSDOF 9
