REMARK  Name = ZINCpe00000xRwUw.1
REMARK                            x       y       z     vdW  Elec       q    Type
REMARK                         _______ _______ _______ _____ _____    ______ ____
ROOT
ATOM      1  C   LIG    1        1.895   3.115   0.447  0.00  0.00    +0.540 C 
ATOM      2  N   LIG    1        1.402   1.942   0.000  0.00  0.00    -0.590 N 
ATOM      3  C   LIG    1       -0.018   1.544   0.014  0.00  0.00    +0.270 C 
ATOM      4  C   LIG    1        0.004  -0.005   0.005  0.00  0.00    +0.040 C 
ATOM      5  C   LIG    1        1.215  -0.296  -0.921  0.00  0.00    +0.290 C 
ATOM      6  C   LIG    1        2.188   0.849  -0.582  0.00  0.00    +0.080 C 
ATOM      7  C   LIG    1        3.390   1.134  -1.479  0.00  0.00    +0.050 C 
ATOM      8  C   LIG    1        3.599   0.542  -0.083  0.00  0.00    +0.040 C 
ATOM      9  O   LIG    1        3.093   3.299   0.470  0.00  0.00    -0.520 OA
ENDROOT
BRANCH   5  10
ATOM     10  N   LIG    1        1.811  -1.596  -0.603  0.00  0.00    -0.710 N 
ATOM     11  H   LIG    1        2.555  -1.649   0.017  0.00  0.00    +0.410 HD
ATOM     12  C   LIG    1        1.326  -2.717  -1.172  0.00  0.00    +0.520 C 
ATOM     13  O   LIG    1        0.396  -2.650  -1.947  0.00  0.00    -0.530 OA
BRANCH  12  14
ATOM     14  C   LIG    1        1.940  -4.054  -0.845  0.00  0.00    +0.320 C 
BRANCH  14  15
ATOM     15  N   LIG    1        1.240  -5.107  -1.585  0.00  0.00    -0.690 N 
ATOM     16  H   LIG    1        0.503  -4.878  -2.174  0.00  0.00    +0.420 HD
ATOM     17  C   LIG    1        1.619  -6.393  -1.449  0.00  0.00    +0.490 C 
ATOM     18  O   LIG    1        2.540  -6.679  -0.713  0.00  0.00    -0.470 OA
BRANCH  17  19
ATOM     19  C   LIG    1        0.899  -7.476  -2.210  0.00  0.00    +0.460 C 
ATOM     20  F   LIG    1        1.012  -7.234  -3.583  0.00  0.00    -0.160 F 
ATOM     21  F   LIG    1       -0.452  -7.482  -1.847  0.00  0.00    -0.160 F 
ATOM     22  F   LIG    1        1.469  -8.717  -1.906  0.00  0.00    -0.150 F 
ENDBRANCH  17  19
ENDBRANCH  14  15
ENDBRANCH  12  14
ENDBRANCH   5  10
BRANCH   1  23
ATOM     23  C   LIG    1        0.957   4.196   0.917  0.00  0.00    +0.030 C 
ATOM     24  C   LIG    1        0.792   4.104   2.436  0.00  0.00    +0.060 C 
BRANCH  23  27
ATOM     25  C   LIG    1        0.175   7.150  -1.008  0.00  0.00    +0.130 C 
ATOM     26  C   LIG    1        0.849   6.347  -0.227  0.00  0.00    -0.190 C 
ATOM     27  C   LIG    1        1.522   5.545   0.554  0.00  0.00    +0.040 C 
ENDBRANCH  23  27
ENDBRANCH   1  23
TORSDOF 6
