REMARK  Name = ZINCnE000001CH13.1
REMARK                            x       y       z     vdW  Elec       q    Type
REMARK                         _______ _______ _______ _____ _____    ______ ____
ROOT
ATOM      1  C   LIG    1       -1.233   3.147   0.060  0.00  0.00    -0.170 A 
ATOM      2  C   LIG    1       -1.218   1.749   0.048  0.00  0.00    -0.040 A 
ATOM      3  C   LIG    1       -0.015   1.076   0.010  0.00  0.00    +0.000 A 
ATOM      4  C   LIG    1        1.176   1.781  -0.025  0.00  0.00    -0.040 A 
ATOM      5  C   LIG    1        1.169   3.165  -0.018  0.00  0.00    -0.100 A 
ATOM      6  C   LIG    1        2.486   1.038  -0.071  0.00  0.00    +0.100 C 
ATOM      7  C   LIG    1       -2.513   0.979   0.080  0.00  0.00    +0.110 C 
ATOM      8  C   LIG    1       -0.025   3.852   0.024  0.00  0.00    -0.030 A 
ATOM      9  C   LIG    1       -0.030   5.359   0.031  0.00  0.00    +0.110 C 
ENDROOT
BRANCH   1  11
ATOM     10  C   LIG    1       -3.076   4.326   1.427  0.00  0.00    +0.080 C 
ATOM     11  C   LIG    1       -2.512   3.873   0.104  0.00  0.00    +0.410 C 
ATOM     12  O   LIG    1       -3.113   4.106  -0.923  0.00  0.00    -0.450 OA
ENDBRANCH   1  11
BRANCH   5  13
ATOM     13  C   LIG    1        2.471   3.923  -0.056  0.00  0.00    -0.300 C 
BRANCH  13  14
ATOM     14  S   LIG    1        2.938   4.235  -1.781  0.00  0.00    +2.500 S 
ATOM     15  O   LIG    1        2.040   5.159  -2.381  0.00  0.00    -0.950 OA
ATOM     16  O   LIG    1        3.283   3.020  -2.432  0.00  0.00    -0.950 OA
BRANCH  14  17
ATOM     17  C   LIG    1        4.459   5.117  -1.672  0.00  0.00    -0.790 A 
ATOM     18  C   LIG    1        4.454   6.498  -1.611  0.00  0.00    +0.120 A 
ATOM     19  C   LIG    1        5.645   7.192  -1.520  0.00  0.00    -0.170 A 
ATOM     20  C   LIG    1        6.848   6.502  -1.502  0.00  0.00    +0.300 A 
ATOM     21  C   LIG    1        6.852   5.116  -1.569  0.00  0.00    -0.170 A 
ATOM     22  O   LIG    1        8.022   7.182  -1.419  0.00  0.00    -0.710 OA
ATOM     23  C   LIG    1        5.657   4.427  -1.654  0.00  0.00    +0.120 A 
ENDBRANCH  14  17
ENDBRANCH  13  14
ENDBRANCH   5  13
TORSDOF 4
