REMARK  Name = ZINCnE000001SvFC.1
REMARK                            x       y       z     vdW  Elec       q    Type
REMARK                         _______ _______ _______ _____ _____    ______ ____
ROOT
ATOM      1  C   LIG    1        4.713   0.397  -2.974  0.00  0.00    +0.350 A 
ATOM      2  N   LIG    1        5.829  -0.159  -3.329  0.00  0.00    -0.550 NA
ATOM      3  C   LIG    1        6.155  -0.083  -4.606  0.00  0.00    +0.120 A 
ATOM      4  C   LIG    1        5.272   0.567  -5.366  0.00  0.00    -0.240 A 
ATOM      5  S   LIG    1        3.946   1.095  -4.334  0.00  0.00    +0.020 S 
ENDROOT
BRANCH   1   8
ATOM      6  O   LIG    1        2.417   1.555  -2.320  0.00  0.00    -0.600 OA
ATOM      7  C   LIG    1        3.035   1.025  -1.421  0.00  0.00    +0.460 C 
ATOM      8  N   LIG    1        4.210   0.417  -1.679  0.00  0.00    -0.660 NA
BRANCH   7   9
ATOM      9  C   LIG    1        2.490   1.047  -0.017  0.00  0.00    +0.110 C 
BRANCH   9  10
ATOM     10  C   LIG    1        1.175   1.783   0.000  0.00  0.00    -0.080 A 
ATOM     11  C   LIG    1       -0.013   1.076   0.008  0.00  0.00    +0.040 A 
ATOM     12  C   LIG    1       -1.219   1.750   0.017  0.00  0.00    -0.010 A 
ATOM     13  C   LIG    1       -1.240   3.133   0.031  0.00  0.00    +0.030 A 
ATOM     14  C   LIG    1       -0.053   3.842   0.023  0.00  0.00    -0.030 A 
ATOM     15  C   LIG    1        1.156   3.167   0.008  0.00  0.00    +0.110 A 
ATOM     16  F   LIG    1        2.316   3.859   0.001  0.00  0.00    -0.140 F 
ENDBRANCH   9  10
ENDBRANCH   7   9
ENDBRANCH   1   8
BRANCH   3  17
ATOM     17  C   LIG    1        7.422  -0.682  -5.160  0.00  0.00    +0.260 C 
BRANCH  17  18
ATOM     18  N   LIG    1        8.528   0.268  -4.989  0.00  0.00    -0.530 NA
ATOM     19  C   LIG    1        8.319   1.472  -5.805  0.00  0.00    +0.150 C 
ATOM     20  C   LIG    1        9.411   2.497  -5.493  0.00  0.00    +0.010 C 
ATOM     21  C   LIG    1       10.781   1.885  -5.796  0.00  0.00    -0.010 C 
ATOM     22  C   LIG    1       10.954   0.607  -4.970  0.00  0.00    +0.010 C 
ATOM     23  C   LIG    1        9.818  -0.364  -5.297  0.00  0.00    +0.160 C 
ENDBRANCH  17  18
ENDBRANCH   3  17
TORSDOF 5
