REMARK  Name = ZINCqH0000001Gee.0
REMARK                            x       y       z     vdW  Elec       q    Type
REMARK                         _______ _______ _______ _____ _____    ______ ____
ROOT
ATOM      1  C   LIG    1        2.422   1.186  -0.015  0.00  0.00    +0.290 C 
ENDROOT
BRANCH   1   2
ATOM      2  N   LIG    1        1.143   1.901   0.001  0.00  0.00    -0.720 N 
ATOM      3  H   LIG    1        1.130   2.871   0.007  0.00  0.00    +0.410 HD
ATOM      4  C   LIG    1       -0.014   1.211   0.009  0.00  0.00    +0.570 C 
ATOM      5  O   LIG    1        0.002  -0.004   0.002  0.00  0.00    -0.520 OA
BRANCH   4   6
ATOM      6  C   LIG    1       -1.305   1.933   0.019  0.00  0.00    -0.140 A 
ATOM      7  C   LIG    1       -1.327   3.329   0.032  0.00  0.00    +0.050 A 
ATOM      8  C   LIG    1       -2.534   3.996   0.037  0.00  0.00    +0.000 A 
ATOM      9  C   LIG    1       -3.721   3.285   0.038  0.00  0.00    +0.040 A 
ATOM     10  C   LIG    1       -3.706   1.901   0.030  0.00  0.00    +0.000 A 
ATOM     11  C   LIG    1       -2.506   1.222   0.021  0.00  0.00    +0.080 A 
ENDBRANCH   4   6
ENDBRANCH   1   2
BRANCH   1  13
ATOM     12  C   LIG    1        4.127   0.088  -1.474  0.00  0.00    +0.040 C 
ATOM     13  C   LIG    1        2.792   0.835  -1.457  0.00  0.00    -0.020 C 
ATOM     14  C   LIG    1        1.703  -0.054  -2.061  0.00  0.00    +0.040 C 
ENDBRANCH   1  13
BRANCH   1  15
ATOM     15  C   LIG    1        3.495   2.061   0.580  0.00  0.00    +0.470 C 
ATOM     16  O   LIG    1        3.220   3.169   0.977  0.00  0.00    -0.500 OA
BRANCH  15  17
ATOM     17  O   LIG    1        4.756   1.611   0.669  0.00  0.00    -0.330 OA
BRANCH  17  18
ATOM     18  C   LIG    1        5.737   2.508   1.253  0.00  0.00    +0.350 C 
BRANCH  18  19
ATOM     19  C   LIG    1        7.085   1.835   1.270  0.00  0.00    +0.070 A 
ATOM     20  N   LIG    1        7.936   1.905   0.318  0.00  0.00    -0.440 NA
ATOM     21  C   LIG    1        9.106   1.256   0.470  0.00  0.00    +0.080 A 
ATOM     22  C   LIG    1       10.208   1.168  -0.404  0.00  0.00    +0.080 A 
ATOM     23  C   LIG    1       11.309   0.445  -0.057  0.00  0.00    +0.030 A 
ATOM     24  C   LIG    1       11.368  -0.217   1.161  0.00  0.00    +0.050 A 
ATOM     25  C   LIG    1       10.306  -0.149   2.036  0.00  0.00    +0.060 A 
ATOM     26  C   LIG    1        9.172   0.586   1.697  0.00  0.00    -0.180 A 
ATOM     27  S   LIG    1        7.666   0.880   2.559  0.00  0.00    +0.140 S 
ENDBRANCH  18  19
ENDBRANCH  17  18
ENDBRANCH  15  17
ENDBRANCH   1  15
TORSDOF 7
