REMARK  Name = ZINCvU0000000JHd.1
REMARK                            x       y       z     vdW  Elec       q    Type
REMARK                         _______ _______ _______ _____ _____    ______ ____
ROOT
ATOM      1  C   LIG    1       -0.080   1.140   0.059  0.00  0.00    +0.060 C 
ENDROOT
BRANCH   1   2
ATOM      2  C   LIG    1       -0.734   1.670  -1.219  0.00  0.00    +0.020 C 
ATOM      3  C   LIG    1       -2.216   1.289  -1.229  0.00  0.00    +0.000 C 
ATOM      4  C   LIG    1       -2.869   1.820  -2.507  0.00  0.00    +0.000 C 
ATOM      5  C   LIG    1       -2.177   1.208  -3.726  0.00  0.00    +0.000 C 
ATOM      6  C   LIG    1       -0.695   1.589  -3.715  0.00  0.00    +0.010 C 
ATOM      7  C   LIG    1       -0.041   1.058  -2.438  0.00  0.00    +0.030 C 
ENDBRANCH   1   2
BRANCH   1   8
ATOM      8  C   LIG    1        1.353   1.603   0.120  0.00  0.00    -0.090 A 
ATOM      9  C   LIG    1        1.642   2.955   0.127  0.00  0.00    +0.070 A 
ATOM     10  C   LIG    1        2.957   3.380   0.188  0.00  0.00    +0.030 A 
ATOM     11  C   LIG    1        3.981   2.454   0.230  0.00  0.00    +0.080 A 
ATOM     12  C   LIG    1        3.692   1.102   0.218  0.00  0.00    -0.180 A 
ATOM     13  C   LIG    1        2.378   0.677   0.162  0.00  0.00    +0.080 A 
BRANCH  12  14
ATOM     14  C   LIG    1        4.809   0.091   0.264  0.00  0.00    +0.510 C 
ATOM     15  F   LIG    1        4.362  -1.069   0.904  0.00  0.00    -0.180 F 
ATOM     16  F   LIG    1        5.892   0.626   0.969  0.00  0.00    -0.180 F 
ATOM     17  F   LIG    1        5.210  -0.220  -1.040  0.00  0.00    -0.170 F 
ENDBRANCH  12  14
ENDBRANCH   1   8
BRANCH   1  19
ATOM     18  O   LIG    1       -1.306   2.775   1.239  0.00  0.00    -0.510 OA
ATOM     19  C   LIG    1       -0.828   1.661   1.259  0.00  0.00    +0.540 C 
ATOM     20  N   LIG    1       -0.964   0.888   2.355  0.00  0.00    -0.630 N 
ATOM     21  H   LIG    1       -0.516   0.029   2.402  0.00  0.00    +0.440 HD
BRANCH  20  22
ATOM     22  C   LIG    1       -1.746   1.322   3.417  0.00  0.00    +0.500 A 
ATOM     23  N   LIG    1       -1.961   0.669   4.538  0.00  0.00    -0.550 NA
ATOM     24  C   LIG    1       -2.759   1.385   5.330  0.00  0.00    +0.250 A 
ATOM     25  N   LIG    1       -3.066   2.503   4.729  0.00  0.00    -0.300 NA
ATOM     26  N   LIG    1       -2.416   2.492   3.484  0.00  0.00    -0.470 N 
ATOM     27  H   LIG    1       -2.444   3.186   2.807  0.00  0.00    +0.450 HD
BRANCH  24  28
ATOM     28  C   LIG    1       -3.232   0.970   6.699  0.00  0.00    +0.110 C 
ATOM     29  C   LIG    1       -4.763   0.908   6.716  0.00  0.00    +0.010 C 
ATOM     30  C   LIG    1       -5.236   0.563   8.130  0.00  0.00    +0.210 C 
ATOM     31  O   LIG    1       -4.739   1.538   9.049  0.00  0.00    -0.380 OA
ATOM     32  C   LIG    1       -3.313   1.608   9.111  0.00  0.00    +0.210 C 
ATOM     33  C   LIG    1       -2.763   1.995   7.736  0.00  0.00    +0.010 C 
ENDBRANCH  24  28
ENDBRANCH  20  22
ENDBRANCH   1  19
TORSDOF 6
