REMARK  Name = ZINCvU0000000JHd.0
REMARK                            x       y       z     vdW  Elec       q    Type
REMARK                         _______ _______ _______ _____ _____    ______ ____
ROOT
ATOM      1  C   LIG    1        7.744   2.959  -2.582  0.00  0.00    +0.060 C 
ENDROOT
BRANCH   1   2
ATOM      2  C   LIG    1        8.903   1.995  -2.319  0.00  0.00    +0.020 C 
ATOM      3  C   LIG    1        9.302   2.067  -0.844  0.00  0.00    +0.010 C 
ATOM      4  C   LIG    1       10.460   1.103  -0.581  0.00  0.00    +0.000 C 
ATOM      5  C   LIG    1       11.656   1.493  -1.452  0.00  0.00    +0.000 C 
ATOM      6  C   LIG    1       11.257   1.421  -2.928  0.00  0.00    +0.010 C 
ATOM      7  C   LIG    1       10.098   2.385  -3.191  0.00  0.00    +0.030 C 
ENDBRANCH   1   2
BRANCH   1   8
ATOM      8  C   LIG    1        7.367   2.905  -4.040  0.00  0.00    -0.090 A 
ATOM      9  C   LIG    1        6.950   1.714  -4.603  0.00  0.00    +0.070 A 
ATOM     10  C   LIG    1        6.600   1.666  -5.939  0.00  0.00    +0.030 A 
ATOM     11  C   LIG    1        6.676   2.807  -6.715  0.00  0.00    +0.080 A 
ATOM     12  C   LIG    1        7.098   3.998  -6.154  0.00  0.00    -0.180 A 
ATOM     13  C   LIG    1        7.443   4.047  -4.816  0.00  0.00    +0.080 A 
BRANCH  12  14
ATOM     14  C   LIG    1        7.181   5.242  -7.000  0.00  0.00    +0.510 C 
ATOM     15  F   LIG    1        6.949   6.367  -6.199  0.00  0.00    -0.180 F 
ATOM     16  F   LIG    1        6.217   5.184  -8.012  0.00  0.00    -0.180 F 
ATOM     17  F   LIG    1        8.454   5.332  -7.573  0.00  0.00    -0.170 F 
ENDBRANCH  12  14
ENDBRANCH   1   8
BRANCH   1  19
ATOM     18  O   LIG    1        6.339   1.388  -1.520  0.00  0.00    -0.520 OA
ATOM     19  C   LIG    1        6.558   2.560  -1.742  0.00  0.00    +0.540 C 
ATOM     20  N   LIG    1        5.742   3.506  -1.237  0.00  0.00    -0.620 N 
ATOM     21  H   LIG    1        5.955   4.445  -1.355  0.00  0.00    +0.440 HD
BRANCH  20  22
ATOM     22  C   LIG    1        4.593   3.136  -0.546  0.00  0.00    +0.400 A 
ATOM     23  N   LIG    1        3.714   3.945  -0.005  0.00  0.00    -0.300 NA
ATOM     24  N   LIG    1        2.776   3.263   0.549  0.00  0.00    -0.270 NA
ATOM     25  C   LIG    1        3.005   1.988   0.402  0.00  0.00    +0.190 A 
ATOM     26  N   LIG    1        4.168   1.863  -0.303  0.00  0.00    -0.570 N 
ATOM     27  H   LIG    1        4.602   1.039  -0.575  0.00  0.00    +0.440 HD
BRANCH  25  28
ATOM     28  C   LIG    1        2.143   0.861   0.910  0.00  0.00    +0.110 C 
ATOM     29  C   LIG    1        2.180  -0.303  -0.084  0.00  0.00    -0.010 C 
ATOM     30  C   LIG    1        1.364  -1.470   0.478  0.00  0.00    +0.220 C 
ATOM     31  O   LIG    1        1.892  -1.848   1.751  0.00  0.00    -0.380 OA
ATOM     32  C   LIG    1        1.839  -0.813   2.735  0.00  0.00    +0.220 C 
ATOM     33  C   LIG    1        2.674   0.380   2.264  0.00  0.00    +0.010 C 
ENDBRANCH  25  28
ENDBRANCH  20  22
ENDBRANCH   1  19
TORSDOF 6
