REMARK  Name = ZINCvU0000000JHd.2
REMARK                            x       y       z     vdW  Elec       q    Type
REMARK                         _______ _______ _______ _____ _____    ______ ____
ROOT
ATOM      1  C   LIG    1        6.100  -3.541   6.341  0.00  0.00    +0.060 C 
ENDROOT
BRANCH   1   2
ATOM      2  C   LIG    1        7.477  -3.538   5.675  0.00  0.00    +0.010 C 
ATOM      3  C   LIG    1        7.310  -3.617   4.156  0.00  0.00    +0.010 C 
ATOM      4  C   LIG    1        8.688  -3.614   3.490  0.00  0.00    +0.000 C 
ATOM      5  C   LIG    1        9.493  -4.820   3.978  0.00  0.00    +0.000 C 
ATOM      6  C   LIG    1        9.660  -4.740   5.497  0.00  0.00    +0.000 C 
ATOM      7  C   LIG    1        8.283  -4.744   6.163  0.00  0.00    +0.030 C 
ENDBRANCH   1   2
BRANCH   1   8
ATOM      8  C   LIG    1        6.266  -3.530   7.838  0.00  0.00    -0.080 A 
ATOM      9  C   LIG    1        6.931  -2.486   8.452  0.00  0.00    +0.090 A 
ATOM     10  C   LIG    1        7.083  -2.475   9.826  0.00  0.00    +0.020 A 
ATOM     11  C   LIG    1        6.569  -3.509  10.586  0.00  0.00    +0.070 A 
ATOM     12  C   LIG    1        5.903  -4.554   9.972  0.00  0.00    -0.190 A 
ATOM     13  C   LIG    1        5.748  -4.562   8.599  0.00  0.00    +0.070 A 
BRANCH  12  14
ATOM     14  C   LIG    1        5.343  -5.681  10.801  0.00  0.00    +0.510 C 
ATOM     15  F   LIG    1        5.930  -6.887  10.405  0.00  0.00    -0.180 F 
ATOM     16  F   LIG    1        3.958  -5.753  10.614  0.00  0.00    -0.180 F 
ATOM     17  F   LIG    1        5.620  -5.449  12.152  0.00  0.00    -0.180 F 
ENDBRANCH  12  14
ENDBRANCH   1   8
BRANCH   1  19
ATOM     18  O   LIG    1        5.437  -1.285   6.538  0.00  0.00    -0.480 OA
ATOM     19  C   LIG    1        5.332  -2.318   5.911  0.00  0.00    +0.520 C 
ATOM     20  N   LIG    1        4.528  -2.371   4.831  0.00  0.00    -0.620 N 
ATOM     21  H   LIG    1        4.490  -3.178   4.294  0.00  0.00    +0.420 HD
BRANCH  20  22
ATOM     22  C   LIG    1        3.748  -1.264   4.484  0.00  0.00    +0.440 A 
ATOM     23  N   LIG    1        3.712  -0.122   5.129  0.00  0.00    -0.290 NA
ATOM     24  N   LIG    1        2.808   0.704   4.442  0.00  0.00    -0.470 N 
ATOM     25  H   LIG    1        2.566   1.615   4.669  0.00  0.00    +0.440 HD
ATOM     26  C   LIG    1        2.343  -0.018   3.408  0.00  0.00    +0.310 A 
ATOM     27  N   LIG    1        2.915  -1.194   3.441  0.00  0.00    -0.550 NA
BRANCH  26  28
ATOM     28  C   LIG    1        1.341   0.449   2.384  0.00  0.00    +0.100 C 
ATOM     29  C   LIG    1       -0.078   0.222   2.915  0.00  0.00    +0.020 C 
ATOM     30  C   LIG    1       -1.087   0.770   1.903  0.00  0.00    +0.220 C 
ATOM     31  O   LIG    1       -0.826   2.157   1.676  0.00  0.00    -0.380 OA
ATOM     32  C   LIG    1        0.469   2.426   1.135  0.00  0.00    +0.220 C 
ATOM     33  C   LIG    1        1.540   1.944   2.116  0.00  0.00    -0.010 C 
ENDBRANCH  26  28
ENDBRANCH  20  22
ENDBRANCH   1  19
TORSDOF 6
