REMARK  Name = ZINCrg000000njKd.2
REMARK                            x       y       z     vdW  Elec       q    Type
REMARK                         _______ _______ _______ _____ _____    ______ ____
ROOT
ATOM      1  C   LIG    1       -1.683   3.731  -2.553  0.00  0.00    +0.330 C 
ENDROOT
BRANCH   1   2
ATOM      2  C   LIG    1       -1.810   5.231  -2.483  0.00  0.00    -0.070 A 
ATOM      3  C   LIG    1       -2.916   5.801  -1.881  0.00  0.00    +0.040 A 
ATOM      4  C   LIG    1       -3.035   7.177  -1.810  0.00  0.00    +0.060 A 
ATOM      5  C   LIG    1       -2.047   7.986  -2.353  0.00  0.00    +0.140 A 
ATOM      6  C   LIG    1       -0.937   7.410  -2.963  0.00  0.00    +0.110 A 
ATOM      7  F   LIG    1        0.027   8.194  -3.493  0.00  0.00    -0.120 F 
ATOM      8  C   LIG    1       -0.823   6.034  -3.026  0.00  0.00    +0.020 A 
BRANCH   5   9
ATOM      9  N   LIG    1       -2.167   9.378  -2.287  0.00  0.00    -0.950 N 
ATOM     10  C   LIG    1       -1.768  10.234  -1.159  0.00  0.00    +0.260 C 
ATOM     11  C   LIG    1       -1.368  11.632  -1.674  0.00  0.00    +0.090 C 
ATOM     12  C   LIG    1       -2.493  12.003  -2.684  0.00  0.00    -0.290 C 
ATOM     13  S   LIG    1       -2.795  10.373  -3.472  0.00  0.00    +2.560 S 
ATOM     14  O   LIG    1       -4.182  10.069  -3.515  0.00  0.00    -0.950 OA
ATOM     15  O   LIG    1       -1.953  10.183  -4.601  0.00  0.00    -0.940 OA
ENDBRANCH   5   9
ENDBRANCH   1   2
BRANCH   1  17
ATOM     16  C   LIG    1       -0.745   1.926  -1.212  0.00  0.00    +0.520 C 
ATOM     17  N   LIG    1       -0.976   3.245  -1.365  0.00  0.00    -0.730 N 
ATOM     18  H   LIG    1       -0.673   3.872  -0.690  0.00  0.00    +0.400 HD
ATOM     19  O   LIG    1       -1.122   1.142  -2.056  0.00  0.00    -0.510 OA
BRANCH  16  24
ATOM     20  N   LIG    1        2.148   1.397   1.151  0.00  0.00    -0.530 NA
ATOM     21  C   LIG    1        2.147  -0.072   1.111  0.00  0.00    +0.150 C 
ATOM     22  C   LIG    1        0.701  -0.577   1.111  0.00  0.00    +0.230 C 
ATOM     23  O   LIG    1        0.002  -0.004   0.002  0.00  0.00    -0.360 OA
ATOM     24  C   LIG    1       -0.017   1.426   0.010  0.00  0.00    +0.170 C 
ATOM     25  C   LIG    1        1.421   1.950  -0.001  0.00  0.00    +0.170 C 
BRANCH  20  27
ATOM     26  C   LIG    1        4.204   1.417   2.482  0.00  0.00    +0.040 C 
ATOM     27  C   LIG    1        3.519   1.922   1.210  0.00  0.00    +0.170 C 
ATOM     28  C   LIG    1        4.301   1.443  -0.015  0.00  0.00    +0.000 C 
ENDBRANCH  20  27
ENDBRANCH  16  24
ENDBRANCH   1  17
TORSDOF 5
