REMARK  Name = ZINCpk000004F5BD.0
REMARK                            x       y       z     vdW  Elec       q    Type
REMARK                         _______ _______ _______ _____ _____    ______ ____
ROOT
ATOM      1  N   LIG    1       -4.126   0.648   1.662  0.00  0.00    -0.740 N 
ATOM      2  H   LIG    1       -3.922   0.420   2.582  0.00  0.00    +0.390 HD
ATOM      3  C   LIG    1       -3.293   0.268   0.672  0.00  0.00    +0.720 C 
ATOM      4  N   LIG    1       -2.176  -0.428   0.962  0.00  0.00    -0.610 N 
ATOM      5  C   LIG    1       -1.712  -0.860   2.311  0.00  0.00    +0.250 C 
ATOM      6  C   LIG    1       -0.542  -1.860   2.047  0.00  0.00    +0.040 C 
ATOM      7  C   LIG    1       -0.896  -2.339   0.646  0.00  0.00    -0.030 C 
ATOM      8  C   LIG    1       -0.015  -2.387  -0.572  0.00  0.00    +0.050 C 
ATOM      9  C   LIG    1       -1.268  -1.704  -1.219  0.00  0.00    +0.080 C 
ATOM     10  C   LIG    1       -1.192  -0.905   0.038  0.00  0.00    +0.210 C 
ATOM     11  O   LIG    1       -3.550   0.553  -0.481  0.00  0.00    -0.580 OA
ENDROOT
BRANCH   1  17
ATOM     12  C   LIG    1       -7.685   5.779   2.203  0.00  0.00    +0.100 C 
ATOM     13  C   LIG    1       -7.963   4.335   2.532  0.00  0.00    +0.510 C 
ATOM     14  N   LIG    1       -7.321   3.356   1.865  0.00  0.00    -0.620 N 
ATOM     15  C   LIG    1       -7.661   1.945   2.097  0.00  0.00    +0.280 C 
ATOM     16  C   LIG    1       -6.380   1.181   2.447  0.00  0.00    +0.010 C 
ATOM     17  C   LIG    1       -5.340   1.404   1.347  0.00  0.00    +0.250 C 
ATOM     18  C   LIG    1       -5.004   2.894   1.256  0.00  0.00    +0.010 C 
ATOM     19  C   LIG    1       -6.269   3.678   0.892  0.00  0.00    +0.290 C 
ATOM     20  O   LIG    1       -8.765   4.054   3.398  0.00  0.00    -0.550 OA
ENDBRANCH   1  17
BRANCH  10  21
ATOM     21  C   LIG    1        0.015  -0.002   0.037  0.00  0.00    -0.220 A 
ATOM     22  C   LIG    1        0.457   0.737   1.081  0.00  0.00    +0.230 A 
ATOM     23  N   LIG    1        1.558   1.405   0.675  0.00  0.00    -0.380 N 
ATOM     24  N   LIG    1        1.799   1.065  -0.662  0.00  0.00    -0.290 NA
ATOM     25  C   LIG    1        2.358   2.322   1.490  0.00  0.00    +0.360 C 
ATOM     26  C   LIG    1        0.874   0.222  -1.044  0.00  0.00    +0.250 A 
ENDBRANCH  10  21
TORSDOF 2
