REMARK  Name = ZINCpk00000KfLtx.0
REMARK                            x       y       z     vdW  Elec       q    Type
REMARK                         _______ _______ _______ _____ _____    ______ ____
ROOT
ATOM      1  C   LIG    1        4.684   5.367  -0.803  0.00  0.00    +0.260 C 
ATOM      2  C   LIG    1        4.253   4.663   0.490  0.00  0.00    +0.320 C 
ATOM      3  N   LIG    1        3.555   3.418   0.137  0.00  0.00    -0.610 N 
ATOM      4  C   LIG    1        4.242   2.440  -0.719  0.00  0.00    +0.290 C 
ATOM      5  C   LIG    1        4.672   3.146  -2.016  0.00  0.00    +0.290 C 
ATOM      6  C   LIG    1        2.311   3.176   0.594  0.00  0.00    +0.610 C 
ATOM      7  O   LIG    1        1.706   4.040   1.200  0.00  0.00    -0.510 OA
ATOM      8  N   LIG    1        5.369   4.391  -1.663  0.00  0.00    -0.600 N 
ATOM      9  C   LIG    1        6.613   4.633  -2.119  0.00  0.00    +0.600 C 
ATOM     10  O   LIG    1        7.147   5.703  -1.892  0.00  0.00    -0.480 OA
ENDROOT
BRANCH   6  11
ATOM     11  C   LIG    1        1.686   1.870   0.360  0.00  0.00    -0.090 A 
ATOM     12  C   LIG    1        0.388   1.542   0.629  0.00  0.00    +0.050 A 
ATOM     13  C   LIG    1        0.222   0.202   0.246  0.00  0.00    -0.060 A 
ATOM     14  C   LIG    1        1.414  -0.227  -0.226  0.00  0.00    +0.200 A 
ATOM     15  O   LIG    1        2.292   0.782  -0.159  0.00  0.00    -0.160 OA
ENDBRANCH   6  11
BRANCH   9  16
ATOM     16  C   LIG    1        7.325   3.608  -2.889  0.00  0.00    -0.080 A 
ATOM     17  C   LIG    1        8.622   3.676  -3.310  0.00  0.00    +0.050 A 
ATOM     18  C   LIG    1        8.884   2.485  -4.005  0.00  0.00    -0.060 A 
ATOM     19  C   LIG    1        7.750   1.751  -3.978  0.00  0.00    +0.200 A 
ATOM     20  O   LIG    1        6.814   2.428  -3.299  0.00  0.00    -0.160 OA
ENDBRANCH   9  16
BRANCH   1  21
ATOM     21  C   LIG    1        5.624   6.498  -0.474  0.00  0.00    +0.470 C 
ATOM     22  O   LIG    1        6.717   6.261  -0.018  0.00  0.00    -0.470 OA
BRANCH  21  23
ATOM     23  O   LIG    1        5.246   7.768  -0.687  0.00  0.00    -0.360 OA
BRANCH  23  25
ATOM     24  C   LIG    1        5.598  10.178  -0.657  0.00  0.00    +0.070 C 
ATOM     25  C   LIG    1        6.202   8.806  -0.347  0.00  0.00    +0.210 C 
ENDBRANCH  23  25
ENDBRANCH  21  23
ENDBRANCH   1  21
TORSDOF 5
