REMARK  Name = ZINCvU00000007x0.0
REMARK                            x       y       z     vdW  Elec       q    Type
REMARK                         _______ _______ _______ _____ _____    ______ ____
ROOT
ATOM      1  C   LIG    1        3.743  -0.965   0.175  0.00  0.00    +0.260 C 
ENDROOT
BRANCH   1   4
ATOM      2  O   LIG    1        5.505  -2.864  -0.573  0.00  0.00    -0.510 OA
ATOM      3  C   LIG    1        4.449  -3.276  -0.135  0.00  0.00    +0.560 C 
ATOM      4  N   LIG    1        3.501  -2.406   0.266  0.00  0.00    -0.710 N 
ATOM      5  H   LIG    1        2.658  -2.735   0.615  0.00  0.00    +0.410 HD
BRANCH   3   6
ATOM      6  C   LIG    1        4.204  -4.731  -0.043  0.00  0.00    -0.130 A 
ATOM      7  C   LIG    1        2.995  -5.208   0.464  0.00  0.00    +0.040 A 
ATOM      8  C   LIG    1        2.771  -6.567   0.543  0.00  0.00    +0.000 A 
ATOM      9  C   LIG    1        3.747  -7.457   0.131  0.00  0.00    +0.040 A 
ATOM     10  C   LIG    1        4.950  -6.991  -0.369  0.00  0.00    +0.000 A 
ATOM     11  C   LIG    1        5.184  -5.634  -0.458  0.00  0.00    +0.080 A 
ENDBRANCH   3   6
ENDBRANCH   1   4
BRANCH   1  12
ATOM     12  C   LIG    1        2.426  -0.239   0.078  0.00  0.00    +0.520 C 
ATOM     13  N   LIG    1        2.402   1.105  -0.015  0.00  0.00    -0.670 N 
ATOM     14  H   LIG    1        3.233   1.601  -0.089  0.00  0.00    +0.420 HD
ATOM     15  O   LIG    1        1.387  -0.865   0.085  0.00  0.00    -0.510 OA
BRANCH  13  16
ATOM     16  C   LIG    1        1.179   1.786  -0.007  0.00  0.00    +0.150 A 
ATOM     17  C   LIG    1        0.064   1.220  -0.609  0.00  0.00    +0.080 A 
ATOM     18  C   LIG    1       -1.140   1.897  -0.605  0.00  0.00    +0.060 A 
ATOM     19  C   LIG    1       -1.238   3.133   0.008  0.00  0.00    -0.010 A 
ATOM     20  C   LIG    1       -0.128   3.700   0.609  0.00  0.00    -0.160 A 
ATOM     21 CL   LIG    1       -2.755   3.977   0.019  0.00  0.00    -0.040 Cl
ATOM     22  C   LIG    1        1.080   3.030   0.603  0.00  0.00    +0.070 A 
BRANCH  20  23
ATOM     23  C   LIG    1       -0.236   5.050   1.270  0.00  0.00    +0.510 C 
ATOM     24  F   LIG    1       -1.184   4.990   2.298  0.00  0.00    -0.170 F 
ATOM     25  F   LIG    1       -0.633   6.002   0.325  0.00  0.00    -0.170 F 
ATOM     26  F   LIG    1        1.006   5.410   1.802  0.00  0.00    -0.170 F 
ENDBRANCH  20  23
ENDBRANCH  13  16
ENDBRANCH   1  12
BRANCH   1  27
ATOM     27  C   LIG    1        4.495  -0.494   1.422  0.00  0.00    +0.080 C 
BRANCH  27  28
ATOM     28  C   LIG    1        5.862  -1.127   1.453  0.00  0.00    -0.070 A 
ATOM     29  C   LIG    1        6.047  -2.340   2.089  0.00  0.00    +0.000 A 
ATOM     30  C   LIG    1        7.301  -2.923   2.113  0.00  0.00    +0.010 A 
ATOM     31  C   LIG    1        8.370  -2.288   1.511  0.00  0.00    +0.000 A 
ATOM     32  C   LIG    1        8.186  -1.072   0.880  0.00  0.00    +0.010 A 
ATOM     33  C   LIG    1        6.932  -0.491   0.851  0.00  0.00    +0.020 A 
ENDBRANCH  27  28
ENDBRANCH   1  27
TORSDOF 7
