REMARK  Name = ZINCkj00000xHexT.1
REMARK                            x       y       z     vdW  Elec       q    Type
REMARK                         _______ _______ _______ _____ _____    ______ ____
ROOT
ATOM      1  C   LIG    1        5.312   2.386  -2.290  0.00  0.00    +0.160 C 
ATOM      2  C   LIG    1        6.311   3.336  -1.602  0.00  0.00    +0.080 C 
ATOM      3  C   LIG    1        6.505   2.687  -0.206  0.00  0.00    +0.080 C 
ATOM      4  C   LIG    1        5.087   2.135   0.082  0.00  0.00    +0.250 C 
ATOM      5  N   LIG    1        4.594   1.657  -1.228  0.00  0.00    -0.380 N 
ATOM      6  H   LIG    1        4.770   0.668  -1.317  0.00  0.00    +0.430 HD
ENDROOT
BRANCH   1  13
ATOM      7  C   LIG    1        6.223   3.897  -6.427  0.00  0.00    +0.120 C 
ATOM      8  C   LIG    1        5.647   3.142  -5.255  0.00  0.00    +0.530 C 
ATOM      9  N   LIG    1        5.014   3.809  -4.270  0.00  0.00    -0.610 N 
ATOM     10  C   LIG    1        4.903   5.274  -4.157  0.00  0.00    +0.260 C 
ATOM     11  C   LIG    1        3.638   5.511  -3.296  0.00  0.00    +0.060 C 
ATOM     12  C   LIG    1        3.728   4.340  -2.282  0.00  0.00    +0.040 C 
ATOM     13  C   LIG    1        4.320   3.194  -3.129  0.00  0.00    +0.220 C 
ATOM     14  O   LIG    1        5.755   1.935  -5.200  0.00  0.00    -0.540 OA
ENDBRANCH   1  13
BRANCH   5  15
ATOM     15  C   LIG    1        3.152   1.917  -1.339  0.00  0.00    +0.240 C 
BRANCH  15  16
ATOM     16  C   LIG    1        2.393   0.992  -0.385  0.00  0.00    +0.330 C 
BRANCH  16  17
ATOM     17  N   LIG    1        0.968   1.328  -0.410  0.00  0.00    -0.390 N 
ATOM     18  C   LIG    1       -0.045   0.475  -0.671  0.00  0.00    +0.240 A 
ATOM     19  C   LIG    1       -1.201   1.175  -0.602  0.00  0.00    -0.100 A 
ATOM     20  C   LIG    1       -0.885   2.498  -0.279  0.00  0.00    +0.260 A 
ATOM     21  N   LIG    1        0.415   2.592  -0.167  0.00  0.00    -0.300 NA
ENDBRANCH  16  17
ENDBRANCH  15  16
ENDBRANCH   5  15
TORSDOF 4
