REMARK  Name = ZINCkj00000xHexT.0
REMARK                            x       y       z     vdW  Elec       q    Type
REMARK                         _______ _______ _______ _____ _____    ______ ____
ROOT
ATOM      1  C   LIG    1       -2.808   3.276   1.286  0.00  0.00    +0.160 C 
ATOM      2  C   LIG    1       -2.798   3.631   2.785  0.00  0.00    +0.070 C 
ATOM      3  C   LIG    1       -3.305   5.090   2.858  0.00  0.00    +0.080 C 
ATOM      4  C   LIG    1       -4.083   5.253   1.528  0.00  0.00    +0.270 C 
ATOM      5  N   LIG    1       -3.266   4.480   0.559  0.00  0.00    -0.390 N 
ATOM      6  H   LIG    1       -2.473   5.027   0.258  0.00  0.00    +0.420 HD
ENDROOT
BRANCH   1  13
ATOM      7  C   LIG    1       -0.762  -0.542   2.493  0.00  0.00    +0.120 C 
ATOM      8  C   LIG    1       -1.446   0.548   1.709  0.00  0.00    +0.530 C 
ATOM      9  N   LIG    1       -0.896   1.776   1.640  0.00  0.00    -0.610 N 
ATOM     10  C   LIG    1        0.309   2.220   2.365  0.00  0.00    +0.260 C 
ATOM     11  C   LIG    1        0.867   3.395   1.524  0.00  0.00    +0.060 C 
ATOM     12  C   LIG    1       -0.438   4.085   1.046  0.00  0.00    +0.030 C 
ATOM     13  C   LIG    1       -1.398   2.896   0.831  0.00  0.00    +0.220 C 
ATOM     14  O   LIG    1       -2.493   0.320   1.140  0.00  0.00    -0.540 OA
ENDBRANCH   1  13
BRANCH   5  15
ATOM     15  C   LIG    1       -4.084   4.093  -0.598  0.00  0.00    +0.260 C 
BRANCH  15  16
ATOM     16  C   LIG    1       -4.432   5.337  -1.417  0.00  0.00    +0.330 C 
BRANCH  16  17
ATOM     17  N   LIG    1       -5.248   4.951  -2.570  0.00  0.00    -0.390 N 
ATOM     18  C   LIG    1       -6.462   5.449  -2.886  0.00  0.00    +0.240 A 
ATOM     19  C   LIG    1       -6.876   4.837  -4.020  0.00  0.00    -0.090 A 
ATOM     20  C   LIG    1       -5.886   3.927  -4.405  0.00  0.00    +0.260 A 
ATOM     21  N   LIG    1       -4.910   3.995  -3.536  0.00  0.00    -0.300 NA
ENDBRANCH  16  17
ENDBRANCH  15  16
ENDBRANCH   5  15
TORSDOF 4
