REMARK  Name = ZINCrH000008uzkq.0
REMARK                            x       y       z     vdW  Elec       q    Type
REMARK                         _______ _______ _______ _____ _____    ______ ____
ROOT
ATOM      1  C   LIG    1        4.870   6.234   2.013  0.00  0.00    +0.530 C 
ATOM      2  N   LIG    1        5.847   5.580   1.355  0.00  0.00    -0.580 N 
ATOM      3  O   LIG    1        3.789   6.397   1.487  0.00  0.00    -0.530 OA
ENDROOT
BRANCH   2   4
ATOM      4  C   LIG    1        7.115   5.288   2.029  0.00  0.00    +0.190 C 
ATOM      5  C   LIG    1        8.208   4.598   1.210  0.00  0.00    +0.030 C 
ATOM      6  C   LIG    1        7.454   3.819   2.290  0.00  0.00    +0.010 C 
ENDBRANCH   2   4
BRANCH   1   7
ATOM      7  C   LIG    1        5.120   6.764   3.401  0.00  0.00    +0.050 C 
BRANCH   7   8
ATOM      8  C   LIG    1        3.823   7.348   3.965  0.00  0.00    +0.130 C 
BRANCH   8   9
ATOM      9  C   LIG    1        4.077   7.886   5.375  0.00  0.00    +0.040 C 
ATOM     10  N   LIG    1        5.418   8.371   5.709  0.00  0.00    -0.120 NA
ATOM     11  N   LIG    1        5.126   7.262   6.185  0.00  0.00    -0.120 NA
BRANCH   9  12
ATOM     12  C   LIG    1        2.874   8.509   6.087  0.00  0.00    +0.120 C 
BRANCH  12  13
ATOM     13  C   LIG    1        3.298   8.992   7.476  0.00  0.00    +0.160 C 
BRANCH  13  15
ATOM     14  C   LIG    1        1.219  10.069   8.708  0.00  0.00    +0.030 C 
ATOM     15  C   LIG    1        2.142   9.591   8.161  0.00  0.00    -0.190 C 
ENDBRANCH  13  15
ENDBRANCH  12  13
ENDBRANCH   9  12
ENDBRANCH   8   9
ENDBRANCH   7   8
ENDBRANCH   1   7
BRANCH   2  16
ATOM     16  C   LIG    1        5.643   5.162  -0.034  0.00  0.00    +0.370 C 
BRANCH  16  17
ATOM     17  C   LIG    1        5.046   3.778  -0.059  0.00  0.00    -0.250 A 
ATOM     18  C   LIG    1        3.726   3.480  -0.054  0.00  0.00    +0.270 A 
ATOM     19  N   LIG    1        3.609   2.133  -0.083  0.00  0.00    -0.320 N 
ATOM     20  N   LIG    1        4.899   1.589  -0.100  0.00  0.00    -0.290 NA
ATOM     21  C   LIG    1        5.760   2.575  -0.091  0.00  0.00    +0.260 A 
BRANCH  19  22
ATOM     22  C   LIG    1        2.408   1.410  -0.088  0.00  0.00    +0.160 A 
ATOM     23  C   LIG    1        1.192   2.080  -0.063  0.00  0.00    -0.010 A 
ATOM     24  C   LIG    1        0.011   1.364  -0.068  0.00  0.00    +0.040 A 
ATOM     25  C   LIG    1        0.038  -0.018  -0.099  0.00  0.00    +0.000 A 
ATOM     26  C   LIG    1        1.247  -0.688  -0.124  0.00  0.00    +0.030 A 
ATOM     27  C   LIG    1        2.432   0.022  -0.119  0.00  0.00    +0.020 A 
ENDBRANCH  19  22
ENDBRANCH  16  17
ENDBRANCH   2  16
TORSDOF 10
