REMARK  Name = ZINCrH000004tB0n.0
REMARK                            x       y       z     vdW  Elec       q    Type
REMARK                         _______ _______ _______ _____ _____    ______ ____
ROOT
ATOM      1  C   LIG    1        0.431  -2.142  -1.856  0.00  0.00    -0.020 C 
ATOM      2  C   LIG    1       -0.513  -2.763  -0.823  0.00  0.00    +0.040 C 
ATOM      3  C   LIG    1       -1.652  -3.483  -1.548  0.00  0.00    +0.180 C 
ATOM      4  N   LIG    1       -1.097  -4.526  -2.419  0.00  0.00    -0.530 NA
ATOM      5  C   LIG    1       -0.224  -3.949  -3.450  0.00  0.00    +0.180 C 
ATOM      6  C   LIG    1        0.957  -3.242  -2.782  0.00  0.00    +0.070 C 
ENDROOT
BRANCH   1   8
ATOM      7  O   LIG    1        2.721  -1.854  -1.365  0.00  0.00    -0.530 OA
ATOM      8  C   LIG    1        1.587  -1.482  -1.150  0.00  0.00    +0.530 C 
ATOM      9  N   LIG    1        1.361  -0.478  -0.280  0.00  0.00    -0.610 N 
ATOM     10  C   LIG    1        2.469   0.187   0.427  0.00  0.00    +0.280 C 
ATOM     11  C   LIG    1        2.510   1.644  -0.032  0.00  0.00    +0.070 C 
ATOM     12  C   LIG    1        1.135   2.256   0.003  0.00  0.00    -0.070 A 
ATOM     13  C   LIG    1        1.048   3.643   0.024  0.00  0.00    +0.000 A 
ATOM     14  C   LIG    1       -0.182   4.269   0.043  0.00  0.00    +0.000 A 
ATOM     15  C   LIG    1       -1.338   3.512   0.043  0.00  0.00    +0.000 A 
ATOM     16  C   LIG    1       -1.255   2.135   0.031  0.00  0.00    +0.010 A 
ATOM     17  C   LIG    1       -0.018   1.504   0.010  0.00  0.00    -0.100 A 
ATOM     18  C   LIG    1        0.002  -0.004   0.002  0.00  0.00    +0.330 C 
ENDBRANCH   1   8
BRANCH   4  19
ATOM     19  C   LIG    1       -2.167  -5.330  -3.025  0.00  0.00    +0.240 C 
BRANCH  19  20
ATOM     20  C   LIG    1       -2.887  -6.101  -1.949  0.00  0.00    -0.080 A 
ATOM     21  C   LIG    1       -2.595  -7.435  -1.741  0.00  0.00    +0.060 A 
ATOM     22  C   LIG    1       -3.251  -8.142  -0.751  0.00  0.00    +0.040 A 
ATOM     23  C   LIG    1       -4.209  -7.518   0.026  0.00  0.00    +0.020 A 
ATOM     24  C   LIG    1       -4.508  -6.183  -0.183  0.00  0.00    +0.070 A 
ATOM     25  F   LIG    1       -5.445  -5.573   0.576  0.00  0.00    -0.130 F 
ATOM     26  C   LIG    1       -3.846  -5.473  -1.173  0.00  0.00    +0.070 A 
ATOM     27  F   LIG    1       -4.137  -4.170  -1.379  0.00  0.00    -0.130 F 
ENDBRANCH  19  20
ENDBRANCH   4  19
TORSDOF 3
