REMARK  Name = ZINCvU0000000B0p.0
REMARK                            x       y       z     vdW  Elec       q    Type
REMARK                         _______ _______ _______ _____ _____    ______ ____
ROOT
ATOM      1  O   LIG    1       -4.630   0.113   0.026  0.00  0.00    -0.470 OA
ATOM      2  C   LIG    1       -4.799   1.314   0.033  0.00  0.00    +0.520 C 
ATOM      3  N   LIG    1       -6.049   1.818   0.041  0.00  0.00    -0.620 N 
ATOM      4  H   LIG    1       -6.185   2.779   0.047  0.00  0.00    +0.430 HD
ENDROOT
BRANCH   3   5
ATOM      5  C   LIG    1       -7.144   0.962   0.042  0.00  0.00    +0.270 A 
ATOM      6  N   LIG    1       -8.386   1.334   0.050  0.00  0.00    -0.500 NA
ATOM      7  C   LIG    1       -9.301   0.375   0.049  0.00  0.00    +0.130 A 
ATOM      8  C   LIG    1       -8.820  -0.881   0.040  0.00  0.00    -0.110 A 
ATOM      9  S   LIG    1       -7.060  -0.797   0.025  0.00  0.00    +0.220 S 
BRANCH   7  10
ATOM     10  C   LIG    1      -10.755   0.666   0.057  0.00  0.00    -0.010 A 
ATOM     11  C   LIG    1      -11.677  -0.379   0.049  0.00  0.00    +0.050 A 
ATOM     12  C   LIG    1      -13.030  -0.106   0.062  0.00  0.00    +0.040 A 
ATOM     13  C   LIG    1      -13.477   1.206   0.071  0.00  0.00    +0.040 A 
ATOM     14  O   LIG    1      -14.738   1.731   0.080  0.00  0.00    -0.310 OA
ATOM     15  C   LIG    1      -14.586   3.104  -0.326  0.00  0.00    +0.430 C 
ATOM     16  O   LIG    1      -13.246   3.436   0.084  0.00  0.00    -0.310 OA
ATOM     17  C   LIG    1      -12.559   2.256   0.074  0.00  0.00    +0.030 A 
ATOM     18  C   LIG    1      -11.202   1.987   0.067  0.00  0.00    +0.070 A 
ENDBRANCH   7  10
ENDBRANCH   3   5
BRANCH   2  19
ATOM     19  C   LIG    1       -3.612   2.243   0.032  0.00  0.00    +0.270 C 
BRANCH  19  20
ATOM     20  O   LIG    1       -2.407   1.475   0.022  0.00  0.00    -0.280 OA
BRANCH  20  21
ATOM     21  C   LIG    1       -1.237   2.165   0.020  0.00  0.00    +0.140 A 
ATOM     22  C   LIG    1       -1.246   3.550   0.033  0.00  0.00    -0.080 A 
ATOM     23  C   LIG    1       -0.054   4.251   0.024  0.00  0.00    +0.050 A 
ATOM     24  C   LIG    1        1.153   3.575   0.010  0.00  0.00    -0.020 A 
ATOM     25  C   LIG    1        1.177   2.195   0.003  0.00  0.00    +0.060 A 
ATOM     26  C   LIG    1       -0.018   1.479   0.010  0.00  0.00    -0.070 A 
BRANCH  26  27
ATOM     27  C   LIG    1        0.002  -0.004   0.002  0.00  0.00    -0.040 A 
ATOM     28  C   LIG    1       -0.750  -0.719   0.933  0.00  0.00    +0.040 A 
ATOM     29  C   LIG    1       -0.731  -2.099   0.917  0.00  0.00    +0.000 A 
ATOM     30  C   LIG    1        0.040  -2.772  -0.013  0.00  0.00    +0.000 A 
ATOM     31  C   LIG    1        0.793  -2.068  -0.935  0.00  0.00    +0.000 A 
ATOM     32  C   LIG    1        0.777  -0.688  -0.932  0.00  0.00    +0.010 A 
ENDBRANCH  26  27
ENDBRANCH  20  21
ENDBRANCH  19  20
ENDBRANCH   2  19
TORSDOF 6
