REMARK  Name = ZINCqH00000369Df.0
REMARK                            x       y       z     vdW  Elec       q    Type
REMARK                         _______ _______ _______ _____ _____    ______ ____
ROOT
ATOM      1  C   LIG    1        0.281  -2.773   5.998  0.00  0.00    +0.110 A 
ATOM      2  C   LIG    1        0.547  -1.931   4.929  0.00  0.00    -0.060 A 
ATOM      3  C   LIG    1        1.853  -1.630   4.599  0.00  0.00    +0.070 A 
ATOM      4  C   LIG    1        2.901  -2.171   5.336  0.00  0.00    +0.110 A 
ATOM      5  C   LIG    1        2.637  -3.011   6.406  0.00  0.00    -0.070 A 
ATOM      6  C   LIG    1        3.747  -3.606   7.231  0.00  0.00    +0.090 C 
ATOM      7  C   LIG    1        5.061  -3.592   6.451  0.00  0.00    +0.020 C 
ATOM      8  C   LIG    1        5.306  -2.179   5.915  0.00  0.00    +0.270 C 
ATOM      9  N   LIG    1        4.220  -1.854   4.979  0.00  0.00    -0.540 N 
ATOM     10  C   LIG    1        4.488  -1.267   3.796  0.00  0.00    +0.560 C 
ATOM     11  O   LIG    1        3.580  -0.973   3.043  0.00  0.00    -0.510 OA
ATOM     12  C   LIG    1        1.325  -3.311   6.734  0.00  0.00    +0.000 A 
ENDROOT
BRANCH  10  13
ATOM     13  C   LIG    1        5.884  -0.981   3.415  0.00  0.00    -0.090 A 
ATOM     14  C   LIG    1        6.761  -0.417   4.345  0.00  0.00    +0.040 A 
ATOM     15  C   LIG    1        8.065  -0.146   3.990  0.00  0.00    +0.100 A 
ATOM     16  C   LIG    1        8.507  -0.435   2.705  0.00  0.00    -0.110 A 
ATOM     17  S   LIG    1       10.171  -0.087   2.234  0.00  0.00    -0.130 S 
ATOM     18  C   LIG    1       10.913  -1.751   2.159  0.00  0.00    +0.140 C 
ATOM     19  C   LIG    1        9.888  -2.685   1.497  0.00  0.00    +0.060 C 
ATOM     20  C   LIG    1        9.234  -2.007   0.330  0.00  0.00    +0.530 C 
ATOM     21  N   LIG    1        8.106  -1.303   0.483  0.00  0.00    -0.670 N 
ATOM     22  H   LIG    1        7.613  -1.000  -0.296  0.00  0.00    +0.420 HD
ATOM     23  O   LIG    1        9.736  -2.098  -0.771  0.00  0.00    -0.520 OA
ATOM     24  C   LIG    1        7.636  -1.002   1.772  0.00  0.00    +0.170 A 
ATOM     25  C   LIG    1        6.329  -1.274   2.121  0.00  0.00    +0.070 A 
ENDBRANCH  10  13
BRANCH   1  27
ATOM     26  C   LIG    1       -2.031  -2.483   5.523  0.00  0.00    +0.250 C 
ATOM     27  O   LIG    1       -1.004  -3.073   6.324  0.00  0.00    -0.320 OA
ENDBRANCH   1  27
TORSDOF 2
