REMARK  Name = ZINCrH000004n7fM.0
REMARK                            x       y       z     vdW  Elec       q    Type
REMARK                         _______ _______ _______ _____ _____    ______ ____
ROOT
ATOM      1  C   LIG    1        0.678  -4.162  -1.475  0.00  0.00    +0.600 C 
ATOM      2  N   LIG    1        0.822  -2.833  -1.308  0.00  0.00    -0.620 N 
ATOM      3  C   LIG    1        0.651  -1.810  -2.357  0.00  0.00    +0.280 C 
ATOM      4  C   LIG    1        1.488  -0.598  -1.874  0.00  0.00    +0.050 C 
ATOM      5  C   LIG    1        1.261  -0.655  -0.347  0.00  0.00    +0.110 C 
ATOM      6  C   LIG    1        2.442  -0.027   0.386  0.00  0.00    +0.030 C 
ATOM      7  C   LIG    1        2.570   1.432  -0.059  0.00  0.00    +0.090 C 
ATOM      8  C   LIG    1        1.219   2.099  -0.015  0.00  0.00    -0.160 A 
ATOM      9  C   LIG    1        1.161   3.483  -0.001  0.00  0.00    +0.050 A 
ATOM     10  C   LIG    1       -0.058   4.131   0.032  0.00  0.00    -0.020 A 
ATOM     11  C   LIG    1       -1.230   3.398   0.053  0.00  0.00    +0.040 A 
ATOM     12  C   LIG    1       -1.179   2.018   0.045  0.00  0.00    -0.020 A 
ATOM     13  C   LIG    1        0.047   1.363   0.009  0.00  0.00    +0.130 A 
ATOM     14  O   LIG    1        0.054   0.004   0.004  0.00  0.00    -0.300 OA
ATOM     15  C   LIG    1        1.175  -2.159  -0.048  0.00  0.00    +0.280 C 
ATOM     16  O   LIG    1        0.301  -4.603  -2.544  0.00  0.00    -0.510 OA
ENDROOT
BRANCH   1  23
ATOM     17  C   LIG    1        1.811  -8.413   2.670  0.00  0.00    +0.100 A 
ATOM     18  C   LIG    1        2.009  -7.310   3.498  0.00  0.00    -0.020 A 
ATOM     19  C   LIG    1        1.865  -6.031   3.009  0.00  0.00    +0.040 A 
ATOM     20  C   LIG    1        1.518  -5.831   1.677  0.00  0.00    +0.080 A 
ATOM     21  N   LIG    1        1.312  -4.699   0.919  0.00  0.00    -0.590 N 
ATOM     22  H   LIG    1        1.387  -3.786   1.237  0.00  0.00    +0.420 HD
ATOM     23  C   LIG    1        0.979  -5.080  -0.366  0.00  0.00    +0.020 A 
ATOM     24  C   LIG    1        0.977  -6.436  -0.444  0.00  0.00    +0.060 A 
ATOM     25  C   LIG    1        1.315  -6.942   0.835  0.00  0.00    -0.080 A 
ATOM     26  C   LIG    1        1.466  -8.237   1.347  0.00  0.00    +0.040 A 
BRANCH  17  28
ATOM     27  C   LIG    1        2.315  -9.781   4.549  0.00  0.00    +0.230 C 
ATOM     28  O   LIG    1        1.957  -9.669   3.170  0.00  0.00    -0.320 OA
ENDBRANCH  17  28
ENDBRANCH   1  23
TORSDOF 2
