REMARK  Name = ZINCvU0000000Ibx.0
REMARK                            x       y       z     vdW  Elec       q    Type
REMARK                         _______ _______ _______ _____ _____    ______ ____
ROOT
ATOM      1  C   LIG    1       -2.139  -3.698  -4.445  0.00  0.00    +0.320 A 
ATOM      2  N   LIG    1       -1.830  -3.264  -3.255  0.00  0.00    -0.240 NA
ATOM      3  N   LIG    1       -2.978  -2.694  -2.689  0.00  0.00    -0.360 N 
ATOM      4  C   LIG    1       -3.977  -2.813  -3.588  0.00  0.00    +0.470 A 
ATOM      5  S   LIG    1       -5.591  -2.281  -3.382  0.00  0.00    -0.560 S 
ATOM      6  N   LIG    1       -3.474  -3.425  -4.679  0.00  0.00    -0.450 N 
ENDROOT
BRANCH   6   7
ATOM      7  C   LIG    1       -4.183  -3.736  -5.847  0.00  0.00    +0.120 A 
ATOM      8  C   LIG    1       -4.371  -2.769  -6.825  0.00  0.00    +0.070 A 
ATOM      9  C   LIG    1       -5.066  -3.080  -7.977  0.00  0.00    +0.050 A 
ATOM     10  C   LIG    1       -5.585  -4.351  -8.152  0.00  0.00    -0.010 A 
ATOM     11  C   LIG    1       -5.403  -5.315  -7.176  0.00  0.00    +0.050 A 
ATOM     12 CL   LIG    1       -6.464  -4.737  -9.598  0.00  0.00    -0.050 Cl
ATOM     13  C   LIG    1       -4.704  -5.011  -6.025  0.00  0.00    +0.060 A 
ENDBRANCH   6   7
BRANCH   1  18
ATOM     14  C   LIG    1        0.933  -5.334  -5.868  0.00  0.00    +0.130 A 
ATOM     15  C   LIG    1        0.510  -5.623  -7.158  0.00  0.00    -0.040 A 
ATOM     16  C   LIG    1       -0.769  -5.287  -7.563  0.00  0.00    +0.070 A 
ATOM     17  C   LIG    1       -1.633  -4.662  -6.686  0.00  0.00    +0.010 A 
ATOM     18  C   LIG    1       -1.215  -4.368  -5.388  0.00  0.00    -0.000 A 
ATOM     19  C   LIG    1        0.076  -4.702  -4.983  0.00  0.00    +0.050 A 
BRANCH  14  21
ATOM     20  C   LIG    1        3.023  -6.311  -6.443  0.00  0.00    +0.240 C 
ATOM     21  O   LIG    1        2.191  -5.667  -5.476  0.00  0.00    -0.310 OA
ENDBRANCH  14  21
ENDBRANCH   1  18
BRANCH   3  22
ATOM     22  C   LIG    1       -3.078  -2.086  -1.360  0.00  0.00    +0.520 C 
BRANCH  22  23
ATOM     23  N   LIG    1       -2.432  -0.766  -1.377  0.00  0.00    -0.550 NA
ATOM     24  C   LIG    1       -3.329   0.252  -1.939  0.00  0.00    +0.210 C 
BRANCH  23  25
ATOM     25  C   LIG    1       -1.980  -0.385  -0.032  0.00  0.00    +0.250 C 
BRANCH  25  26
ATOM     26  C   LIG    1       -1.113   0.845  -0.123  0.00  0.00    -0.080 A 
ATOM     27  C   LIG    1       -1.685   2.100  -0.035  0.00  0.00    +0.010 A 
ATOM     28  C   LIG    1       -0.890   3.228  -0.118  0.00  0.00    +0.000 A 
ATOM     29  C   LIG    1        0.476   3.101  -0.291  0.00  0.00    +0.000 A 
ATOM     30  C   LIG    1        1.047   1.845  -0.378  0.00  0.00    +0.000 A 
ATOM     31  C   LIG    1        0.252   0.717  -0.294  0.00  0.00    +0.020 A 
ENDBRANCH  25  26
ENDBRANCH  23  25
ENDBRANCH  22  23
ENDBRANCH   3  22
TORSDOF 7
