REMARK  Name = ZINCc70000003X5U.0
REMARK                            x       y       z     vdW  Elec       q    Type
REMARK                         _______ _______ _______ _____ _____    ______ ____
ROOT
ATOM      1  C   LIG    1       -1.290   1.681   0.017  0.00  0.00    +0.400 C 
ENDROOT
BRANCH   1   2
ATOM      2  C   LIG    1       -2.422   0.686   0.017  0.00  0.00    +0.050 A 
ATOM      3  N   LIG    1       -2.995   0.201  -1.043  0.00  0.00    -0.250 NA
ATOM      4  O   LIG    1       -4.003  -0.697  -0.608  0.00  0.00    +0.040 OA
ATOM      5  N   LIG    1       -3.969  -0.680   0.811  0.00  0.00    -0.270 NA
ATOM      6  C   LIG    1       -3.028   0.142   1.167  0.00  0.00    +0.080 A 
ATOM      7  C   LIG    1       -2.645   0.465   2.588  0.00  0.00    +0.190 C 
ENDBRANCH   1   2
BRANCH   1   9
ATOM      8  C   LIG    1        1.147   1.655   0.000  0.00  0.00    +0.550 C 
ATOM      9  N   LIG    1       -0.011   0.966   0.007  0.00  0.00    -0.730 N 
ATOM     10  H   LIG    1        0.002  -0.004   0.002  0.00  0.00    +0.410 HD
ATOM     11  O   LIG    1        1.130   2.872   0.007  0.00  0.00    -0.540 OA
BRANCH   8  13
ATOM     12  C   LIG    1        3.573   1.618  -0.023  0.00  0.00    +0.160 C 
ATOM     13  C   LIG    1        2.431   0.937  -0.016  0.00  0.00    -0.090 C 
ENDBRANCH   8  13
ENDBRANCH   1   9
TORSDOF 3
