REMARK  Name = ZINCrD000000BnaZ.0
REMARK                            x       y       z     vdW  Elec       q    Type
REMARK                         _______ _______ _______ _____ _____    ______ ____
ROOT
ATOM      1  O   LIG    1       -1.204   2.837   0.023  0.00  0.00    -0.520 OA
ATOM      2  C   LIG    1       -1.187   1.624   0.017  0.00  0.00    +0.530 C 
ATOM      3  N   LIG    1       -0.011   0.966   0.007  0.00  0.00    -0.730 N 
ATOM      4  H   LIG    1        0.002  -0.004   0.002  0.00  0.00    +0.410 HD
ENDROOT
BRANCH   2   5
ATOM      5  C   LIG    1       -2.482   0.853   0.018  0.00  0.00    +0.010 C 
ATOM      6  C   LIG    1       -2.598  -0.030   1.283  0.00  0.00    +0.100 C 
ATOM      7  C   LIG    1       -4.065   0.038   1.649  0.00  0.00    +0.530 C 
ATOM      8  N   LIG    1       -4.652   1.068   1.016  0.00  0.00    -0.580 N 
ATOM      9  O   LIG    1       -4.628  -0.726   2.404  0.00  0.00    -0.510 OA
ATOM     10  C   LIG    1       -3.690   1.801   0.184  0.00  0.00    +0.310 C 
BRANCH   8  11
ATOM     11  C   LIG    1       -6.008   1.400   1.135  0.00  0.00    +0.070 A 
ATOM     12  C   LIG    1       -6.939   0.852   0.261  0.00  0.00    +0.140 A 
ATOM     13  C   LIG    1       -8.278   1.177   0.385  0.00  0.00    -0.010 A 
ATOM     14  C   LIG    1       -8.689   2.055   1.371  0.00  0.00    +0.100 A 
ATOM     15  C   LIG    1       -7.766   2.607   2.239  0.00  0.00    -0.010 A 
ATOM     16  F   LIG    1       -6.537  -0.002  -0.707  0.00  0.00    -0.120 F 
ATOM     17  C   LIG    1       -6.426   2.282   2.125  0.00  0.00    +0.140 A 
ATOM     18  F   LIG    1       -5.524   2.822   2.974  0.00  0.00    -0.120 F 
ENDBRANCH   8  11
ENDBRANCH   2   5
BRANCH   3  19
ATOM     19  C   LIG    1        1.248   1.716  -0.001  0.00  0.00    +0.400 C 
BRANCH  19  20
ATOM     20  C   LIG    1        2.406   0.752  -0.017  0.00  0.00    +0.010 A 
ATOM     21  C   LIG    1        2.982   0.263  -1.124  0.00  0.00    -0.010 A 
ATOM     22  C   LIG    1        4.058  -0.625  -0.667  0.00  0.00    -0.140 A 
ATOM     23  C   LIG    1        5.007  -1.416  -1.312  0.00  0.00    +0.060 A 
ATOM     24  C   LIG    1        5.897  -2.155  -0.564  0.00  0.00    -0.010 A 
ATOM     25  C   LIG    1        5.851  -2.113   0.822  0.00  0.00    +0.050 A 
ATOM     26  C   LIG    1        4.917  -1.334   1.471  0.00  0.00    +0.020 A 
ATOM     27  C   LIG    1        4.010  -0.582   0.736  0.00  0.00    +0.060 A 
ATOM     28  O   LIG    1        3.008   0.254   1.077  0.00  0.00    -0.190 OA
ENDBRANCH  19  20
ENDBRANCH   3  19
TORSDOF 4
