REMARK  Name = ZINCpk000000mJHf.0
REMARK                            x       y       z     vdW  Elec       q    Type
REMARK                         _______ _______ _______ _____ _____    ______ ____
ROOT
ATOM      1  C   LIG    1       -1.596  -1.162  -1.410  0.00  0.00    +0.500 C 
ATOM      2  N   LIG    1       -2.666  -1.946  -1.650  0.00  0.00    -0.600 N 
ATOM      3  C   LIG    1       -3.422  -2.517  -0.532  0.00  0.00    +0.290 C 
ATOM      4  O   LIG    1       -0.970  -0.690  -2.335  0.00  0.00    -0.510 OA
ENDROOT
BRANCH   1   5
ATOM      5  C   LIG    1       -1.178  -0.872   0.009  0.00  0.00    +0.370 C 
BRANCH   5   9
ATOM      6  N   LIG    1        1.227   1.846   0.000  0.00  0.00    -0.570 N 
ATOM      7  C   LIG    1        2.114   0.827  -0.014  0.00  0.00    +0.510 C 
ATOM      8  C   LIG    1        1.286  -0.423  -0.013  0.00  0.00    +0.510 C 
ATOM      9  N   LIG    1        0.002  -0.004   0.002  0.00  0.00    -0.560 N 
ATOM     10  O   LIG    1        1.685  -1.569  -0.022  0.00  0.00    -0.400 OA
ATOM     11  O   LIG    1        3.324   0.907  -0.025  0.00  0.00    -0.400 OA
ATOM     12  C   LIG    1       -0.016   1.339   0.009  0.00  0.00    +0.720 C 
ATOM     13  O   LIG    1       -1.029   2.009   0.018  0.00  0.00    -0.480 OA
BRANCH   6  14
ATOM     14  C   LIG    1        1.566   3.271   0.004  0.00  0.00    +0.370 C 
BRANCH  14  16
ATOM     15  C   LIG    1        2.796   4.344   1.820  0.00  0.00    +0.060 C 
ATOM     16  C   LIG    1        1.696   3.752   1.426  0.00  0.00    -0.070 C 
ENDBRANCH  14  16
ENDBRANCH   6  14
ENDBRANCH   5   9
ENDBRANCH   1   5
BRANCH   2  17
ATOM     17  C   LIG    1       -3.072  -2.228  -3.029  0.00  0.00    +0.350 C 
BRANCH  17  18
ATOM     18  C   LIG    1       -2.370  -3.470  -3.516  0.00  0.00    -0.150 A 
ATOM     19  C   LIG    1       -1.143  -3.367  -4.149  0.00  0.00    +0.140 A 
ATOM     20  C   LIG    1       -0.496  -4.509  -4.591  0.00  0.00    -0.010 A 
ATOM     21  C   LIG    1       -1.079  -5.748  -4.410  0.00  0.00    +0.080 A 
ATOM     22  C   LIG    1       -2.307  -5.850  -3.783  0.00  0.00    +0.020 A 
ATOM     23  F   LIG    1       -0.575  -2.155  -4.332  0.00  0.00    -0.110 F 
ATOM     24  C   LIG    1       -2.953  -4.711  -3.335  0.00  0.00    +0.000 A 
ATOM     25 CL   LIG    1       -4.495  -4.839  -2.548  0.00  0.00    -0.050 Cl
ENDBRANCH  17  18
ENDBRANCH   2  17
TORSDOF 6
