REMARK  Name = ZINCpk000000ogWw.0
REMARK                            x       y       z     vdW  Elec       q    Type
REMARK                         _______ _______ _______ _____ _____    ______ ____
ROOT
ATOM      1  C   LIG    1        3.448   2.686   1.146  0.00  0.00    +0.120 C 
ENDROOT
BRANCH   1   2
ATOM      2  N   LIG    1        3.961   2.735   2.518  0.00  0.00    -0.470 NA
ATOM      3  C   LIG    1        5.016   2.044   2.843  0.00  0.00    +0.390 C 
ATOM      4  N   LIG    1        5.666   1.258   1.927  0.00  0.00    -1.050 N 
ATOM      5  H   LIG    1        5.434   1.131   0.993  0.00  0.00    +0.450 HD
ATOM      6  S   LIG    1        6.944   0.565   2.752  0.00  0.00    +2.670 S 
ATOM      7  C   LIG    1        6.691   1.264   4.359  0.00  0.00    -0.630 A 
ATOM      8  C   LIG    1        7.347   1.150   5.555  0.00  0.00    +0.150 A 
ATOM      9  C   LIG    1        6.887   1.848   6.662  0.00  0.00    +0.040 A 
ATOM     10  C   LIG    1        5.768   2.652   6.544  0.00  0.00    +0.070 A 
ATOM     11  C   LIG    1        5.106   2.769   5.343  0.00  0.00    +0.100 A 
ATOM     12  O   LIG    1        6.684  -0.829   2.848  0.00  0.00    -0.930 OA
ATOM     13  O   LIG    1        8.144   1.117   2.230  0.00  0.00    -0.930 OA
ATOM     14  C   LIG    1        5.558   2.071   4.212  0.00  0.00    -0.020 A 
ENDBRANCH   1   2
BRANCH   1  15
ATOM     15  C   LIG    1        2.034   2.164   1.157  0.00  0.00    +0.520 C 
ATOM     16  N   LIG    1        1.356   2.033   0.000  0.00  0.00    -0.720 N 
ATOM     17  H   LIG    1        1.777   2.274  -0.840  0.00  0.00    +0.400 HD
ATOM     18  O   LIG    1        1.507   1.863   2.207  0.00  0.00    -0.510 OA
BRANCH  16  19
ATOM     19  C   LIG    1       -0.019   1.526   0.010  0.00  0.00    +0.250 C 
ATOM     20  C   LIG    1        0.002  -0.004   0.002  0.00  0.00    +0.040 C 
BRANCH  19  21
ATOM     21  C   LIG    1       -0.759   2.033  -1.229  0.00  0.00    +0.180 C 
BRANCH  21  22
ATOM     22  O   LIG    1       -0.160   1.477  -2.402  0.00  0.00    -0.390 OA
ATOM     23  C   LIG    1       -0.779   1.889  -3.622  0.00  0.00    +0.200 C 
ENDBRANCH  21  22
ENDBRANCH  19  21
ENDBRANCH  16  19
ENDBRANCH   1  15
BRANCH   1  24
ATOM     24  C   LIG    1        3.468   4.092   0.544  0.00  0.00    +0.060 C 
BRANCH  24  25
ATOM     25  C   LIG    1        4.915   4.572   0.418  0.00  0.00    +0.010 C 
BRANCH  25  27
ATOM     26  C   LIG    1        6.383   6.459  -0.310  0.00  0.00    +0.010 C 
ATOM     27  C   LIG    1        4.936   5.979  -0.184  0.00  0.00    +0.000 C 
ENDBRANCH  25  27
ENDBRANCH  24  25
ENDBRANCH   1  24
TORSDOF 8
