REMARK  Name = ZINCrD00000hQ5zy.0
REMARK                            x       y       z     vdW  Elec       q    Type
REMARK                         _______ _______ _______ _____ _____    ______ ____
ROOT
ATOM      1  C   LIG    1       -1.793   0.893  -1.645  0.00  0.00    +0.530 C 
ATOM      2  N   LIG    1       -0.734   1.577  -1.169  0.00  0.00    -0.710 N 
ATOM      3  H   LIG    1       -0.449   2.395  -1.606  0.00  0.00    +0.410 HD
ATOM      4  O   LIG    1       -2.149  -0.130  -1.098  0.00  0.00    -0.530 OA
ENDROOT
BRANCH   2   5
ATOM      5  C   LIG    1       -0.013   1.086   0.008  0.00  0.00    +0.210 C 
ATOM      6  C   LIG    1       -0.700   1.588   1.285  0.00  0.00    +0.230 C 
ATOM      7  O   LIG    1       -0.026   1.020   2.408  0.00  0.00    -0.310 OA
ATOM      8  C   LIG    1        1.331   1.105   2.450  0.00  0.00    +0.140 A 
ATOM      9  C   LIG    1        2.068   1.379   1.337  0.00  0.00    -0.160 A 
ATOM     10  C   LIG    1        3.471   1.443   1.430  0.00  0.00    -0.010 A 
ATOM     11  C   LIG    1        4.259   1.721   0.299  0.00  0.00    +0.010 A 
ATOM     12  C   LIG    1        5.614   1.777   0.420  0.00  0.00    +0.020 A 
ATOM     13  C   LIG    1        6.234   1.561   1.648  0.00  0.00    -0.010 A 
ATOM     14  C   LIG    1        5.504   1.289   2.764  0.00  0.00    +0.040 A 
ATOM     15  C   LIG    1        4.103   1.224   2.679  0.00  0.00    -0.080 A 
ATOM     16  C   LIG    1        3.314   0.947   3.808  0.00  0.00    +0.070 A 
ATOM     17  C   LIG    1        1.963   0.891   3.686  0.00  0.00    +0.000 A 
ATOM     18  C   LIG    1        1.421   1.622  -0.003  0.00  0.00    +0.090 C 
ENDBRANCH   2   5
BRANCH   1  28
ATOM     19  C   LIG    1       -5.572   0.036  -4.777  0.00  0.00    +0.030 C 
ATOM     20  C   LIG    1       -4.268   0.807  -4.566  0.00  0.00    -0.020 C 
ATOM     21  C   LIG    1       -3.279   0.453  -5.683  0.00  0.00    +0.100 C 
ATOM     22  C   LIG    1       -1.935   1.038  -5.326  0.00  0.00    -0.230 A 
ATOM     23  C   LIG    1       -0.874   1.244  -6.128  0.00  0.00    +0.250 A 
ATOM     24  N   LIG    1        0.107   1.792  -5.376  0.00  0.00    -0.480 N 
ATOM     25  H   LIG    1        0.989   2.048  -5.688  0.00  0.00    +0.440 HD
ATOM     26  N   LIG    1       -0.374   1.924  -4.065  0.00  0.00    -0.280 NA
ATOM     27  C   LIG    1       -1.594   1.473  -4.034  0.00  0.00    +0.080 A 
ATOM     28  C   LIG    1       -2.534   1.398  -2.855  0.00  0.00    +0.100 C 
ATOM     29  C   LIG    1       -3.670   0.429  -3.208  0.00  0.00    +0.070 C 
ENDBRANCH   1  28
TORSDOF 2
