REMARK  Name = ZINCtV00001bB3aF.0
REMARK                            x       y       z     vdW  Elec       q    Type
REMARK                         _______ _______ _______ _____ _____    ______ ____
ROOT
ATOM      1  N   LIG    1       -1.140   4.644  -0.127  0.00  0.00    -0.520 NA
ATOM      2  C   LIG    1       -1.612   5.564  -0.946  0.00  0.00    +0.350 A 
ATOM      3  S   LIG    1       -2.599   5.312  -2.397  0.00  0.00    +0.030 S 
ATOM      4  C   LIG    1       -2.723   7.037  -2.789  0.00  0.00    -0.020 A 
ATOM      5  C   LIG    1       -2.035   7.676  -1.834  0.00  0.00    +0.170 A 
ATOM      6  N   LIG    1       -1.451   6.920  -0.855  0.00  0.00    -0.350 N 
ENDROOT
BRANCH   1  12
ATOM      7  C   LIG    1        0.453   0.022  -0.384  0.00  0.00    +0.090 C 
ATOM      8  C   LIG    1       -0.649   1.045  -0.495  0.00  0.00    -0.070 A 
ATOM      9  C   LIG    1       -1.929   0.646  -0.837  0.00  0.00    +0.000 A 
ATOM     10  C   LIG    1       -2.946   1.578  -0.947  0.00  0.00    +0.040 A 
ATOM     11  C   LIG    1       -2.692   2.912  -0.706  0.00  0.00    -0.030 A 
ATOM     12  C   LIG    1       -1.401   3.323  -0.361  0.00  0.00    +0.110 A 
ATOM     13  C   LIG    1       -0.378   2.376  -0.257  0.00  0.00    +0.020 A 
ENDBRANCH   1  12
BRANCH   5  14
ATOM     14  C   LIG    1       -1.918   9.151  -1.834  0.00  0.00    -0.030 A 
ATOM     15  C   LIG    1       -3.050   9.944  -2.026  0.00  0.00    +0.060 A 
ATOM     16  C   LIG    1       -2.936  11.318  -2.020  0.00  0.00    +0.030 A 
ATOM     17  C   LIG    1       -1.698  11.912  -1.835  0.00  0.00    -0.020 A 
ATOM     18  C   LIG    1       -0.571  11.130  -1.649  0.00  0.00    +0.030 A 
ATOM     19 CL   LIG    1       -1.560  13.642  -1.836  0.00  0.00    -0.060 Cl
ATOM     20  C   LIG    1       -0.674   9.755  -1.647  0.00  0.00    +0.070 A 
ENDBRANCH   5  14
BRANCH   6  21
ATOM     21  N   LIG    1       -0.719   7.504   0.187  0.00  0.00    -0.260 NA
ATOM     22  C   LIG    1       -0.083   6.754   1.034  0.00  0.00    +0.320 C 
BRANCH  22  23
ATOM     23  C   LIG    1        0.579   7.360   2.204  0.00  0.00    -0.040 A 
ATOM     24  C   LIG    1        0.529   8.742   2.401  0.00  0.00    +0.050 A 
ATOM     25  C   LIG    1        1.145   9.303   3.500  0.00  0.00    +0.040 A 
ATOM     26  C   LIG    1        1.822   8.502   4.402  0.00  0.00    +0.010 A 
ATOM     27  C   LIG    1        1.882   7.130   4.212  0.00  0.00    +0.100 A 
ATOM     28  F   LIG    1        2.545   6.354   5.097  0.00  0.00    -0.130 F 
ATOM     29  C   LIG    1        1.264   6.555   3.118  0.00  0.00    +0.020 A 
ENDBRANCH  22  23
ENDBRANCH   6  21
TORSDOF 4
