REMARK  Name = ZINCrg00000SjSpH.0
REMARK                            x       y       z     vdW  Elec       q    Type
REMARK                         _______ _______ _______ _____ _____    ______ ____
ROOT
ATOM      1  N   LIG    1        4.582  -0.520  -1.099  0.00  0.00    -0.490 NA
ATOM      2  C   LIG    1        4.805   0.362  -2.260  0.00  0.00    +0.180 C 
ATOM      3  C   LIG    1        5.352   1.702  -1.719  0.00  0.00    +0.020 C 
ATOM      4  C   LIG    1        4.897   1.691  -0.248  0.00  0.00    +0.260 C 
ATOM      5  C   LIG    1        5.808   2.523   0.605  0.00  0.00    +0.010 A 
ATOM      6  C   LIG    1        5.411   3.673   1.200  0.00  0.00    -0.020 A 
ATOM      7  N   LIG    1        6.485   4.159   1.880  0.00  0.00    -0.450 N 
ATOM      8  C   LIG    1        7.504   3.291   1.686  0.00  0.00    +0.390 A 
ATOM      9  C   LIG    1        6.529   5.389   2.674  0.00  0.00    +0.330 C 
ATOM     10  C   LIG    1        4.027   4.256   1.094  0.00  0.00    +0.130 C 
ATOM     11  C   LIG    1        3.309   3.643  -0.120  0.00  0.00    +0.300 C 
ATOM     12  N   LIG    1        7.087   2.316   0.921  0.00  0.00    -0.470 NA
ATOM     13  N   LIG    1        3.527   2.186  -0.121  0.00  0.00    -0.610 N 
ATOM     14  C   LIG    1        2.491   1.331  -0.014  0.00  0.00    +0.590 C 
ATOM     15  O   LIG    1        2.683   0.181   0.335  0.00  0.00    -0.440 OA
ATOM     16  C   LIG    1        4.985   0.203   0.129  0.00  0.00    +0.240 C 
ENDROOT
BRANCH  14  17
ATOM     17  C   LIG    1        1.133   1.786  -0.318  0.00  0.00    -0.260 A 
ATOM     18  C   LIG    1       -0.005   1.044  -0.161  0.00  0.00    +0.130 A 
ATOM     19  C   LIG    1       -1.146   1.715  -0.528  0.00  0.00    -0.040 A 
ATOM     20  C   LIG    1       -0.953   2.970  -0.962  0.00  0.00    -0.040 A 
ATOM     21  F   LIG    1       -1.938   3.802  -1.366  0.00  0.00    -0.100 F 
ATOM     22  S   LIG    1        0.705   3.373  -0.941  0.00  0.00    +0.220 S 
ENDBRANCH  14  17
BRANCH   1  24
ATOM     23  C   LIG    1        4.888  -2.493  -2.517  0.00  0.00    +0.060 C 
ATOM     24  C   LIG    1        5.331  -1.776  -1.240  0.00  0.00    +0.120 C 
BRANCH  24  25
ATOM     25  C   LIG    1        5.061  -2.659  -0.049  0.00  0.00    +0.520 C 
ATOM     26  O   LIG    1        4.318  -2.279   0.831  0.00  0.00    -0.500 OA
ATOM     27  N   LIG    1        5.645  -3.870   0.038  0.00  0.00    -0.860 N 
ATOM     28  H   LIG    1        5.472  -4.438   0.805  0.00  0.00    +0.400 HD
ATOM     29  H   LIG    1        6.240  -4.174  -0.666  0.00  0.00    +0.400 HD
ENDBRANCH  24  25
ENDBRANCH   1  24
TORSDOF 3
