REMARK  Name = ZINCtj0000003dWd.1
REMARK                            x       y       z     vdW  Elec       q    Type
REMARK                         _______ _______ _______ _____ _____    ______ ____
ROOT
ATOM      1  N   LIG    1       -1.713   5.450  -2.257  0.00  0.00    -0.730 N 
ATOM      2  H   LIG    1       -1.173   5.939  -1.616  0.00  0.00    +0.410 HD
ATOM      3  C   LIG    1       -2.480   6.119  -3.140  0.00  0.00    +0.520 C 
ATOM      4  O   LIG    1       -3.155   5.508  -3.942  0.00  0.00    -0.530 OA
ENDROOT
BRANCH   1   5
ATOM      5  C   LIG    1       -1.693   3.985  -2.265  0.00  0.00    +0.270 C 
BRANCH   5   7
ATOM      6  C   LIG    1       -1.236   3.978   0.191  0.00  0.00    +0.080 C 
ATOM      7  C   LIG    1       -0.749   3.482  -1.171  0.00  0.00    +0.100 C 
BRANCH   7   8
ATOM      8  O   LIG    1        0.569   3.977  -1.415  0.00  0.00    -0.540 OA
ATOM      9  H   LIG    1        0.943   3.702  -2.264  0.00  0.00    +0.400 HD
ENDBRANCH   7   8
BRANCH   7  10
ATOM     10  C   LIG    1       -0.728   1.952  -1.180  0.00  0.00    +0.260 C 
BRANCH  10  11
ATOM     11  N   LIG    1        0.026   1.466  -0.017  0.00  0.00    -0.380 N 
ATOM     12  C   LIG    1        1.391   2.008  -0.056  0.00  0.00    +0.240 C 
ATOM     13  C   LIG    1        2.174   1.501   1.157  0.00  0.00    +0.250 C 
ATOM     14  O   LIG    1        2.177   0.070   1.152  0.00  0.00    -0.360 OA
ATOM     15  C   LIG    1        0.868  -0.506   1.165  0.00  0.00    +0.260 C 
ATOM     16  C   LIG    1        0.082  -0.002  -0.048  0.00  0.00    +0.230 C 
ATOM     17  H   LIG    1       -0.432   1.767   0.831  0.00  0.00    +0.420 HD
ENDBRANCH  10  11
ENDBRANCH   7  10
ENDBRANCH   5   7
ENDBRANCH   1   5
BRANCH   3  18
ATOM     18  C   LIG    1       -2.501   7.625  -3.132  0.00  0.00    +0.060 C 
BRANCH  18  19
ATOM     19  C   LIG    1       -3.445   8.129  -4.225  0.00  0.00    +0.050 C 
BRANCH  19  20
ATOM     20  C   LIG    1       -3.466   9.659  -4.217  0.00  0.00    +0.190 C 
BRANCH  20  21
ATOM     21  C   LIG    1       -4.396  10.155  -5.294  0.00  0.00    +0.180 A 
ATOM     22  N   LIG    1       -5.676  10.396  -5.165  0.00  0.00    -0.470 NA
ATOM     23  C   LIG    1       -6.090  10.818  -6.381  0.00  0.00    +0.220 A 
ATOM     24  N   LIG    1       -5.047  10.809  -7.169  0.00  0.00    -0.370 NA
ATOM     25  O   LIG    1       -4.067  10.436  -6.559  0.00  0.00    +0.090 OA
BRANCH  23  26
ATOM     26  C   LIG    1       -7.471  11.218  -6.752  0.00  0.00    -0.040 A 
ATOM     27  C   LIG    1       -8.490  11.172  -5.803  0.00  0.00    +0.110 A 
ATOM     28  C   LIG    1       -9.771  11.550  -6.151  0.00  0.00    -0.010 A 
ATOM     29  C   LIG    1      -10.046  11.964  -7.444  0.00  0.00    +0.120 A 
ATOM     30  C   LIG    1       -9.036  12.005  -8.392  0.00  0.00    +0.000 A 
ATOM     31  F   LIG    1      -11.303  12.328  -7.782  0.00  0.00    -0.130 F 
ATOM     32  C   LIG    1       -7.752  11.635  -8.052  0.00  0.00    +0.090 A 
ENDBRANCH  23  26
ENDBRANCH  20  21
ENDBRANCH  19  20
ENDBRANCH  18  19
ENDBRANCH   3  18
TORSDOF 10
