REMARK  Name = ZINCpk00000eaumP.0
REMARK                            x       y       z     vdW  Elec       q    Type
REMARK                         _______ _______ _______ _____ _____    ______ ____
ROOT
ATOM      1  N   LIG    1       -0.110  -4.195   0.134  0.00  0.00    -0.740 N 
ATOM      2  H   LIG    1        0.457  -4.568  -0.559  0.00  0.00    +0.400 HD
ATOM      3  C   LIG    1       -0.934  -4.997   0.835  0.00  0.00    +0.710 C 
ATOM      4  N   LIG    1       -0.972  -6.319   0.573  0.00  0.00    -0.730 N 
ATOM      5  H   LIG    1       -0.405  -6.692  -0.119  0.00  0.00    +0.400 HD
ATOM      6  O   LIG    1       -1.645  -4.529   1.703  0.00  0.00    -0.560 OA
ENDROOT
BRANCH   1  12
ATOM      7  C   LIG    1        1.171   2.098   0.002  0.00  0.00    +0.160 A 
ATOM      8  C   LIG    1        2.382   1.421  -0.012  0.00  0.00    -0.110 A 
ATOM      9  C   LIG    1        2.399   0.041  -0.019  0.00  0.00    +0.090 A 
ATOM     10  C   LIG    1        1.213  -0.675  -0.014  0.00  0.00    -0.200 A 
ATOM     11  C   LIG    1        1.276  -2.181  -0.029  0.00  0.00    +0.090 C 
ATOM     12  C   LIG    1       -0.069  -2.758   0.418  0.00  0.00    +0.240 C 
ATOM     13  C   LIG    1       -1.181  -2.045  -0.362  0.00  0.00    +0.240 C 
ATOM     14  O   LIG    1       -1.183  -0.667   0.015  0.00  0.00    -0.300 OA
ATOM     15  C   LIG    1        0.002  -0.004   0.002  0.00  0.00    +0.170 A 
ATOM     16  C   LIG    1       -0.017   1.386   0.010  0.00  0.00    -0.040 A 
BRANCH   7  18
ATOM     17  C   LIG    1        2.413   4.125   0.000  0.00  0.00    +0.250 C 
ATOM     18  O   LIG    1        1.150   3.457   0.009  0.00  0.00    -0.310 OA
ENDBRANCH   7  18
ENDBRANCH   1  12
BRANCH   4  19
ATOM     19  C   LIG    1       -1.868  -7.192   1.336  0.00  0.00    +0.370 C 
ATOM     20  C   LIG    1       -1.331  -8.629   1.317  0.00  0.00    +0.050 C 
ATOM     21  C   LIG    1       -2.406  -9.577   1.857  0.00  0.00    +0.060 C 
ATOM     22  C   LIG    1       -3.566  -9.658   0.858  0.00  0.00    +0.310 C 
ATOM     23  N   LIG    1       -3.975  -8.300   0.499  0.00  0.00    -0.380 N 
ATOM     24  N   LIG    1       -5.166  -7.885  -0.103  0.00  0.00    -0.310 NA
ATOM     25  C   LIG    1       -5.087  -6.583  -0.227  0.00  0.00    +0.410 A 
ATOM     26  N   LIG    1       -3.917  -6.169   0.264  0.00  0.00    -0.510 NA
ATOM     27  C   LIG    1       -3.238  -7.191   0.703  0.00  0.00    +0.260 A 
ENDBRANCH   4  19
TORSDOF 3
