REMARK  Name = ZINCvU00000004Lg.0
REMARK                            x       y       z     vdW  Elec       q    Type
REMARK                         _______ _______ _______ _____ _____    ______ ____
ROOT
ATOM      1  C   LIG    1        5.825   0.954  -3.114  0.00  0.00    +0.240 C 
ENDROOT
BRANCH   1   2
ATOM      2  C   LIG    1        7.325   1.065  -3.200  0.00  0.00    +0.400 C 
ATOM      3  O   LIG    1        7.982   1.201  -2.189  0.00  0.00    -0.430 OA
BRANCH   2   4
ATOM      4  C   LIG    1        7.992   1.008  -4.507  0.00  0.00    -0.190 A 
ATOM      5  C   LIG    1        7.237   0.846  -5.675  0.00  0.00    +0.090 A 
ATOM      6  C   LIG    1        7.863   0.799  -6.893  0.00  0.00    +0.020 A 
ATOM      7  C   LIG    1        9.249   0.902  -6.970  0.00  0.00    +0.180 A 
ATOM      8  C   LIG    1       10.005   1.058  -5.811  0.00  0.00    -0.020 A 
ATOM      9  C   LIG    1        9.387   1.111  -4.589  0.00  0.00    +0.110 A 
BRANCH   7  10
ATOM     10  N   LIG    1        9.882   0.848  -8.210  0.00  0.00    -0.680 N 
ATOM     11  H   LIG    1       10.674   1.383  -8.374  0.00  0.00    +0.420 HD
ATOM     12  C   LIG    1        9.394   0.052  -9.181  0.00  0.00    +0.510 C 
ATOM     13  O   LIG    1        8.358  -0.554  -9.006  0.00  0.00    -0.510 OA
BRANCH  12  14
ATOM     14  C   LIG    1       10.136  -0.086 -10.486  0.00  0.00    +0.060 C 
BRANCH  14  15
ATOM     15  C   LIG    1        9.373  -1.041 -11.408  0.00  0.00    +0.000 C 
ATOM     16  C   LIG    1        9.367  -2.443 -10.796  0.00  0.00    +0.020 C 
ATOM     17  C   LIG    1       10.057  -1.084 -12.775  0.00  0.00    +0.030 C 
ENDBRANCH  14  15
ENDBRANCH  12  14
ENDBRANCH   7  10
ENDBRANCH   2   4
ENDBRANCH   1   2
BRANCH   1  18
ATOM     18  O   LIG    1        5.412   1.037  -1.725  0.00  0.00    -0.340 OA
BRANCH  18  19
ATOM     19  C   LIG    1        4.096   0.955  -1.474  0.00  0.00    +0.460 C 
ATOM     20  O   LIG    1        3.315   0.817  -2.386  0.00  0.00    -0.490 OA
BRANCH  19  21
ATOM     21  C   LIG    1        3.593   1.033  -0.056  0.00  0.00    +0.200 C 
BRANCH  21  27
ATOM     22  C   LIG    1       -1.810  -3.250  -0.045  0.00  0.00    +0.110 C 
ATOM     23  C   LIG    1       -0.716  -2.214  -0.047  0.00  0.00    -0.060 A 
ATOM     24  C   LIG    1        0.612  -2.617  -0.056  0.00  0.00    -0.100 A 
ATOM     25  C   LIG    1        1.622  -1.680  -0.057  0.00  0.00    +0.050 A 
ATOM     26  C   LIG    1        1.303  -0.324  -0.050  0.00  0.00    -0.110 A 
ATOM     27  C   LIG    1        2.090   0.915  -0.049  0.00  0.00    -0.180 A 
ATOM     28  C   LIG    1        1.204   1.921  -0.040  0.00  0.00    +0.240 A 
ATOM     29  O   LIG    1       -0.049   1.434  -0.036  0.00  0.00    -0.190 OA
ATOM     30  C   LIG    1       -0.041   0.086  -0.041  0.00  0.00    +0.050 A 
ATOM     31  C   LIG    1        0.950  -4.085  -0.063  0.00  0.00    +0.090 C 
ATOM     32  C   LIG    1       -1.044  -0.875  -0.040  0.00  0.00    +0.030 A 
ENDBRANCH  21  27
ENDBRANCH  19  21
ENDBRANCH  18  19
ENDBRANCH   1  18
TORSDOF 9
