REMARK  Name = ZINCpe00001ferkv.0
REMARK                            x       y       z     vdW  Elec       q    Type
REMARK                         _______ _______ _______ _____ _____    ______ ____
ROOT
ATOM      1  N   LIG    1       -0.705   4.337   5.504  0.00  0.00    -0.300 N 
ATOM      2  C   LIG    1        0.082   5.438   5.510  0.00  0.00    +0.140 A 
ATOM      3  C   LIG    1        0.762   5.409   6.679  0.00  0.00    -0.010 A 
ATOM      4  N   LIG    1        0.369   4.303   7.320  0.00  0.00    -0.250 NA
ATOM      5  N   LIG    1       -0.500   3.690   6.597  0.00  0.00    -0.060 NA
ENDROOT
BRANCH   1   6
ATOM      6  C   LIG    1       -1.627   3.946   4.434  0.00  0.00    +0.360 C 
BRANCH   6  10
ATOM      7  C   LIG    1       -2.145  -0.306   2.082  0.00  0.00    +0.060 C 
ATOM      8  C   LIG    1       -2.612   0.663   3.170  0.00  0.00    -0.130 C 
ATOM      9  C   LIG    1       -2.220   2.112   2.805  0.00  0.00    +0.060 C 
ATOM     10  C   LIG    1       -1.296   2.526   3.970  0.00  0.00    +0.170 C 
ATOM     11  O   LIG    1       -1.573   1.567   5.034  0.00  0.00    -0.330 OA
ATOM     12  C   LIG    1       -4.125   0.551   3.368  0.00  0.00    +0.090 C 
ATOM     13  C   LIG    1       -1.887   0.386   4.471  0.00  0.00    +0.490 C 
ATOM     14  O   LIG    1       -1.635  -0.705   4.923  0.00  0.00    -0.430 OA
ENDBRANCH   6  10
ENDBRANCH   1   6
BRANCH   3  15
ATOM     15  C   LIG    1        1.769   6.422   7.162  0.00  0.00    +0.290 C 
BRANCH  15  16
ATOM     16  N   LIG    1        1.101   7.400   8.031  0.00  0.00    -0.510 NA
BRANCH  16  17
ATOM     17  C   LIG    1        0.133   8.204   7.272  0.00  0.00    +0.150 C 
ATOM     18  C   LIG    1        0.694   9.621   7.034  0.00  0.00    -0.030 C 
ATOM     19  C   LIG    1       -0.542  10.545   7.160  0.00  0.00    +0.000 C 
ATOM     20  C   LIG    1       -1.343   9.890   8.312  0.00  0.00    +0.010 C 
ATOM     21  C   LIG    1       -1.162   8.375   8.085  0.00  0.00    +0.040 C 
ENDBRANCH  16  17
BRANCH  16  22
ATOM     22  C   LIG    1        2.082   8.258   8.709  0.00  0.00    +0.200 C 
BRANCH  22  23
ATOM     23  C   LIG    1        1.403   9.017   9.820  0.00  0.00    +0.510 C 
ATOM     24  O   LIG    1        0.259   8.752  10.124  0.00  0.00    -0.500 OA
ATOM     25  N   LIG    1        2.067   9.989  10.476  0.00  0.00    -0.860 N 
ATOM     26  H   LIG    1        1.629  10.477  11.191  0.00  0.00    +0.400 HD
ATOM     27  H   LIG    1        2.981  10.201  10.232  0.00  0.00    +0.400 HD
ENDBRANCH  22  23
ENDBRANCH  16  22
ENDBRANCH  15  16
ENDBRANCH   3  15
TORSDOF 7
