REMARK  Name = ZINCnE000001Kq1f.1
REMARK                            x       y       z     vdW  Elec       q    Type
REMARK                         _______ _______ _______ _____ _____    ______ ____
ROOT
ATOM      1  N   LIG    1       -0.429  -0.716  -0.918  0.00  0.00    -0.720 N 
ATOM      2  H   LIG    1        0.074  -0.398  -1.684  0.00  0.00    +0.400 HD
ATOM      3  C   LIG    1       -0.970  -1.950  -0.932  0.00  0.00    +0.580 C 
ATOM      4  O   LIG    1       -1.600  -2.349   0.028  0.00  0.00    -0.530 OA
ENDROOT
BRANCH   3   5
ATOM      5  C   LIG    1       -0.798  -2.817  -2.114  0.00  0.00    -0.150 A 
ATOM      6  C   LIG    1        0.302  -3.677  -2.200  0.00  0.00    -0.010 A 
ATOM      7  C   LIG    1        0.455  -4.491  -3.307  0.00  0.00    +0.020 A 
ATOM      8  C   LIG    1       -0.470  -4.451  -4.334  0.00  0.00    -0.100 A 
ATOM      9  C   LIG    1       -1.561  -3.598  -4.261  0.00  0.00    +0.240 A 
ATOM     10  O   LIG    1       -2.466  -3.564  -5.276  0.00  0.00    -0.700 OA
ATOM     11  F   LIG    1        1.211  -3.716  -1.201  0.00  0.00    -0.160 F 
ATOM     12  C   LIG    1       -1.731  -2.779  -3.155  0.00  0.00    -0.000 A 
ATOM     13  F   LIG    1       -2.794  -1.949  -3.083  0.00  0.00    -0.140 F 
ENDBRANCH   3   5
BRANCH   1  14
ATOM     14  C   LIG    1       -0.600   0.145   0.255  0.00  0.00    +0.270 C 
BRANCH  14  15
ATOM     15  C   LIG    1        0.168   1.452   0.045  0.00  0.00    +0.200 C 
BRANCH  15  16
ATOM     16  C   LIG    1       -0.042   2.355   1.233  0.00  0.00    -0.080 A 
ATOM     17  C   LIG    1       -1.201   3.100   1.338  0.00  0.00    +0.060 A 
ATOM     18  C   LIG    1       -1.397   3.924   2.431  0.00  0.00    +0.020 A 
ATOM     19  C   LIG    1       -0.429   4.012   3.413  0.00  0.00    +0.020 A 
ATOM     20  C   LIG    1        0.734   3.271   3.305  0.00  0.00    -0.040 A 
ATOM     21 CL   LIG    1        1.951   3.381   4.539  0.00  0.00    -0.070 Cl
ATOM     22  C   LIG    1        0.927   2.442   2.215  0.00  0.00    +0.030 A 
ENDBRANCH  15  16
BRANCH  15  24
ATOM     23  C   LIG    1        0.672   2.219  -2.169  0.00  0.00    +0.210 C 
ATOM     24  O   LIG    1       -0.308   2.100  -1.136  0.00  0.00    -0.370 OA
ENDBRANCH  15  24
ENDBRANCH  14  15
ENDBRANCH   1  14
TORSDOF 5
