REMARK  Name = ZINCrD0000075MOu.0
REMARK                            x       y       z     vdW  Elec       q    Type
REMARK                         _______ _______ _______ _____ _____    ______ ____
ROOT
ATOM      1  C   LIG    1        0.823   7.424   0.246  0.00  0.00    -0.010 C 
ATOM      2  C   LIG    1        0.116   7.996  -0.986  0.00  0.00    +0.060 C 
ATOM      3  C   LIG    1        0.081   9.522  -0.886  0.00  0.00    +0.200 C 
ATOM      4  N   LIG    1        1.453  10.040  -0.802  0.00  0.00    -0.470 N 
ATOM      5  C   LIG    1        2.136   9.543   0.399  0.00  0.00    +0.230 C 
ATOM      6  C   LIG    1        2.232   8.017   0.337  0.00  0.00    +0.060 C 
ENDROOT
BRANCH   4   7
ATOM      7  C   LIG    1        1.464  11.425  -0.842  0.00  0.00    +0.360 A 
ATOM      8  C   LIG    1        0.867  12.108  -1.901  0.00  0.00    -0.090 A 
ATOM      9  C   LIG    1        0.906  13.500  -1.893  0.00  0.00    +0.240 A 
ATOM     10  N   LIG    1        1.507  14.124  -0.880  0.00  0.00    -0.540 NA
ATOM     11  C   LIG    1        2.059  13.441   0.102  0.00  0.00    +0.530 A 
ATOM     12  N   LIG    1        2.039  12.124   0.133  0.00  0.00    -0.560 NA
BRANCH   9  13
ATOM     13  C   LIG    1        0.287  14.277  -2.995  0.00  0.00    -0.060 A 
ATOM     14  C   LIG    1       -0.335  13.616  -4.053  0.00  0.00    +0.040 A 
ATOM     15  C   LIG    1       -0.915  14.344  -5.072  0.00  0.00    +0.000 A 
ATOM     16  C   LIG    1       -0.869  15.726  -5.051  0.00  0.00    +0.030 A 
ATOM     17  C   LIG    1       -0.248  16.387  -4.006  0.00  0.00    +0.000 A 
ATOM     18  C   LIG    1        0.330  15.669  -2.979  0.00  0.00    +0.070 A 
ENDBRANCH   9  13
ENDBRANCH   4   7
BRANCH   1  20
ATOM     19  O   LIG    1        1.998   5.382   0.112  0.00  0.00    -0.460 OA
ATOM     20  C   LIG    1        0.914   5.925   0.124  0.00  0.00    +0.510 C 
ATOM     21  N   LIG    1       -0.210   5.187   0.030  0.00  0.00    -0.660 N 
ATOM     22  H   LIG    1       -1.074   5.625  -0.034  0.00  0.00    +0.420 HD
BRANCH  21  23
ATOM     23  C   LIG    1       -0.132   3.795   0.025  0.00  0.00    +0.360 A 
ATOM     24  C   LIG    1       -1.299   3.040   0.034  0.00  0.00    -0.070 A 
ATOM     25  C   LIG    1       -1.207   1.659   0.029  0.00  0.00    +0.090 A 
ATOM     26  C   LIG    1        0.054   1.079   0.015  0.00  0.00    -0.060 A 
ATOM     27  C   LIG    1        1.171   1.891   0.011  0.00  0.00    +0.290 A 
ATOM     28  N   LIG    1        1.053   3.205   0.011  0.00  0.00    -0.480 NA
ENDBRANCH  21  23
ENDBRANCH   1  20
TORSDOF 4
