REMARK  Name = ZINCrg00000fSej1.0
REMARK                            x       y       z     vdW  Elec       q    Type
REMARK                         _______ _______ _______ _____ _____    ______ ____
ROOT
ATOM      1  C   LIG    1       -5.551   7.463   4.291  0.00  0.00    +0.100 C 
ATOM      2  C   LIG    1       -4.943   8.418   3.262  0.00  0.00    +0.170 C 
ATOM      3  N   LIG    1       -5.699   8.374   1.999  0.00  0.00    -0.720 N 
ATOM      4  H   LIG    1       -6.633   8.605   1.874  0.00  0.00    +0.440 HD
ATOM      5  C   LIG    1       -4.841   7.955   1.051  0.00  0.00    +0.710 C 
ATOM      6  N   LIG    1       -3.619   7.713   1.540  0.00  0.00    -0.560 N 
ATOM      7  O   LIG    1       -5.142   7.811  -0.117  0.00  0.00    -0.530 OA
ATOM      8  C   LIG    1       -3.555   7.959   2.863  0.00  0.00    +0.540 C 
ATOM      9  O   LIG    1       -2.588   7.838   3.585  0.00  0.00    -0.460 OA
ENDROOT
BRANCH   2  10
ATOM     10  C   LIG    1       -4.901   9.823   3.806  0.00  0.00    -0.100 A 
ATOM     11  C   LIG    1       -3.768  10.279   4.455  0.00  0.00    +0.070 A 
ATOM     12  C   LIG    1       -3.722  11.567   4.958  0.00  0.00    +0.020 A 
ATOM     13  C   LIG    1       -4.806  12.407   4.812  0.00  0.00    +0.050 A 
ATOM     14  C   LIG    1       -5.953  11.954   4.157  0.00  0.00    -0.140 A 
ATOM     15  C   LIG    1       -5.991  10.655   3.649  0.00  0.00    +0.100 A 
BRANCH  14  16
ATOM     16  C   LIG    1       -7.119  12.849   3.998  0.00  0.00    +0.560 C 
ATOM     17  O   LIG    1       -8.116  12.451   3.427  0.00  0.00    -0.540 OA
ATOM     18  N   LIG    1       -7.077  14.104   4.485  0.00  0.00    -0.850 N 
ATOM     19  H   LIG    1       -7.842  14.691   4.381  0.00  0.00    +0.410 HD
ATOM     20  H   LIG    1       -6.281  14.421   4.941  0.00  0.00    +0.400 HD
ENDBRANCH  14  16
ENDBRANCH   2  10
BRANCH   6  21
ATOM     21  C   LIG    1       -2.489   7.245   0.734  0.00  0.00    +0.360 C 
BRANCH  21  22
ATOM     22  C   LIG    1       -2.468   5.738   0.726  0.00  0.00    +0.500 C 
ATOM     23  N   LIG    1       -1.510   5.081   0.044  0.00  0.00    -0.720 N 
ATOM     24  H   LIG    1       -0.833   5.578  -0.442  0.00  0.00    +0.400 HD
ATOM     25  O   LIG    1       -3.314   5.117   1.333  0.00  0.00    -0.520 OA
BRANCH  23  26
ATOM     26  C   LIG    1       -1.490   3.616   0.036  0.00  0.00    +0.240 C 
ATOM     27  C   LIG    1       -0.773   3.123  -1.223  0.00  0.00    +0.010 C 
ATOM     28  C   LIG    1       -0.753   1.593  -1.232  0.00  0.00    +0.020 C 
ATOM     29  C   LIG    1       -0.013   1.086   0.008  0.00  0.00    +0.000 C 
ATOM     30  C   LIG    1       -0.729   1.579   1.267  0.00  0.00    +0.010 C 
ATOM     31  C   LIG    1       -0.750   3.109   1.275  0.00  0.00    +0.000 C 
ENDBRANCH  23  26
ENDBRANCH  21  22
ENDBRANCH   6  21
TORSDOF 5
