REMARK  Name = ZINCrH000004j3j0.0
REMARK                            x       y       z     vdW  Elec       q    Type
REMARK                         _______ _______ _______ _____ _____    ______ ____
ROOT
ATOM      1  C   LIG    1        0.901   6.000   0.026  0.00  0.00    -0.020 A 
ATOM      2  C   LIG    1       -0.253   5.247   0.033  0.00  0.00    +0.030 A 
ATOM      3  C   LIG    1       -0.177   3.860   0.025  0.00  0.00    +0.160 A 
ATOM      4  C   LIG    1        1.083   3.237   0.009  0.00  0.00    -0.140 A 
ATOM      5  C   LIG    1        1.152   1.772   0.001  0.00  0.00    +0.040 A 
ATOM      6  C   LIG    1       -0.013   1.076   0.008  0.00  0.00    -0.080 A 
ATOM      7  C   LIG    1       -1.243   1.767   0.018  0.00  0.00    +0.510 A 
ATOM      8  O   LIG    1       -2.281   1.131   0.018  0.00  0.00    -0.460 OA
ATOM      9  C   LIG    1        2.246   4.013   0.002  0.00  0.00    +0.120 A 
ATOM     10  O   LIG    1       -1.298   3.108   0.031  0.00  0.00    -0.270 OA
ATOM     11  C   LIG    1        2.147   5.387   0.011  0.00  0.00    -0.060 A 
ATOM     12 CL   LIG    1        3.587   6.356   0.002  0.00  0.00    -0.050 Cl
ENDROOT
BRANCH   1  14
ATOM     13  C   LIG    1        1.044   8.021   1.457  0.00  0.00    +0.040 C 
ATOM     14  C   LIG    1        0.811   7.505   0.035  0.00  0.00    +0.080 C 
ENDBRANCH   1  14
BRANCH   5  15
ATOM     15  C   LIG    1        2.480   1.060  -0.017  0.00  0.00    +0.250 C 
BRANCH  15  16
ATOM     16  N   LIG    1        2.955   0.943  -1.402  0.00  0.00    -0.530 NA
ATOM     17  C   LIG    1        2.079   0.061  -2.186  0.00  0.00    +0.190 C 
ATOM     18  C   LIG    1        2.561   0.029  -3.638  0.00  0.00    +0.210 C 
ATOM     19  N   LIG    1        3.952  -0.443  -3.680  0.00  0.00    -0.480 N 
ATOM     20  C   LIG    1        4.828   0.438  -2.895  0.00  0.00    +0.220 C 
ATOM     21  C   LIG    1        4.346   0.471  -1.443  0.00  0.00    +0.190 C 
BRANCH  19  22
ATOM     22  C   LIG    1        4.402  -0.554  -4.990  0.00  0.00    +0.310 A 
ATOM     23  C   LIG    1        3.703  -1.348  -5.894  0.00  0.00    -0.050 A 
ATOM     24  C   LIG    1        4.161  -1.449  -7.195  0.00  0.00    +0.090 A 
ATOM     25  C   LIG    1        5.307  -0.750  -7.551  0.00  0.00    -0.060 A 
ATOM     26  C   LIG    1        5.951   0.020  -6.602  0.00  0.00    +0.290 A 
ATOM     27  N   LIG    1        5.488   0.102  -5.369  0.00  0.00    -0.520 NA
ENDBRANCH  19  22
ENDBRANCH  15  16
ENDBRANCH   5  15
TORSDOF 4
