REMARK  Name = ZINCAx0000000hYN.0
REMARK                            x       y       z     vdW  Elec       q    Type
REMARK                         _______ _______ _______ _____ _____    ______ ____
ROOT
ATOM      1  C   LIG    1        1.912  -2.331   2.804  0.00  0.00    +0.240 C 
ATOM      2  C   LIG    1        2.640  -3.441   3.509  0.00  0.00    +0.530 C 
ATOM      3  N   LIG    1        3.967  -3.591   3.443  0.00  0.00    -0.720 N 
ATOM      4  H   LIG    1        4.377  -4.315   3.942  0.00  0.00    +0.400 HD
ATOM      5  C   LIG    1        4.827  -2.714   2.654  0.00  0.00    +0.270 C 
ATOM      6  C   LIG    1        4.090  -1.414   2.326  0.00  0.00    +0.190 C 
ATOM      7  O   LIG    1        1.997  -4.233   4.164  0.00  0.00    -0.540 OA
ATOM      8  N   LIG    1        2.771  -1.748   1.765  0.00  0.00    -0.500 NA
ENDROOT
BRANCH   1  15
ATOM      9  C   LIG    1        1.779  -4.082   0.166  0.00  0.00    +0.160 C 
ATOM     10  C   LIG    1        0.601  -3.655   1.004  0.00  0.00    +0.110 A 
ATOM     11  N   LIG    1       -0.653  -3.943   0.768  0.00  0.00    -0.290 NA
ATOM     12  N   LIG    1       -1.434  -3.362   1.775  0.00  0.00    -0.320 N 
ATOM     13  C   LIG    1       -0.602  -2.719   2.626  0.00  0.00    +0.110 A 
ATOM     14  C   LIG    1       -1.009  -1.956   3.861  0.00  0.00    +0.150 C 
ATOM     15  C   LIG    1        0.661  -2.881   2.168  0.00  0.00    -0.220 A 
BRANCH  12  16
ATOM     16  C   LIG    1       -2.829  -3.437   1.885  0.00  0.00    +0.150 A 
ATOM     17  C   LIG    1       -3.482  -4.639   1.648  0.00  0.00    +0.020 A 
ATOM     18  C   LIG    1       -4.856  -4.712   1.762  0.00  0.00    +0.030 A 
ATOM     19  C   LIG    1       -5.583  -3.585   2.101  0.00  0.00    +0.010 A 
ATOM     20  C   LIG    1       -4.937  -2.385   2.332  0.00  0.00    +0.030 A 
ATOM     21  C   LIG    1       -3.562  -2.308   2.224  0.00  0.00    +0.000 A 
ENDBRANCH  12  16
ENDBRANCH   1  15
BRANCH   8  22
ATOM     22  C   LIG    1        2.140  -0.565   1.164  0.00  0.00    +0.270 C 
BRANCH  22  23
ATOM     23  C   LIG    1        1.969   0.502   2.214  0.00  0.00    +0.490 C 
ATOM     24  N   LIG    1        1.290   1.630   1.925  0.00  0.00    -0.550 N 
ATOM     25  C   LIG    1        1.002   2.577   2.919  0.00  0.00    +0.110 A 
ATOM     26  C   LIG    1        0.833   2.199   4.239  0.00  0.00    +0.050 A 
ATOM     27  C   LIG    1        0.534   3.155   5.194  0.00  0.00    +0.010 A 
ATOM     28  C   LIG    1        0.415   4.484   4.833  0.00  0.00    +0.030 A 
ATOM     29  C   LIG    1        0.585   4.870   3.516  0.00  0.00    +0.000 A 
ATOM     30  C   LIG    1        0.882   3.919   2.552  0.00  0.00    +0.130 A 
ATOM     31  N   LIG    1        1.067   4.289   1.216  0.00  0.00    -0.660 N 
ATOM     32  H   LIG    1        1.193   5.223   0.989  0.00  0.00    +0.420 HD
ATOM     33  C   LIG    1        1.073   3.361   0.240  0.00  0.00    +0.520 C 
ATOM     34  O   LIG    1        1.278   3.698  -0.907  0.00  0.00    -0.500 OA
ATOM     35  C   LIG    1        0.828   1.907   0.556  0.00  0.00    +0.150 C 
ATOM     36  C   LIG    1        1.597   1.031  -0.434  0.00  0.00    +0.100 C 
ATOM     37  C   LIG    1       -0.669   1.606   0.451  0.00  0.00    +0.080 C 
ATOM     38  O   LIG    1        2.441   0.345   3.320  0.00  0.00    -0.510 OA
ENDBRANCH  22  23
ENDBRANCH   8  22
TORSDOF 4
