REMARK  Name = ZINCpk00000ea8G2.0
REMARK                            x       y       z     vdW  Elec       q    Type
REMARK                         _______ _______ _______ _____ _____    ______ ____
ROOT
ATOM      1  C   LIG    1        2.431  -0.584   6.236  0.00  0.00    -0.130 A 
ATOM      2  C   LIG    1        3.045  -1.008   5.050  0.00  0.00    +0.110 A 
ATOM      3  C   LIG    1        2.528  -0.655   3.841  0.00  0.00    +0.050 A 
ATOM      4  C   LIG    1        1.373   0.139   3.770  0.00  0.00    +0.190 A 
ATOM      5  N   LIG    1        0.867   0.478   2.567  0.00  0.00    -0.560 NA
ATOM      6  C   LIG    1       -0.210   1.225   2.460  0.00  0.00    +0.520 A 
ATOM      7  C   LIG    1       -0.897   1.698   3.667  0.00  0.00    +0.140 A 
ATOM      8  N   LIG    1       -1.972   2.436   3.860  0.00  0.00    -0.440 NA
ATOM      9  C   LIG    1       -2.176   2.578   5.170  0.00  0.00    +0.200 A 
ATOM     10  C   LIG    1       -1.202   1.909   5.832  0.00  0.00    +0.160 A 
ATOM     11  N   LIG    1       -0.392   1.352   4.894  0.00  0.00    -0.350 N 
ATOM     12  C   LIG    1        0.750   0.568   4.958  0.00  0.00    +0.030 A 
ATOM     13  C   LIG    1        1.281   0.205   6.184  0.00  0.00    +0.120 A 
ENDROOT
BRANCH   1  14
ATOM     14  C   LIG    1        2.999  -0.972   7.540  0.00  0.00    +0.510 C 
ATOM     15  O   LIG    1        2.467  -0.605   8.568  0.00  0.00    -0.500 OA
BRANCH  14  17
ATOM     16  C   LIG    1        4.614  -2.078   8.908  0.00  0.00    +0.290 C 
ATOM     17  O   LIG    1        4.110  -1.734   7.590  0.00  0.00    -0.350 OA
ENDBRANCH  14  17
ENDBRANCH   1  14
BRANCH   6  18
ATOM     18  N   LIG    1       -0.698   1.558   1.213  0.00  0.00    -0.680 N 
ATOM     19  H   LIG    1       -1.495   2.106   1.135  0.00  0.00    +0.430 HD
BRANCH  18  20
ATOM     20  C   LIG    1       -0.013   1.086   0.008  0.00  0.00    +0.430 C 
BRANCH  20  21
ATOM     21  C   LIG    1       -0.742   1.585  -1.213  0.00  0.00    +0.250 A 
ATOM     22  N   LIG    1       -0.513   2.712  -1.837  0.00  0.00    -0.520 NA
ATOM     23  C   LIG    1       -1.342   2.831  -2.873  0.00  0.00    +0.420 A 
ATOM     24  N   LIG    1       -2.113   1.776  -2.924  0.00  0.00    -0.310 NA
ATOM     25  N   LIG    1       -1.736   0.947  -1.855  0.00  0.00    -0.370 N 
ATOM     26  C   LIG    1       -2.314  -0.353  -1.506  0.00  0.00    +0.370 C 
ENDBRANCH  20  21
ENDBRANCH  18  20
ENDBRANCH   6  18
TORSDOF 5
