REMARK  Name = ZINCrD000000DbKT.2
REMARK                            x       y       z     vdW  Elec       q    Type
REMARK                         _______ _______ _______ _____ _____    ______ ____
ROOT
ATOM      1  N   LIG    1        3.385   3.443  -2.125  0.00  0.00    -0.500 NA
ATOM      2  C   LIG    1        4.305   3.958  -3.172  0.00  0.00    +0.170 C 
ATOM      3  C   LIG    1        5.670   4.085  -2.463  0.00  0.00    +0.030 C 
ATOM      4  C   LIG    1        5.602   3.094  -1.283  0.00  0.00    +0.030 C 
ATOM      5  C   LIG    1        4.202   2.452  -1.378  0.00  0.00    +0.130 C 
ENDROOT
BRANCH   1   6
ATOM      6  C   LIG    1        2.206   2.808  -2.727  0.00  0.00    +0.150 C 
BRANCH   6   7
ATOM      7  C   LIG    1        1.309   3.881  -3.349  0.00  0.00    +0.310 C 
BRANCH   7  18
ATOM      8  O   LIG    1       -1.146   3.443  -2.260  0.00  0.00    -0.500 OA
ATOM      9  C   LIG    1       -0.989   3.072  -3.408  0.00  0.00    +0.550 A 
ATOM     10  C   LIG    1       -2.076   2.423  -4.157  0.00  0.00    -0.200 A 
ATOM     11  C   LIG    1       -3.331   2.203  -3.592  0.00  0.00    +0.100 A 
ATOM     12  C   LIG    1       -4.314   1.591  -4.339  0.00  0.00    -0.010 A 
ATOM     13  C   LIG    1       -4.063   1.192  -5.645  0.00  0.00    +0.070 A 
ATOM     14  C   LIG    1       -2.830   1.400  -6.222  0.00  0.00    +0.030 A 
ATOM     15  C   LIG    1       -1.818   2.019  -5.485  0.00  0.00    +0.150 A 
ATOM     16  N   LIG    1       -0.589   2.244  -6.014  0.00  0.00    -0.520 NA
ATOM     17  C   LIG    1        0.350   2.824  -5.330  0.00  0.00    +0.570 A 
ATOM     18  N   LIG    1        0.192   3.239  -4.047  0.00  0.00    -0.550 N 
ENDBRANCH   7  18
ENDBRANCH   6   7
ENDBRANCH   1   6
BRANCH   5  19
ATOM     19  C   LIG    1        3.621   2.227   0.019  0.00  0.00    +0.100 C 
BRANCH  19  20
ATOM     20  C   LIG    1        4.439   1.188   0.742  0.00  0.00    -0.080 A 
ATOM     21  C   LIG    1        4.085  -0.145   0.665  0.00  0.00    +0.020 A 
ATOM     22  C   LIG    1        4.836  -1.101   1.329  0.00  0.00    +0.090 A 
ATOM     23  C   LIG    1        5.941  -0.720   2.070  0.00  0.00    +0.020 A 
ATOM     24  C   LIG    1        6.295   0.614   2.147  0.00  0.00    +0.030 A 
ATOM     25  F   LIG    1        4.493  -2.405   1.250  0.00  0.00    -0.130 F 
ATOM     26  C   LIG    1        5.545   1.569   1.483  0.00  0.00    +0.090 A 
ATOM     27  F   LIG    1        5.891   2.873   1.558  0.00  0.00    -0.130 F 
ENDBRANCH  19  20
ENDBRANCH   5  19
TORSDOF 5
