REMARK  Name = ZINCrD0000075QvY.0
REMARK                            x       y       z     vdW  Elec       q    Type
REMARK                         _______ _______ _______ _____ _____    ______ ____
ROOT
ATOM      1  O   LIG    1        0.792   0.530  -2.430  0.00  0.00    -0.490 OA
ATOM      2  C   LIG    1       -0.209   1.218  -2.369  0.00  0.00    +0.540 C 
ENDROOT
BRANCH   2   3
ATOM      3  C   LIG    1       -0.865   1.667  -3.599  0.00  0.00    -0.050 A 
ATOM      4  C   LIG    1       -0.458   1.393  -4.889  0.00  0.00    +0.170 A 
ATOM      5  C   LIG    1       -1.371   2.014  -5.746  0.00  0.00    -0.760 A 
ATOM      6  C   LIG    1       -2.293   2.648  -4.982  0.00  0.00    +0.360 A 
ATOM      7  N   LIG    1       -1.998   2.446  -3.680  0.00  0.00    -0.510 N 
ATOM      8  H   LIG    1       -2.501   2.792  -2.926  0.00  0.00    +0.430 HD
BRANCH   5   9
ATOM      9  S   LIG    1       -1.329   1.982  -7.507  0.00  0.00    +2.740 S 
ATOM     10  O   LIG    1       -2.657   2.233  -7.945  0.00  0.00    -0.950 OA
ATOM     11  O   LIG    1       -0.598   0.818  -7.870  0.00  0.00    -0.950 OA
BRANCH   9  12
ATOM     12  N   LIG    1       -0.420   3.276  -7.999  0.00  0.00    -1.010 NA
ATOM     13  C   LIG    1       -0.936   4.621  -8.296  0.00  0.00    +0.260 C 
ATOM     14  C   LIG    1        0.265   5.484  -8.737  0.00  0.00    +0.030 C 
ATOM     15  C   LIG    1        1.294   4.427  -9.215  0.00  0.00    +0.030 C 
ATOM     16  C   LIG    1        1.037   3.270  -8.218  0.00  0.00    +0.270 C 
ENDBRANCH   9  12
ENDBRANCH   5   9
ENDBRANCH   2   3
BRANCH   2  17
ATOM     17  O   LIG    1       -0.715   1.567  -1.168  0.00  0.00    -0.360 OA
BRANCH  17  18
ATOM     18  C   LIG    1       -0.013   1.086   0.008  0.00  0.00    +0.300 C 
BRANCH  18  19
ATOM     19  C   LIG    1       -0.718   1.572   1.248  0.00  0.00    -0.090 A 
ATOM     20  C   LIG    1       -1.833   2.345   1.142  0.00  0.00    +0.040 A 
ATOM     21  C   LIG    1       -2.502   2.799   2.277  0.00  0.00    +0.010 A 
ATOM     22  C   LIG    1       -2.054   2.492   3.525  0.00  0.00    +0.030 A 
ATOM     23  C   LIG    1       -0.902   1.701   3.674  0.00  0.00    -0.050 A 
ATOM     24  C   LIG    1       -0.409   1.363   4.946  0.00  0.00    +0.030 A 
ATOM     25  C   LIG    1        0.710   0.594   5.052  0.00  0.00    +0.010 A 
ATOM     26  C   LIG    1        1.376   0.136   3.917  0.00  0.00    +0.020 A 
ATOM     27  C   LIG    1        0.927   0.443   2.669  0.00  0.00    +0.010 A 
ATOM     28  C   LIG    1       -0.224   1.234   2.520  0.00  0.00    -0.040 A 
ENDBRANCH  18  19
ENDBRANCH  17  18
ENDBRANCH   2  17
TORSDOF 6
