REMARK  Name = ZINCqH0000008GS5.0
REMARK                            x       y       z     vdW  Elec       q    Type
REMARK                         _______ _______ _______ _____ _____    ______ ____
ROOT
ATOM      1  C   LIG    1       -1.284   3.430   5.137  0.00  0.00    +0.160 A 
ATOM      2  C   LIG    1       -2.085   2.521   5.815  0.00  0.00    +0.040 A 
ATOM      3  C   LIG    1       -2.447   1.334   5.208  0.00  0.00    +0.030 A 
ATOM      4  C   LIG    1       -2.012   1.051   3.927  0.00  0.00    +0.020 A 
ATOM      5  C   LIG    1       -1.214   1.954   3.248  0.00  0.00    -0.080 A 
ATOM      6  C   LIG    1       -0.844   3.140   3.852  0.00  0.00    +0.000 A 
ENDROOT
BRANCH   1  15
ATOM      7  C   LIG    1        1.448   8.841   7.025  0.00  0.00    +0.060 C 
ATOM      8  C   LIG    1        0.492   7.808   7.625  0.00  0.00    +0.140 C 
ATOM      9  C   LIG    1       -0.427   7.262   6.525  0.00  0.00    +0.240 C 
ATOM     10  N   LIG    1       -1.453   6.417   7.156  0.00  0.00    -0.630 N 
ATOM     11  C   LIG    1       -2.206   6.974   8.291  0.00  0.00    +0.290 C 
ATOM     12  C   LIG    1       -1.197   7.532   9.307  0.00  0.00    +0.190 C 
ATOM     13  C   LIG    1       -0.401   6.382   9.927  0.00  0.00    +0.020 C 
ATOM     14  C   LIG    1       -1.700   5.172   6.703  0.00  0.00    +0.710 C 
ATOM     15  N   LIG    1       -0.915   4.633   5.749  0.00  0.00    -0.680 N 
ATOM     16  H   LIG    1       -0.096   5.080   5.486  0.00  0.00    +0.410 HD
ATOM     17  O   LIG    1       -2.632   4.534   7.155  0.00  0.00    -0.560 OA
ATOM     18  O   LIG    1       -0.304   8.426   8.639  0.00  0.00    -0.370 OA
ENDBRANCH   1  15
BRANCH   5  19
ATOM     19  C   LIG    1       -0.742   1.641   1.852  0.00  0.00    +0.250 C 
BRANCH  19  20
ATOM     20  O   LIG    1       -1.692   2.135   0.906  0.00  0.00    -0.370 OA
BRANCH  20  21
ATOM     21  C   LIG    1       -1.338   1.889  -0.456  0.00  0.00    +0.210 C 
BRANCH  21  22
ATOM     22  C   LIG    1       -2.421   2.458  -1.375  0.00  0.00    +0.260 C 
ATOM     23  F   LIG    1       -3.644   1.841  -1.092  0.00  0.00    -0.170 F 
ATOM     24  F   LIG    1       -2.075   2.217  -2.709  0.00  0.00    -0.170 F 
BRANCH  22  25
ATOM     25  C   LIG    1       -2.545   3.965  -1.145  0.00  0.00    +0.390 C 
ATOM     26  F   LIG    1       -3.535   4.486  -1.986  0.00  0.00    -0.180 F 
ATOM     27  F   LIG    1       -1.322   4.582  -1.428  0.00  0.00    -0.180 F 
ENDBRANCH  22  25
ENDBRANCH  21  22
ENDBRANCH  20  21
ENDBRANCH  19  20
ENDBRANCH   5  19
TORSDOF 6
