REMARK  Name = ZINCqH00000509hy.0
REMARK                            x       y       z     vdW  Elec       q    Type
REMARK                         _______ _______ _______ _____ _____    ______ ____
ROOT
ATOM      1  O   LIG    1       -2.094   1.079   1.303  0.00  0.00    -0.330 OA
ENDROOT
BRANCH   1   2
ATOM      2  C   LIG    1       -2.302  -0.102   1.907  0.00  0.00    +0.470 C 
ATOM      3  O   LIG    1       -1.376  -0.697   2.405  0.00  0.00    -0.480 OA
BRANCH   2   4
ATOM      4  C   LIG    1       -3.690  -0.685   1.963  0.00  0.00    +0.270 C 
BRANCH   4   5
ATOM      5  O   LIG    1       -3.654  -1.937   2.651  0.00  0.00    -0.310 OA
BRANCH   5  10
ATOM      6  C   LIG    1       -8.537  -4.683   3.228  0.00  0.00    +0.090 C 
ATOM      7  C   LIG    1       -7.231  -3.948   3.074  0.00  0.00    -0.070 A 
ATOM      8  C   LIG    1       -6.437  -4.177   1.965  0.00  0.00    +0.010 A 
ATOM      9  C   LIG    1       -5.239  -3.505   1.821  0.00  0.00    -0.090 A 
ATOM     10  C   LIG    1       -4.832  -2.600   2.791  0.00  0.00    +0.080 A 
ATOM     11  C   LIG    1       -5.627  -2.376   3.905  0.00  0.00    -0.080 A 
ATOM     12  C   LIG    1       -5.186  -1.398   4.963  0.00  0.00    +0.090 C 
ATOM     13  C   LIG    1       -4.375  -3.754   0.612  0.00  0.00    +0.100 C 
ATOM     14  C   LIG    1       -6.828  -3.046   4.041  0.00  0.00    +0.010 A 
ENDBRANCH   5  10
ENDBRANCH   4   5
ENDBRANCH   2   4
ENDBRANCH   1   2
BRANCH   1  15
ATOM     15  C   LIG    1       -0.731   1.580   1.286  0.00  0.00    +0.200 C 
ATOM     16  C   LIG    1       -0.018   1.075   0.031  0.00  0.00    +0.080 C 
BRANCH  15  17
ATOM     17  C   LIG    1       -0.750   3.087   1.282  0.00  0.00    +0.520 C 
ATOM     18  N   LIG    1        0.405   3.775   1.369  0.00  0.00    -0.670 N 
ATOM     19  H   LIG    1        1.242   3.303   1.500  0.00  0.00    +0.420 HD
ATOM     20  O   LIG    1       -1.805   3.680   1.201  0.00  0.00    -0.490 OA
BRANCH  18  21
ATOM     21  C   LIG    1        0.397   5.172   1.272  0.00  0.00    +0.110 A 
ATOM     22  C   LIG    1       -0.668   5.899   1.786  0.00  0.00    +0.060 A 
ATOM     23  C   LIG    1       -0.673   7.277   1.689  0.00  0.00    +0.030 A 
ATOM     24  C   LIG    1        0.380   7.934   1.080  0.00  0.00    +0.040 A 
ATOM     25  C   LIG    1        1.443   7.214   0.565  0.00  0.00    +0.010 A 
ATOM     26  C   LIG    1        1.458   5.835   0.664  0.00  0.00    +0.070 A 
ATOM     27  F   LIG    1        2.499   5.132   0.167  0.00  0.00    -0.140 F 
ENDBRANCH  18  21
ENDBRANCH  15  17
ENDBRANCH   1  15
TORSDOF 7
