REMARK  Name = ZINCrH000004qfPv.0
REMARK                            x       y       z     vdW  Elec       q    Type
REMARK                         _______ _______ _______ _____ _____    ______ ____
ROOT
ATOM      1  C   LIG    1       -2.506  -0.009   0.025  0.00  0.00    +0.130 C 
ATOM      2  C   LIG    1       -1.182  -0.727   0.009  0.00  0.00    -0.130 A 
ATOM      3  C   LIG    1       -1.143  -2.112   0.001  0.00  0.00    +0.180 A 
ATOM      4  C   LIG    1        0.077  -2.785  -0.014  0.00  0.00    -0.080 A 
ATOM      5  C   LIG    1        1.251  -2.087  -0.021  0.00  0.00    +0.130 A 
ATOM      6  C   LIG    1        1.228  -0.690  -0.013  0.00  0.00    -0.180 A 
ATOM      7  C   LIG    1        2.479   0.087  -0.021  0.00  0.00    +0.080 A 
ATOM      8  C   LIG    1        2.382   1.466  -0.012  0.00  0.00    -0.080 A 
ATOM      9  C   LIG    1        1.113   2.071   0.003  0.00  0.00    +0.510 A 
ATOM     10  O   LIG    1        1.037   3.287   0.009  0.00  0.00    -0.460 OA
ATOM     11  O   LIG    1       -0.016   1.346   0.009  0.00  0.00    -0.270 OA
ATOM     12  C   LIG    1        0.002  -0.004   0.002  0.00  0.00    +0.190 A 
ENDROOT
BRANCH   7  13
ATOM     13  C   LIG    1        3.796  -0.585  -0.037  0.00  0.00    -0.070 A 
ATOM     14  C   LIG    1        4.176  -1.356  -1.137  0.00  0.00    +0.030 A 
ATOM     15  C   LIG    1        5.408  -1.977  -1.149  0.00  0.00    +0.010 A 
ATOM     16  C   LIG    1        6.262  -1.845  -0.068  0.00  0.00    +0.020 A 
ATOM     17  C   LIG    1        5.890  -1.086   1.027  0.00  0.00    +0.010 A 
ATOM     18  C   LIG    1        4.663  -0.456   1.049  0.00  0.00    +0.040 A 
ENDBRANCH   7  13
BRANCH   3  19
ATOM     19  O   LIG    1       -2.302  -2.818   0.008  0.00  0.00    -0.280 OA
BRANCH  19  20
ATOM     20  C   LIG    1       -2.193  -4.243  -0.001  0.00  0.00    +0.240 C 
BRANCH  20  21
ATOM     21  C   LIG    1       -3.572  -4.852   0.009  0.00  0.00    +0.530 C 
ATOM     22  N   LIG    1       -3.716  -6.192   0.003  0.00  0.00    -0.620 N 
ATOM     23  C   LIG    1       -2.621  -7.172  -0.020  0.00  0.00    +0.230 C 
ATOM     24  C   LIG    1       -3.262  -8.576  -0.044  0.00  0.00    +0.040 C 
ATOM     25  C   LIG    1       -4.679  -8.299  -0.613  0.00  0.00    +0.030 C 
ATOM     26  C   LIG    1       -5.000  -6.918   0.011  0.00  0.00    +0.260 C 
ATOM     27  O   LIG    1       -4.551  -4.136   0.022  0.00  0.00    -0.510 OA
ENDBRANCH  20  21
ENDBRANCH  19  20
ENDBRANCH   3  19
TORSDOF 4
