REMARK  Name = ZINCrD00000F5LEt.0
REMARK                            x       y       z     vdW  Elec       q    Type
REMARK                         _______ _______ _______ _____ _____    ______ ____
ROOT
ATOM      1  C   LIG    1        1.121   3.370   0.001  0.00  0.00    +0.290 C 
ATOM      2  N   LIG    1        1.145   1.905   0.002  0.00  0.00    -0.600 N 
ATOM      3  C   LIG    1       -0.011   1.212   0.017  0.00  0.00    +0.560 C 
ATOM      4  O   LIG    1        0.009  -0.004   0.018  0.00  0.00    -0.540 OA
ENDROOT
BRANCH   3   5
ATOM      5  C   LIG    1       -1.289   1.923   0.027  0.00  0.00    -0.060 C 
ATOM      6  C   LIG    1       -2.447   1.229   0.037  0.00  0.00    +0.130 C 
BRANCH   6   7
ATOM      7  C   LIG    1       -3.732   1.944   0.047  0.00  0.00    -0.050 A 
ATOM      8  C   LIG    1       -3.757   3.342   0.053  0.00  0.00    +0.070 A 
ATOM      9  C   LIG    1       -4.964   4.009   0.056  0.00  0.00    -0.020 A 
ATOM     10  C   LIG    1       -6.157   3.297   0.066  0.00  0.00    +0.050 A 
ATOM     11  O   LIG    1       -7.455   3.715   0.076  0.00  0.00    -0.290 OA
ATOM     12  C   LIG    1       -8.224   2.572   0.497  0.00  0.00    +0.440 C 
ATOM     13  O   LIG    1       -7.427   1.449   0.078  0.00  0.00    -0.300 OA
ATOM     14  C   LIG    1       -6.138   1.901   0.067  0.00  0.00    +0.050 A 
ATOM     15 CL   LIG    1       -4.993   5.745   0.056  0.00  0.00    -0.040 Cl
ATOM     16  C   LIG    1       -4.934   1.226   0.058  0.00  0.00    +0.080 A 
ENDBRANCH   6   7
ENDBRANCH   3   5
BRANCH   2  17
ATOM     17  C   LIG    1        2.425   1.193  -0.015  0.00  0.00    +0.340 C 
BRANCH  17  18
ATOM     18  C   LIG    1        2.846   0.948  -1.441  0.00  0.00    +0.500 C 
ATOM     19  N   LIG    1        4.001   0.304  -1.702  0.00  0.00    -0.670 N 
ATOM     20  H   LIG    1        4.594   0.058  -0.975  0.00  0.00    +0.410 HD
ATOM     21  O   LIG    1        2.145   1.331  -2.354  0.00  0.00    -0.510 OA
BRANCH  19  22
ATOM     22  C   LIG    1        4.345  -0.009  -3.022  0.00  0.00    +0.130 A 
ATOM     23  C   LIG    1        5.029  -1.184  -3.302  0.00  0.00    +0.030 A 
ATOM     24  C   LIG    1        5.363  -1.494  -4.606  0.00  0.00    +0.010 A 
ATOM     25  C   LIG    1        5.025  -0.628  -5.633  0.00  0.00    +0.080 A 
ATOM     26  C   LIG    1        4.347   0.547  -5.355  0.00  0.00    +0.010 A 
ATOM     27  F   LIG    1        5.358  -0.930  -6.907  0.00  0.00    -0.140 F 
ATOM     28  C   LIG    1        4.007   0.858  -4.053  0.00  0.00    +0.060 A 
ENDBRANCH  19  22
ENDBRANCH  17  18
ENDBRANCH   2  17
TORSDOF 5
