REMARK  Name = ZINCAx0000000jGP.0
REMARK                            x       y       z     vdW  Elec       q    Type
REMARK                         _______ _______ _______ _____ _____    ______ ____
ROOT
ATOM      1  C   LIG    1        1.554  -0.683  -0.566  0.00  0.00    +0.340 C 
ATOM      2  C   LIG    1        2.031   0.736  -0.365  0.00  0.00    -0.230 C 
ATOM      3  C   LIG    1        0.948   1.466  -0.010  0.00  0.00    +0.110 C 
ATOM      4  C   LIG    1       -0.238   0.584   0.034  0.00  0.00    +0.520 C 
ATOM      5  O   LIG    1       -1.364   0.943   0.316  0.00  0.00    -0.500 OA
ATOM      6  N   LIG    1        0.113  -0.674  -0.290  0.00  0.00    -0.590 N 
ENDROOT
BRANCH   1  10
ATOM      7  C   LIG    1        2.272  -1.921  -4.595  0.00  0.00    -0.110 A 
ATOM      8  C   LIG    1        3.004  -2.484  -3.548  0.00  0.00    +0.090 A 
ATOM      9  C   LIG    1        2.767  -2.080  -2.250  0.00  0.00    +0.030 A 
ATOM     10  C   LIG    1        1.807  -1.119  -1.986  0.00  0.00    -0.070 A 
ATOM     11  C   LIG    1        1.075  -0.562  -3.018  0.00  0.00    +0.030 A 
ATOM     12  C   LIG    1        1.305  -0.953  -4.321  0.00  0.00    +0.080 A 
BRANCH   7  13
ATOM     13  C   LIG    1        2.520  -2.349  -5.987  0.00  0.00    +0.510 C 
ATOM     14  O   LIG    1        3.363  -3.192  -6.223  0.00  0.00    -0.500 OA
BRANCH  13  16
ATOM     15  C   LIG    1        2.109  -2.272  -8.338  0.00  0.00    +0.280 C 
ATOM     16  O   LIG    1        1.812  -1.804  -6.996  0.00  0.00    -0.350 OA
ENDBRANCH  13  16
ENDBRANCH   7  13
ENDBRANCH   1  10
BRANCH   3  17
ATOM     17  O   LIG    1        0.950   2.791   0.260  0.00  0.00    -0.430 OA
ATOM     18  H   LIG    1        0.082   3.146   0.497  0.00  0.00    +0.410 HD
ENDBRANCH   3  17
BRANCH   2  19
ATOM     19  C   LIG    1        3.403   1.228  -0.524  0.00  0.00    +0.470 C 
ATOM     20  O   LIG    1        3.666   2.023  -1.407  0.00  0.00    -0.420 OA
BRANCH  19  21
ATOM     21  C   LIG    1        4.467   0.758   0.389  0.00  0.00    -0.120 A 
ATOM     22  C   LIG    1        4.149  -0.066   1.470  0.00  0.00    +0.020 A 
ATOM     23  C   LIG    1        5.145  -0.503   2.320  0.00  0.00    +0.040 A 
ATOM     24  C   LIG    1        6.458  -0.127   2.104  0.00  0.00    -0.050 A 
ATOM     25  C   LIG    1        6.784   0.692   1.030  0.00  0.00    +0.120 A 
ATOM     26  C   LIG    1        5.794   1.132   0.169  0.00  0.00    +0.050 A 
BRANCH  25  27
ATOM     27  O   LIG    1        8.076   1.058   0.823  0.00  0.00    -0.310 OA
ATOM     28  C   LIG    1        9.047   0.564   1.748  0.00  0.00    +0.250 C 
ENDBRANCH  25  27
ENDBRANCH  19  21
ENDBRANCH   2  19
BRANCH   6  29
ATOM     29  C   LIG    1       -0.786  -1.829  -0.357  0.00  0.00    +0.320 C 
BRANCH  29  30
ATOM     30  C   LIG    1       -1.362  -1.946  -1.769  0.00  0.00    +0.020 C 
BRANCH  30  31
ATOM     31  C   LIG    1       -2.300  -3.153  -1.838  0.00  0.00    +0.180 C 
BRANCH  31  32
ATOM     32  N   LIG    1       -2.854  -3.265  -3.194  0.00  0.00    -0.530 NA
ATOM     33  C   LIG    1       -3.734  -2.128  -3.500  0.00  0.00    +0.150 C 
ATOM     34  C   LIG    1       -4.241  -2.254  -4.939  0.00  0.00    +0.220 C 
ATOM     35  O   LIG    1       -4.905  -3.511  -5.098  0.00  0.00    -0.390 OA
ATOM     36  C   LIG    1       -4.076  -4.640  -4.809  0.00  0.00    +0.220 C 
ATOM     37  C   LIG    1       -3.568  -4.538  -3.368  0.00  0.00    +0.150 C 
ENDBRANCH  31  32
ENDBRANCH  30  31
ENDBRANCH  29  30
ENDBRANCH   6  29
TORSDOF 11
