REMARK  Name = ZINCtV00001bB3QF.0
REMARK                            x       y       z     vdW  Elec       q    Type
REMARK                         _______ _______ _______ _____ _____    ______ ____
ROOT
ATOM      1  C   LIG    1        3.625  -0.705  -0.035  0.00  0.00    -0.080 A 
ATOM      2  C   LIG    1        2.392  -0.011  -0.020  0.00  0.00    -0.000 A 
ATOM      3  C   LIG    1        1.171  -0.702  -0.012  0.00  0.00    +0.020 A 
ATOM      4  C   LIG    1        0.002  -0.004   0.002  0.00  0.00    +0.040 A 
ATOM      5  C   LIG    1       -0.017   1.388   0.010  0.00  0.00    +0.020 A 
ATOM      6  C   LIG    1        1.131   2.116   0.003  0.00  0.00    +0.040 A 
ATOM      7  C   LIG    1        2.376   1.453  -0.013  0.00  0.00    -0.050 A 
ATOM      8  C   LIG    1        3.574   2.173  -0.019  0.00  0.00    +0.010 A 
ATOM      9  C   LIG    1        4.797   1.496  -0.034  0.00  0.00    -0.050 A 
ATOM     10  C   LIG    1        6.018   2.203  -0.042  0.00  0.00    +0.040 A 
ATOM     11  C   LIG    1        7.190   1.516  -0.056  0.00  0.00    +0.020 A 
ATOM     12  C   LIG    1        7.221   0.123  -0.064  0.00  0.00    +0.040 A 
ATOM     13  C   LIG    1        6.077  -0.616  -0.057  0.00  0.00    +0.000 A 
ATOM     14 CL   LIG    1        3.544   3.908  -0.011  0.00  0.00    -0.040 Cl
ATOM     15  C   LIG    1        4.832   0.033  -0.042  0.00  0.00    -0.010 A 
ENDROOT
BRANCH   1  17
ATOM     16  C   LIG    1        4.422  -2.788  -0.969  0.00  0.00    -0.010 C 
ATOM     17  C   LIG    1        3.650  -2.116  -0.042  0.00  0.00    +0.210 C 
BRANCH  16  18
ATOM     18  C   LIG    1        4.448  -4.262  -0.976  0.00  0.00    +0.220 A 
ATOM     19  N   LIG    1        3.789  -5.065  -0.163  0.00  0.00    -0.270 NA
ATOM     20  N   LIG    1        4.043  -6.290  -0.463  0.00  0.00    -0.280 NA
ATOM     21  C   LIG    1        4.864  -6.342  -1.473  0.00  0.00    +0.200 A 
ATOM     22  C   LIG    1        5.400  -7.577  -2.149  0.00  0.00    +0.170 C 
ATOM     23  C   LIG    1        6.913  -7.429  -2.337  0.00  0.00    +0.030 C 
ATOM     24  C   LIG    1        7.199  -6.731  -3.663  0.00  0.00    +0.020 C 
ATOM     25  C   LIG    1        6.105  -5.713  -3.982  0.00  0.00    +0.030 C 
ATOM     26  C   LIG    1        6.067  -4.638  -2.893  0.00  0.00    +0.280 C 
ATOM     27  N   LIG    1        5.155  -5.061  -1.829  0.00  0.00    -0.470 N 
ENDBRANCH  16  18
BRANCH  16  29
ATOM     28  N   LIG    1        5.813  -1.471  -2.679  0.00  0.00    -0.390 NA
ATOM     29  C   LIG    1        5.198  -2.054  -1.922  0.00  0.00    +0.240 C 
ENDBRANCH  16  29
ENDBRANCH   1  17
TORSDOF 3
