REMARK  Name = ZINCqH0000004WrJ.0
REMARK                            x       y       z     vdW  Elec       q    Type
REMARK                         _______ _______ _______ _____ _____    ______ ____
ROOT
ATOM      1  C   LIG    1        0.437   5.636   0.042  0.00  0.00    +0.290 C 
ATOM      2  N   LIG    1       -0.503   6.219   1.002  0.00  0.00    -0.610 N 
ATOM      3  C   LIG    1       -1.565   6.923   0.563  0.00  0.00    +0.520 C 
ATOM      4  O   LIG    1       -1.788   7.006  -0.627  0.00  0.00    -0.530 OA
ENDROOT
BRANCH   2   5
ATOM      5  C   LIG    1       -0.289   6.037   2.440  0.00  0.00    +0.280 C 
ATOM      6  C   LIG    1       -0.140   4.537   2.774  0.00  0.00    +0.040 C 
ATOM      7  C   LIG    1        0.887   4.555   3.926  0.00  0.00    +0.090 C 
ATOM      8  C   LIG    1        1.695   5.818   3.717  0.00  0.00    -0.090 A 
ATOM      9  C   LIG    1        2.925   6.192   4.232  0.00  0.00    +0.010 A 
ATOM     10  C   LIG    1        3.477   7.413   3.896  0.00  0.00    +0.020 A 
ATOM     11  C   LIG    1        2.798   8.267   3.047  0.00  0.00    +0.010 A 
ATOM     12  C   LIG    1        1.574   7.893   2.528  0.00  0.00    +0.030 A 
ATOM     13  C   LIG    1        1.019   6.670   2.863  0.00  0.00    -0.120 A 
ENDBRANCH   2   5
BRANCH   3  14
ATOM     14  C   LIG    1       -2.476   7.607   1.549  0.00  0.00    -0.010 C 
ATOM     15  C   LIG    1       -3.429   6.578   2.162  0.00  0.00    +0.030 C 
ATOM     16  C   LIG    1       -4.330   7.271   3.189  0.00  0.00    +0.280 C 
ATOM     17  N   LIG    1       -5.003   8.405   2.540  0.00  0.00    -0.600 N 
ATOM     18  C   LIG    1       -4.184   9.406   1.843  0.00  0.00    +0.300 C 
ATOM     19  C   LIG    1       -6.344   8.524   2.584  0.00  0.00    +0.650 C 
ATOM     20  O   LIG    1       -6.888   9.467   2.044  0.00  0.00    -0.560 OA
ATOM     21  C   LIG    1       -3.285   8.690   0.830  0.00  0.00    +0.040 C 
BRANCH  19  22
ATOM     22  O   LIG    1       -7.082   7.599   3.226  0.00  0.00    -0.360 OA
BRANCH  22  23
ATOM     23  C   LIG    1       -8.521   7.792   3.233  0.00  0.00    +0.140 C 
ATOM     24  C   LIG    1       -8.854   9.124   3.908  0.00  0.00    +0.040 C 
ATOM     25  C   LIG    1       -9.185   6.650   4.005  0.00  0.00    +0.080 C 
ATOM     26  C   LIG    1       -9.041   7.805   1.794  0.00  0.00    +0.040 C 
ENDBRANCH  22  23
ENDBRANCH  19  22
ENDBRANCH   3  14
TORSDOF 4
