REMARK  Name = ZINCrD00000F5LuY.0
REMARK                            x       y       z     vdW  Elec       q    Type
REMARK                         _______ _______ _______ _____ _____    ______ ____
ROOT
ATOM      1  C   LIG    1        3.753   3.050  -1.973  0.00  0.00    +0.270 A 
ATOM      2  N   LIG    1        4.032   3.440  -3.201  0.00  0.00    -0.490 NA
ATOM      3  C   LIG    1        3.474   4.627  -3.440  0.00  0.00    +0.330 A 
ATOM      4  C   LIG    1        2.793   5.011  -2.290  0.00  0.00    -0.140 A 
ATOM      5  C   LIG    1        2.108   6.238  -2.275  0.00  0.00    +0.590 A 
ATOM      6  N   LIG    1        2.126   7.018  -3.375  0.00  0.00    -0.550 N 
ATOM      7  C   LIG    1        2.788   6.639  -4.482  0.00  0.00    +0.710 A 
ATOM      8  O   LIG    1        2.783   7.367  -5.455  0.00  0.00    -0.530 OA
ATOM      9  C   LIG    1        1.414   8.298  -3.364  0.00  0.00    +0.350 C 
ATOM     10  O   LIG    1        1.505   6.595  -1.278  0.00  0.00    -0.510 OA
ATOM     11  N   LIG    1        3.456   5.471  -4.540  0.00  0.00    -0.510 N 
ATOM     12  C   LIG    1        4.165   5.093  -5.764  0.00  0.00    +0.340 C 
ATOM     13  N   LIG    1        2.979   3.991  -1.366  0.00  0.00    -0.390 N 
ENDROOT
BRANCH   1  14
ATOM     14  S   LIG    1        4.295   1.545  -1.234  0.00  0.00    +0.030 S 
BRANCH  14  15
ATOM     15  C   LIG    1        5.246   0.846  -2.606  0.00  0.00    +0.140 C 
BRANCH  15  18
ATOM     16  C   LIG    1        6.005  -2.913  -2.375  0.00  0.00    +0.120 C 
ATOM     17  C   LIG    1        5.429  -1.583  -2.789  0.00  0.00    -0.040 C 
ATOM     18  C   LIG    1        5.822  -0.484  -2.192  0.00  0.00    +0.000 C 
ATOM     19 CL   LIG    1        4.246  -1.507  -4.057  0.00  0.00    -0.070 Cl
ENDBRANCH  15  18
ENDBRANCH  14  15
ENDBRANCH   1  14
BRANCH  13  20
ATOM     20  C   LIG    1        2.450   3.939  -0.001  0.00  0.00    +0.400 C 
BRANCH  20  21
ATOM     21  C   LIG    1        1.148   3.181   0.005  0.00  0.00    -0.100 A 
ATOM     22  C   LIG    1        0.585   2.766  -1.187  0.00  0.00    +0.030 A 
ATOM     23  C   LIG    1       -0.610   2.070  -1.181  0.00  0.00    +0.020 A 
ATOM     24  C   LIG    1       -1.239   1.784   0.016  0.00  0.00    +0.040 A 
ATOM     25  C   LIG    1       -0.679   2.204   1.208  0.00  0.00    +0.040 A 
ATOM     26  C   LIG    1        0.516   2.901   1.204  0.00  0.00    -0.020 A 
ATOM     27 CL   LIG    1        1.224   3.422   2.701  0.00  0.00    -0.060 Cl
ENDBRANCH  20  21
ENDBRANCH  13  20
TORSDOF 5
