REMARK  Name = ZINCqH0000001CmA.0
REMARK                            x       y       z     vdW  Elec       q    Type
REMARK                         _______ _______ _______ _____ _____    ______ ____
ROOT
ATOM      1  C   LIG    1        4.557  -4.207  -1.286  0.00  0.00    +0.460 C 
ATOM      2  O   LIG    1        3.444  -4.656  -1.150  0.00  0.00    -0.490 OA
ENDROOT
BRANCH   1   3
ATOM      3  O   LIG    1        5.579  -5.026  -1.582  0.00  0.00    -0.340 OA
BRANCH   3  10
ATOM      4  C   LIG    1        6.493  -7.267  -1.315  0.00  0.00    +0.010 C 
ATOM      5  C   LIG    1        7.677  -6.909  -2.216  0.00  0.00    +0.020 C 
ATOM      6  C   LIG    1        7.319  -7.211  -3.672  0.00  0.00    +0.010 C 
ATOM      7  C   LIG    1        6.099  -6.382  -4.080  0.00  0.00    -0.020 C 
ATOM      8  C   LIG    1        4.915  -6.740  -3.179  0.00  0.00    +0.020 C 
ATOM      9  C   LIG    1        5.741  -6.684  -5.536  0.00  0.00    +0.010 C 
ATOM     10  C   LIG    1        5.274  -6.438  -1.722  0.00  0.00    +0.190 C 
BRANCH   4  12
ATOM     11  C   LIG    1        5.668  -7.323   1.043  0.00  0.00    +0.020 C 
ATOM     12  C   LIG    1        6.852  -6.965   0.142  0.00  0.00    -0.010 C 
ATOM     13  C   LIG    1        8.071  -7.794   0.549  0.00  0.00    +0.020 C 
ENDBRANCH   4  12
ENDBRANCH   3  10
ENDBRANCH   1   3
BRANCH   1  14
ATOM     14  C   LIG    1        4.798  -2.728  -1.125  0.00  0.00    +0.320 C 
BRANCH  14  15
ATOM     15  O   LIG    1        3.546  -2.065  -0.810  0.00  0.00    -0.330 OA
BRANCH  15  16
ATOM     16  C   LIG    1        3.588  -0.731  -0.633  0.00  0.00    +0.500 C 
ATOM     17  O   LIG    1        4.642  -0.137  -0.739  0.00  0.00    -0.470 OA
BRANCH  16  18
ATOM     18  C   LIG    1        2.352   0.011  -0.310  0.00  0.00    -0.080 A 
ATOM     19  C   LIG    1        1.167  -0.680  -0.052  0.00  0.00    +0.110 A 
ATOM     20  C   LIG    1        0.016   0.019   0.249  0.00  0.00    +0.070 A 
ATOM     21  C   LIG    1        0.035   1.402   0.295  0.00  0.00    +0.090 A 
ATOM     22  C   LIG    1        1.206   2.093   0.041  0.00  0.00    +0.090 A 
ATOM     23  C   LIG    1        2.364   1.407  -0.261  0.00  0.00    +0.020 A 
BRANCH  23  24
ATOM     24  N   LIG    1        3.616   2.148  -0.533  0.00  0.00    +0.010 N 
ATOM     25  O   LIG    1        4.260   1.907  -1.539  0.00  0.00    -0.100 OA
ATOM     26  O   LIG    1        4.002   2.998   0.248  0.00  0.00    -0.160 OA
ENDBRANCH  23  24
ENDBRANCH  16  18
ENDBRANCH  15  16
ENDBRANCH  14  15
ENDBRANCH   1  14
TORSDOF 8
