REMARK  Name = ZINCrD00000l4P67.0
REMARK                            x       y       z     vdW  Elec       q    Type
REMARK                         _______ _______ _______ _____ _____    ______ ____
ROOT
ATOM      1  C   LIG    1       -2.708   0.353  -2.812  0.00  0.00    +0.460 C 
ATOM      2  O   LIG    1       -2.771   1.553  -2.689  0.00  0.00    -0.490 OA
ENDROOT
BRANCH   1   3
ATOM      3  C   LIG    1       -2.566  -0.524  -1.595  0.00  0.00    +0.130 C 
BRANCH   3   4
ATOM      4  C   LIG    1       -2.525   0.350  -0.340  0.00  0.00    +0.310 C 
BRANCH   4   5
ATOM      5  C   LIG    1       -2.507  -0.530   0.884  0.00  0.00    -0.100 A 
ATOM      6  C   LIG    1       -1.311  -1.048   1.345  0.00  0.00    +0.020 A 
ATOM      7  C   LIG    1       -1.294  -1.852   2.469  0.00  0.00    +0.000 A 
ATOM      8  C   LIG    1       -2.473  -2.144   3.128  0.00  0.00    +0.000 A 
ATOM      9  C   LIG    1       -3.670  -1.630   2.665  0.00  0.00    +0.000 A 
ATOM     10  C   LIG    1       -3.687  -0.823   1.542  0.00  0.00    +0.020 A 
ENDBRANCH   4   5
BRANCH   4  13
ATOM     11  C   LIG    1        0.025   3.088   0.460  0.00  0.00    +0.090 C 
ATOM     12  C   LIG    1       -1.257   2.298   0.389  0.00  0.00    +0.520 C 
ATOM     13  N   LIG    1       -1.319   1.181  -0.362  0.00  0.00    -0.720 N 
ATOM     14  H   LIG    1       -0.565   0.927  -0.917  0.00  0.00    +0.400 HD
ATOM     15  O   LIG    1       -2.231   2.666   1.011  0.00  0.00    -0.540 OA
ENDBRANCH   4  13
ENDBRANCH   3   4
ENDBRANCH   1   3
BRANCH   1  16
ATOM     16  O   LIG    1       -2.766  -0.199  -4.035  0.00  0.00    -0.330 OA
BRANCH  16  17
ATOM     17  C   LIG    1       -2.903   0.706  -5.162  0.00  0.00    +0.270 C 
BRANCH  17  18
ATOM     18  C   LIG    1       -2.950  -0.089  -6.441  0.00  0.00    +0.520 C 
ATOM     19  N   LIG    1       -3.075   0.545  -7.624  0.00  0.00    -0.670 N 
ATOM     20  H   LIG    1       -3.195   1.508  -7.648  0.00  0.00    +0.420 HD
ATOM     21  O   LIG    1       -2.875  -1.299  -6.407  0.00  0.00    -0.490 OA
BRANCH  19  22
ATOM     22  C   LIG    1       -3.031  -0.185  -8.818  0.00  0.00    +0.130 A 
ATOM     23  C   LIG    1       -3.559  -1.468  -8.869  0.00  0.00    +0.070 A 
ATOM     24  C   LIG    1       -3.520  -2.184 -10.049  0.00  0.00    +0.070 A 
ATOM     25  C   LIG    1       -2.945  -1.629 -11.179  0.00  0.00    -0.080 A 
ATOM     26  C   LIG    1       -2.412  -0.353 -11.132  0.00  0.00    +0.040 A 
ATOM     27 BR   LIG    1       -2.887  -2.617 -12.790  0.00  0.00    -0.030 Br
ATOM     28  C   LIG    1       -2.454   0.371  -9.955  0.00  0.00    +0.080 A 
ATOM     29  F   LIG    1       -1.934   1.617  -9.908  0.00  0.00    -0.130 F 
ENDBRANCH  19  22
ENDBRANCH  17  18
ENDBRANCH  16  17
ENDBRANCH   1  16
TORSDOF 8
