REMARK  Name = ZINCnE000001SUVB.0
REMARK                            x       y       z     vdW  Elec       q    Type
REMARK                         _______ _______ _______ _____ _____    ______ ____
ROOT
ATOM      1  O   LIG    1       -4.242  -0.998  -0.620  0.00  0.00    -0.540 OA
ATOM      2  C   LIG    1       -3.394  -0.765  -1.461  0.00  0.00    +0.580 C 
ATOM      3  N   LIG    1       -2.466   0.187  -1.237  0.00  0.00    -0.690 N 
ATOM      4  H   LIG    1       -1.790   0.372  -1.907  0.00  0.00    +0.400 HD
ENDROOT
BRANCH   2   5
ATOM      5  C   LIG    1       -3.382  -1.522  -2.721  0.00  0.00    -0.200 A 
ATOM      6  C   LIG    1       -4.255  -2.482  -3.040  0.00  0.00    +0.090 A 
ATOM      7  C   LIG    1       -4.065  -3.081  -4.296  0.00  0.00    -0.080 A 
ATOM      8  C   LIG    1       -4.815  -4.113  -4.910  0.00  0.00    +0.060 A 
ATOM      9  C   LIG    1       -4.478  -4.569  -6.145  0.00  0.00    +0.000 A 
ATOM     10  C   LIG    1       -3.394  -4.032  -6.828  0.00  0.00    +0.030 A 
ATOM     11  C   LIG    1       -2.646  -3.030  -6.258  0.00  0.00    +0.040 A 
ATOM     12  C   LIG    1       -2.973  -2.544  -4.989  0.00  0.00    -0.140 A 
ATOM     13  S   LIG    1       -2.223  -1.282  -4.018  0.00  0.00    +0.140 S 
ENDBRANCH   2   5
BRANCH   3  14
ATOM     14  C   LIG    1       -2.479   0.941   0.019  0.00  0.00    +0.290 C 
BRANCH  14  15
ATOM     15  C   LIG    1       -1.330   1.951   0.019  0.00  0.00    -0.060 C 
BRANCH  15  16
ATOM     16  C   LIG    1       -1.415   2.809   1.254  0.00  0.00    -0.030 A 
ATOM     17  C   LIG    1       -1.354   2.227   2.507  0.00  0.00    +0.010 A 
ATOM     18  C   LIG    1       -1.429   3.014   3.640  0.00  0.00    +0.000 A 
ATOM     19  C   LIG    1       -1.573   4.384   3.521  0.00  0.00    -0.030 A 
ATOM     20  C   LIG    1       -1.639   4.966   2.269  0.00  0.00    +0.000 A 
ATOM     21  C   LIG    1       -1.561   4.179   1.136  0.00  0.00    +0.000 A 
ENDBRANCH  15  16
BRANCH  15  22
ATOM     22  C   LIG    1       -0.015   1.215   0.009  0.00  0.00    +0.500 C 
ATOM     23  O   LIG    1        1.033   1.839   0.002  0.00  0.00    -0.690 OA
ATOM     24  O   LIG    1        0.002  -0.004   0.002  0.00  0.00    -0.680 OA
ENDBRANCH  15  22
ENDBRANCH  14  15
ENDBRANCH   3  14
TORSDOF 5
