REMARK  Name = ZINCrg00000RYVae.0
REMARK                            x       y       z     vdW  Elec       q    Type
REMARK                         _______ _______ _______ _____ _____    ______ ____
ROOT
ATOM      1  C   LIG    1       -0.014   1.212   0.009  0.00  0.00    +0.580 C 
ATOM      2  N   LIG    1        0.736   0.995   1.107  0.00  0.00    -0.600 N 
ATOM      3  C   LIG    1        0.321   1.527   2.413  0.00  0.00    +0.270 C 
ATOM      4  C   LIG    1        0.250   0.361   3.413  0.00  0.00    +0.290 C 
ATOM      5  N   LIG    1        1.501  -0.407   3.325  0.00  0.00    -1.000 NA
ATOM      6  C   LIG    1        1.919  -0.934   2.019  0.00  0.00    +0.300 C 
ATOM      7  C   LIG    1        1.986   0.228   1.020  0.00  0.00    +0.290 C 
ATOM      8  O   LIG    1        0.411   0.904  -1.088  0.00  0.00    -0.520 OA
ENDROOT
BRANCH   1  13
ATOM      9  O   LIG    1       -4.960   3.411   0.483  0.00  0.00    -0.540 OA
ATOM     10  C   LIG    1       -3.844   2.931   0.376  0.00  0.00    +0.520 A 
ATOM     11  C   LIG    1       -2.730   3.778   0.233  0.00  0.00    -0.070 A 
ATOM     12  C   LIG    1       -1.488   3.237   0.114  0.00  0.00    +0.150 A 
ATOM     13  C   LIG    1       -1.348   1.828   0.136  0.00  0.00    -0.240 A 
ATOM     14  C   LIG    1       -2.470   1.036   0.272  0.00  0.00    +0.350 A 
ATOM     15  N   LIG    1       -3.688   1.595   0.394  0.00  0.00    -0.600 N 
ATOM     16  H   LIG    1       -4.467   1.024   0.493  0.00  0.00    +0.420 HD
ENDBRANCH   1  13
BRANCH   5  17
ATOM     17  S   LIG    1        2.423  -0.672   4.675  0.00  0.00    +2.690 S 
ATOM     18  O   LIG    1        3.195  -1.835   4.411  0.00  0.00    -0.950 OA
ATOM     19  O   LIG    1        1.547  -0.556   5.788  0.00  0.00    -0.950 OA
BRANCH  17  20
ATOM     20  C   LIG    1        3.563   0.666   4.799  0.00  0.00    -0.680 A 
ATOM     21  C   LIG    1        4.802   0.576   4.193  0.00  0.00    +0.120 A 
ATOM     22  C   LIG    1        5.693   1.629   4.286  0.00  0.00    +0.000 A 
ATOM     23  C   LIG    1        5.353   2.768   4.995  0.00  0.00    -0.040 A 
ATOM     24  C   LIG    1        6.138   4.037   5.248  0.00  0.00    +0.080 C 
ATOM     25  C   LIG    1        5.429   4.722   6.435  0.00  0.00    +0.040 C 
ATOM     26  C   LIG    1        3.986   4.188   6.311  0.00  0.00    +0.080 C 
ATOM     27  C   LIG    1        4.115   2.855   5.606  0.00  0.00    -0.120 A 
ATOM     28  C   LIG    1        3.222   1.802   5.506  0.00  0.00    +0.130 A 
ENDBRANCH  17  20
ENDBRANCH   5  17
TORSDOF 3
