REMARK  Name = ZINCrg00000AdDWq.0
REMARK                            x       y       z     vdW  Elec       q    Type
REMARK                         _______ _______ _______ _____ _____    ______ ____
ROOT
ATOM      1  C   LIG    1        0.255   1.844   5.834  0.00  0.00    -0.010 A 
ATOM      2  C   LIG    1        1.516   1.424   6.215  0.00  0.00    +0.020 A 
ATOM      3  C   LIG    1        2.353   2.284   6.902  0.00  0.00    +0.070 A 
ATOM      4  C   LIG    1        1.925   3.560   7.215  0.00  0.00    +0.000 A 
ATOM      5  C   LIG    1        0.662   3.978   6.839  0.00  0.00    +0.100 A 
ATOM      6  C   LIG    1       -0.173   3.120   6.149  0.00  0.00    -0.660 A 
ENDROOT
BRANCH   6   7
ATOM      7  S   LIG    1       -1.782   3.653   5.669  0.00  0.00    +2.690 S 
ATOM      8  O   LIG    1       -2.690   2.672   6.152  0.00  0.00    -0.950 OA
ATOM      9  O   LIG    1       -1.692   4.021   4.300  0.00  0.00    -0.940 OA
BRANCH   7  10
ATOM     10  N   LIG    1       -2.108   5.044   6.507  0.00  0.00    -0.990 NA
ATOM     11  C   LIG    1       -1.747   6.344   5.936  0.00  0.00    +0.310 C 
BRANCH  10  12
ATOM     12  C   LIG    1       -2.757   4.975   7.818  0.00  0.00    +0.320 C 
BRANCH  12  13
ATOM     13  C   LIG    1       -1.692   5.014   8.916  0.00  0.00    +0.160 C 
BRANCH  13  14
ATOM     14  O   LIG    1       -1.008   6.268   8.871  0.00  0.00    -0.570 OA
ATOM     15  H   LIG    1       -0.317   6.363   9.541  0.00  0.00    +0.380 HD
ENDBRANCH  13  14
ENDBRANCH  12  13
ENDBRANCH  10  12
ENDBRANCH   7  10
ENDBRANCH   6   7
BRANCH   1  16
ATOM     16  C   LIG    1       -0.655   0.908   5.081  0.00  0.00    +0.330 C 
BRANCH  16  26
ATOM     17  C   LIG    1       -4.282   0.595  -0.983  0.00  0.00    +0.080 C 
ATOM     18  C   LIG    1       -2.942   1.145  -0.490  0.00  0.00    +0.150 C 
ATOM     19  C   LIG    1       -2.370   0.222   0.560  0.00  0.00    +0.270 C 
ATOM     20  N   LIG    1       -1.534   0.980   1.513  0.00  0.00    -0.630 N 
ATOM     21  C   LIG    1       -0.674   2.073   1.002  0.00  0.00    +0.250 C 
ATOM     22  C   LIG    1       -0.036   1.713  -0.318  0.00  0.00    -0.000 C 
ATOM     23  C   LIG    1       -0.972   2.099  -1.478  0.00  0.00    +0.150 C 
ATOM     24  C   LIG    1       -0.179   2.084  -2.786  0.00  0.00    +0.050 C 
ATOM     25  C   LIG    1       -1.553   0.681   2.828  0.00  0.00    +0.710 C 
ATOM     26  N   LIG    1       -0.717   1.313   3.675  0.00  0.00    -0.750 N 
ATOM     27  H   LIG    1       -0.157   2.037   3.353  0.00  0.00    +0.400 HD
ATOM     28  O   LIG    1       -2.325  -0.159   3.249  0.00  0.00    -0.580 OA
ATOM     29  O   LIG    1       -2.027   1.227  -1.585  0.00  0.00    -0.380 OA
ENDBRANCH  16  26
ENDBRANCH   1  16
TORSDOF 7
