REMARK  Name = ZINCqH00000518mo.0
REMARK                            x       y       z     vdW  Elec       q    Type
REMARK                         _______ _______ _______ _____ _____    ______ ____
ROOT
ATOM      1  O   LIG    1        0.994   0.397   2.363  0.00  0.00    -0.540 OA
ATOM      2  C   LIG    1        0.000   1.080   2.488  0.00  0.00    +0.520 C 
ATOM      3  N   LIG    1       -0.453   1.393   3.718  0.00  0.00    -0.720 N 
ATOM      4  H   LIG    1       -1.248   1.939   3.817  0.00  0.00    +0.400 HD
ENDROOT
BRANCH   3   5
ATOM      5  C   LIG    1        0.256   0.907   4.905  0.00  0.00    +0.350 C 
BRANCH   5   6
ATOM      6  C   LIG    1       -0.450   1.393   6.145  0.00  0.00    -0.270 A 
ATOM      7  C   LIG    1       -0.199   2.550   6.802  0.00  0.00    +0.260 A 
ATOM      8  N   LIG    1       -1.042   2.616   7.853  0.00  0.00    -0.360 N 
ATOM      9  N   LIG    1       -1.831   1.458   7.848  0.00  0.00    -0.280 NA
ATOM     10  C   LIG    1       -1.475   0.726   6.823  0.00  0.00    +0.240 A 
BRANCH   8  11
ATOM     11  C   LIG    1       -1.115   3.704   8.832  0.00  0.00    +0.380 C 
BRANCH  11  12
ATOM     12  C   LIG    1       -2.528   4.225   8.898  0.00  0.00    -0.110 A 
ATOM     13  C   LIG    1       -2.922   5.260   8.071  0.00  0.00    +0.020 A 
ATOM     14  C   LIG    1       -4.219   5.736   8.129  0.00  0.00    +0.000 A 
ATOM     15  C   LIG    1       -5.119   5.183   9.021  0.00  0.00    +0.010 A 
ATOM     16  C   LIG    1       -4.723   4.151   9.852  0.00  0.00    +0.010 A 
ATOM     17  C   LIG    1       -3.428   3.673   9.790  0.00  0.00    +0.040 A 
ENDBRANCH  11  12
ENDBRANCH   8  11
ENDBRANCH   5   6
ENDBRANCH   3   5
BRANCH   2  18
ATOM     18  C   LIG    1       -0.729   1.579   1.267  0.00  0.00    +0.080 C 
BRANCH  18  19
ATOM     19  C   LIG    1       -0.013   1.086   0.008  0.00  0.00    +0.210 C 
BRANCH  19  20
ATOM     20  O   LIG    1       -0.704   1.559  -1.150  0.00  0.00    -0.310 OA
BRANCH  20  21
ATOM     21  C   LIG    1       -0.194   1.208  -2.359  0.00  0.00    +0.140 A 
ATOM     22  C   LIG    1        0.951   0.428  -2.430  0.00  0.00    -0.050 A 
ATOM     23  C   LIG    1        1.464   0.066  -3.661  0.00  0.00    +0.070 A 
ATOM     24  C   LIG    1        0.845   0.490  -4.822  0.00  0.00    +0.010 A 
ATOM     25  C   LIG    1       -0.294   1.274  -4.754  0.00  0.00    -0.050 A 
ATOM     26 BR   LIG    1       -1.139   1.852  -6.344  0.00  0.00    -0.040 Br
ATOM     27  C   LIG    1       -0.815   1.633  -3.525  0.00  0.00    +0.010 A 
ENDBRANCH  20  21
ENDBRANCH  19  20
ENDBRANCH  18  19
ENDBRANCH   2  18
TORSDOF 8
