REMARK  Name = ZINCqH0000033Lkb.0
REMARK                            x       y       z     vdW  Elec       q    Type
REMARK                         _______ _______ _______ _____ _____    ______ ____
ROOT
ATOM      1  N   LIG    1       -1.125  -0.810   0.008  0.00  0.00    -0.630 N 
ATOM      2  H   LIG    1       -2.008  -0.410   0.018  0.00  0.00    +0.430 HD
ATOM      3  C   LIG    1       -0.994  -2.152  -0.000  0.00  0.00    +0.510 C 
ATOM      4  O   LIG    1        0.110  -2.653  -0.013  0.00  0.00    -0.460 OA
ENDROOT
BRANCH   1  10
ATOM      5  C   LIG    1        3.995   2.625  -0.022  0.00  0.00    +0.150 A 
ATOM      6  C   LIG    1        4.473   1.319  -0.034  0.00  0.00    -0.040 A 
ATOM      7  C   LIG    1        3.603   0.258  -0.031  0.00  0.00    +0.120 A 
ATOM      8  C   LIG    1        2.209   0.475  -0.017  0.00  0.00    +0.070 A 
ATOM      9  N   LIG    1        1.214  -0.436  -0.012  0.00  0.00    -0.460 NA
ATOM     10  C   LIG    1        0.002  -0.004   0.002  0.00  0.00    +0.320 A 
ATOM     11  S   LIG    1       -0.022   1.754   0.012  0.00  0.00    +0.080 S 
ATOM     12  C   LIG    1        1.740   1.792  -0.005  0.00  0.00    -0.140 A 
ATOM     13  C   LIG    1        2.634   2.860  -0.008  0.00  0.00    +0.030 A 
BRANCH   5  14
ATOM     14  O   LIG    1        4.866   3.669  -0.025  0.00  0.00    -0.310 OA
BRANCH  14  16
ATOM     15  C   LIG    1        7.077   4.645  -0.042  0.00  0.00    +0.070 C 
ATOM     16  C   LIG    1        6.259   3.352  -0.040  0.00  0.00    +0.190 C 
ENDBRANCH  14  16
ENDBRANCH   5  14
ENDBRANCH   1  10
BRANCH   3  17
ATOM     17  C   LIG    1       -2.220  -3.029   0.006  0.00  0.00    +0.330 C 
BRANCH  17  18
ATOM     18  N   LIG    1       -1.813  -4.436  -0.005  0.00  0.00    -0.720 N 
ATOM     19  H   LIG    1       -0.872  -4.669  -0.015  0.00  0.00    +0.410 HD
ATOM     20  C   LIG    1       -2.748  -5.407  -0.002  0.00  0.00    +0.560 C 
ATOM     21  O   LIG    1       -3.928  -5.116   0.011  0.00  0.00    -0.510 OA
BRANCH  20  22
ATOM     22  C   LIG    1       -2.338  -6.827  -0.013  0.00  0.00    -0.130 A 
ATOM     23  C   LIG    1       -0.984  -7.166  -0.027  0.00  0.00    +0.070 A 
ATOM     24  C   LIG    1       -0.608  -8.493  -0.038  0.00  0.00    +0.020 A 
ATOM     25  C   LIG    1       -1.569  -9.489  -0.035  0.00  0.00    +0.060 A 
ATOM     26  C   LIG    1       -2.913  -9.161  -0.021  0.00  0.00    +0.020 A 
ATOM     27  C   LIG    1       -3.304  -7.837  -0.004  0.00  0.00    +0.020 A 
ATOM     28 CL   LIG    1       -4.990  -7.428   0.021  0.00  0.00    -0.030 Cl
ENDBRANCH  20  22
ENDBRANCH  17  18
ENDBRANCH   3  17
TORSDOF 6
