REMARK  Name = ZINCpk000000otuJ.0
REMARK                            x       y       z     vdW  Elec       q    Type
REMARK                         _______ _______ _______ _____ _____    ______ ____
ROOT
ATOM      1  C   LIG    1        1.271   1.977  -0.006  0.00  0.00    +0.010 C 
ATOM      2  C   LIG    1        1.399   2.868  -1.263  0.00  0.00    +0.100 C 
ATOM      3  C   LIG    1        2.157   2.010  -2.251  0.00  0.00    +0.520 C 
ATOM      4  N   LIG    1        2.744   0.981  -1.615  0.00  0.00    -0.550 N 
ATOM      5  O   LIG    1        2.224   2.218  -3.444  0.00  0.00    -0.500 OA
ATOM      6  C   LIG    1        2.474   1.022  -0.173  0.00  0.00    +0.320 C 
ENDROOT
BRANCH   4   7
ATOM      7  C   LIG    1        3.514  -0.003  -2.248  0.00  0.00    +0.180 A 
ATOM      8  C   LIG    1        3.613  -0.025  -3.632  0.00  0.00    +0.020 A 
ATOM      9  C   LIG    1        4.372  -0.995  -4.257  0.00  0.00    +0.070 A 
ATOM     10  C   LIG    1        5.037  -1.950  -3.505  0.00  0.00    +0.010 A 
ATOM     11  O   LIG    1        5.836  -2.995  -3.872  0.00  0.00    -0.310 OA
ATOM     12  C   LIG    1        5.893  -3.858  -2.720  0.00  0.00    +0.430 C 
ATOM     13  O   LIG    1        5.677  -2.964  -1.612  0.00  0.00    -0.310 OA
ATOM     14  C   LIG    1        4.940  -1.931  -2.115  0.00  0.00    +0.060 A 
ATOM     15  C   LIG    1        4.184  -0.955  -1.490  0.00  0.00    +0.000 A 
ENDBRANCH   4   7
BRANCH   1  18
ATOM     16  N   LIG    1       -1.201   1.879  -0.013  0.00  0.00    -0.720 N 
ATOM     17  H   LIG    1       -1.208   2.849  -0.001  0.00  0.00    +0.410 HD
ATOM     18  C   LIG    1       -0.028   1.214  -0.016  0.00  0.00    +0.520 C 
ATOM     19  O   LIG    1       -0.019   0.001  -0.032  0.00  0.00    -0.530 OA
BRANCH  16  20
ATOM     20  C   LIG    1       -2.464   1.137  -0.029  0.00  0.00    +0.240 C 
BRANCH  20  21
ATOM     21  C   LIG    1       -3.634   2.122  -0.022  0.00  0.00    +0.120 C 
ATOM     22  C   LIG    1       -3.497   3.068   1.173  0.00  0.00    +0.060 C 
BRANCH  21  23
ATOM     23  O   LIG    1       -3.626   2.880  -1.233  0.00  0.00    -0.550 OA
ATOM     24  H   LIG    1       -3.709   2.344  -2.033  0.00  0.00    +0.380 HD
ENDBRANCH  21  23
BRANCH  21  25
ATOM     25  C   LIG    1       -4.950   1.350   0.088  0.00  0.00    +0.010 C 
BRANCH  25  27
ATOM     26  C   LIG    1       -7.437   1.563   0.204  0.00  0.00    +0.000 C 
ATOM     27  C   LIG    1       -6.121   2.335   0.095  0.00  0.00    +0.020 C 
ENDBRANCH  25  27
ENDBRANCH  21  25
ENDBRANCH  20  21
ENDBRANCH  16  20
ENDBRANCH   1  18
TORSDOF 7
