REMARK  Name = ZINCvU0000000C4w.0
REMARK                            x       y       z     vdW  Elec       q    Type
REMARK                         _______ _______ _______ _____ _____    ______ ____
ROOT
ATOM      1  O   LIG    1       -2.695   3.804   0.046  0.00  0.00    -0.480 OA
ATOM      2  C   LIG    1       -2.864   5.008   0.054  0.00  0.00    +0.510 C 
ENDROOT
BRANCH   2   3
ATOM      3  C   LIG    1       -1.702   5.914   0.048  0.00  0.00    -0.160 A 
ATOM      4  C   LIG    1       -1.890   7.299   0.057  0.00  0.00    +0.130 A 
ATOM      5  C   LIG    1       -0.799   8.141   0.051  0.00  0.00    -0.030 A 
ATOM      6  C   LIG    1        0.485   7.621   0.036  0.00  0.00    +0.090 A 
ATOM      7  C   LIG    1        0.686   6.255   0.033  0.00  0.00    -0.080 A 
ATOM      8  C   LIG    1       -0.400   5.393   0.033  0.00  0.00    +0.200 A 
BRANCH   8   9
ATOM      9  O   LIG    1       -0.204   4.051   0.025  0.00  0.00    -0.280 OA
BRANCH   9  10
ATOM     10  C   LIG    1        1.150   3.593   0.010  0.00  0.00    +0.260 C 
BRANCH  10  11
ATOM     11  C   LIG    1        1.170   2.086   0.002  0.00  0.00    -0.090 A 
ATOM     12  C   LIG    1       -0.017   1.378   0.010  0.00  0.00    +0.070 A 
ATOM     13  C   LIG    1        0.002  -0.004   0.002  0.00  0.00    +0.020 A 
ATOM     14  C   LIG    1        1.208  -0.679  -0.013  0.00  0.00    +0.030 A 
ATOM     15  C   LIG    1        2.396   0.027  -0.020  0.00  0.00    +0.030 A 
ATOM     16  C   LIG    1        2.378   1.410  -0.013  0.00  0.00    -0.030 A 
ATOM     17 CL   LIG    1        3.870   2.298  -0.023  0.00  0.00    -0.070 Cl
ENDBRANCH  10  11
ENDBRANCH   9  10
ENDBRANCH   8   9
ENDBRANCH   2   3
BRANCH   2  18
ATOM     18  O   LIG    1       -4.113   5.513   0.068  0.00  0.00    -0.320 OA
BRANCH  18  19
ATOM     19  C   LIG    1       -5.209   4.561   0.073  0.00  0.00    +0.240 C 
BRANCH  19  20
ATOM     20  C   LIG    1       -5.575   4.224   1.496  0.00  0.00    -0.120 A 
ATOM     21  C   LIG    1       -5.587   5.215   2.460  0.00  0.00    +0.040 A 
ATOM     22  C   LIG    1       -5.926   4.907   3.764  0.00  0.00    +0.010 A 
ATOM     23  C   LIG    1       -6.247   3.606   4.105  0.00  0.00    +0.020 A 
ATOM     24  C   LIG    1       -6.231   2.615   3.143  0.00  0.00    +0.010 A 
ATOM     25  C   LIG    1       -5.894   2.924   1.838  0.00  0.00    +0.030 A 
ENDBRANCH  19  20
BRANCH  19  26
ATOM     26  C   LIG    1       -6.402   5.165  -0.623  0.00  0.00    +0.530 C 
ATOM     27  N   LIG    1       -7.543   4.458  -0.739  0.00  0.00    -0.690 N 
ATOM     28  H   LIG    1       -7.597   3.561  -0.375  0.00  0.00    +0.400 HD
ATOM     29  O   LIG    1       -6.334   6.287  -1.079  0.00  0.00    -0.510 OA
BRANCH  27  30
ATOM     30  C   LIG    1       -8.702   5.045  -1.416  0.00  0.00    +0.220 C 
ATOM     31  C   LIG    1      -10.073   4.855  -0.763  0.00  0.00    +0.010 C 
ATOM     32  C   LIG    1       -9.719   4.084  -2.037  0.00  0.00    +0.020 C 
ENDBRANCH  27  30
ENDBRANCH  19  26
ENDBRANCH  18  19
ENDBRANCH   2  18
TORSDOF 9
