REMARK  Name = ZINCrH00000No4OH.0
REMARK                            x       y       z     vdW  Elec       q    Type
REMARK                         _______ _______ _______ _____ _____    ______ ____
ROOT
ATOM      1  C   LIG    1        1.268  -0.339  -0.012  0.00  0.00    +0.180 A 
ATOM      2  N   LIG    1        0.002  -0.004   0.002  0.00  0.00    -0.450 NA
ATOM      3  C   LIG    1       -0.016   1.348   0.009  0.00  0.00    +0.210 A 
ATOM      4  N   LIG    1        1.228   1.751  -0.000  0.00  0.00    -0.360 NA
ATOM      5  O   LIG    1        1.975   0.796  -0.013  0.00  0.00    +0.100 OA
ENDROOT
BRANCH   3   6
ATOM      6  C   LIG    1       -1.222   2.213   0.020  0.00  0.00    +0.010 A 
ATOM      7  C   LIG    1       -2.493   1.641   0.018  0.00  0.00    +0.070 A 
ATOM      8  C   LIG    1       -3.611   2.449   0.032  0.00  0.00    +0.080 A 
ATOM      9  C   LIG    1       -3.473   3.826   0.039  0.00  0.00    -0.160 A 
ATOM     10  C   LIG    1       -2.214   4.399   0.036  0.00  0.00    +0.080 A 
ATOM     11  C   LIG    1       -1.089   3.599   0.027  0.00  0.00    +0.060 A 
BRANCH   9  12
ATOM     12  C   LIG    1       -4.697   4.704   0.049  0.00  0.00    +0.510 C 
ATOM     13  F   LIG    1       -4.408   5.900   0.714  0.00  0.00    -0.170 F 
ATOM     14  F   LIG    1       -5.739   4.043   0.709  0.00  0.00    -0.170 F 
ATOM     15  F   LIG    1       -5.082   4.983  -1.267  0.00  0.00    -0.170 F 
ENDBRANCH   9  12
ENDBRANCH   3   6
BRANCH   1  17
ATOM     16  C   LIG    1        2.346  -2.068  -1.425  0.00  0.00    +0.070 C 
ATOM     17  C   LIG    1        1.824  -1.739  -0.025  0.00  0.00    +0.390 C 
BRANCH  17  18
ATOM     18  N   LIG    1        2.921  -1.839   0.941  0.00  0.00    -1.120 NA
ATOM     19  H   LIG    1        3.511  -1.082   1.084  0.00  0.00    +0.430 HD
BRANCH  18  20
ATOM     20  S   LIG    1        3.154  -3.243   1.787  0.00  0.00    +2.700 S 
ATOM     21  O   LIG    1        1.885  -3.612   2.309  0.00  0.00    -0.950 OA
ATOM     22  O   LIG    1        4.299  -3.034   2.602  0.00  0.00    -0.940 OA
BRANCH  20  23
ATOM     23  C   LIG    1        3.594  -4.488   0.621  0.00  0.00    -0.680 A 
ATOM     24  C   LIG    1        2.611  -5.257   0.027  0.00  0.00    +0.120 A 
ATOM     25  C   LIG    1        2.955  -6.231  -0.891  0.00  0.00    +0.000 A 
ATOM     26  C   LIG    1        4.284  -6.443  -1.209  0.00  0.00    +0.070 A 
ATOM     27  C   LIG    1        5.268  -5.677  -0.611  0.00  0.00    -0.010 A 
ATOM     28  C   LIG    1        4.923  -4.700   0.304  0.00  0.00    +0.120 A 
ENDBRANCH  20  23
ENDBRANCH  18  20
ENDBRANCH  17  18
ENDBRANCH   1  17
TORSDOF 6
