REMARK  Name = ZINCrD00000fcgXa.0
REMARK                            x       y       z     vdW  Elec       q    Type
REMARK                         _______ _______ _______ _____ _____    ______ ____
ROOT
ATOM      1  N   LIG    1       -2.798   3.560  -1.325  0.00  0.00    -0.450 N 
ENDROOT
BRANCH   1   2
ATOM      2  C   LIG    1       -3.931   4.344  -1.176  0.00  0.00    +0.350 A 
ATOM      3  N   LIG    1       -3.993   5.525  -0.608  0.00  0.00    -0.310 NA
ATOM      4  N   LIG    1       -5.199   5.966  -0.647  0.00  0.00    -0.280 NA
ATOM      5  C   LIG    1       -5.974   5.096  -1.229  0.00  0.00    +0.180 A 
ATOM      6  N   LIG    1       -5.194   4.031  -1.587  0.00  0.00    -0.450 N 
BRANCH   5   7
ATOM      7  C   LIG    1       -7.456   5.236  -1.465  0.00  0.00    +0.170 C 
BRANCH   7   8
ATOM      8  C   LIG    1       -8.220   4.663  -0.269  0.00  0.00    +0.190 C 
BRANCH   8   9
ATOM      9  O   LIG    1       -9.625   4.796  -0.492  0.00  0.00    -0.570 OA
ATOM     10  H   LIG    1      -10.172   4.453   0.227  0.00  0.00    +0.390 HD
ENDBRANCH   8   9
ENDBRANCH   7   8
ENDBRANCH   5   7
BRANCH   6  11
ATOM     11  C   LIG    1       -5.625   2.809  -2.269  0.00  0.00    +0.340 C 
BRANCH  11  12
ATOM     12  C   LIG    1       -5.971   1.740  -1.231  0.00  0.00    -0.070 C 
ATOM     13  C   LIG    1       -5.123   0.466  -1.220  0.00  0.00    +0.040 C 
ATOM     14  C   LIG    1       -6.561   0.424  -1.742  0.00  0.00    +0.030 C 
ENDBRANCH  11  12
ENDBRANCH   6  11
ENDBRANCH   1   2
BRANCH   1  15
ATOM     15  C   LIG    1       -2.194   3.254  -0.022  0.00  0.00    +0.270 C 
BRANCH  15  21
ATOM     16  C   LIG    1        2.586   2.053  -0.892  0.00  0.00    +0.090 C 
ATOM     17  C   LIG    1        1.165   1.635  -0.614  0.00  0.00    -0.080 A 
ATOM     18  C   LIG    1        0.845   0.294  -0.522  0.00  0.00    +0.010 A 
ATOM     19  C   LIG    1       -0.459  -0.090  -0.266  0.00  0.00    +0.000 A 
ATOM     20  C   LIG    1       -1.443   0.868  -0.109  0.00  0.00    +0.020 A 
ATOM     21  C   LIG    1       -1.122   2.210  -0.198  0.00  0.00    -0.080 A 
ATOM     22  C   LIG    1        0.181   2.593  -0.453  0.00  0.00    +0.010 A 
ENDBRANCH  15  21
ENDBRANCH   1  15
BRANCH   1  23
ATOM     23  C   LIG    1       -1.826   4.204  -2.218  0.00  0.00    +0.340 C 
BRANCH  23  24
ATOM     24  C   LIG    1       -2.354   4.190  -3.630  0.00  0.00    -0.010 A 
ATOM     25  C   LIG    1       -3.038   5.184  -4.224  0.00  0.00    -0.050 A 
ATOM     26  C   LIG    1       -3.334   4.750  -5.537  0.00  0.00    -0.060 A 
ATOM     27  C   LIG    1       -2.814   3.516  -5.666  0.00  0.00    +0.160 A 
ATOM     28  O   LIG    1       -2.216   3.184  -4.510  0.00  0.00    -0.170 OA
ENDBRANCH  23  24
ENDBRANCH   1  23
TORSDOF 10
