REMARK  Name = ZINCrD000000Bl2J.0
REMARK                            x       y       z     vdW  Elec       q    Type
REMARK                         _______ _______ _______ _____ _____    ______ ____
ROOT
ATOM      1  O   LIG    1        0.021   3.388  -3.125  0.00  0.00    -0.580 OA
ATOM      2  C   LIG    1       -0.520   3.859  -2.144  0.00  0.00    +0.710 C 
ATOM      3  N   LIG    1       -0.893   3.055  -1.128  0.00  0.00    -0.630 N 
ATOM      4  C   LIG    1       -0.759   1.594  -1.234  0.00  0.00    +0.320 C 
ATOM      5  C   LIG    1       -0.015   1.082   0.004  0.00  0.00    +0.220 C 
ATOM      6  N   LIG    1       -0.699   1.557   1.214  0.00  0.00    -0.430 N 
ATOM      7  C   LIG    1       -0.674   3.023   1.299  0.00  0.00    +0.210 C 
ATOM      8  C   LIG    1       -1.445   3.615   0.114  0.00  0.00    +0.300 C 
ATOM      9  N   LIG    1       -0.747   5.185  -2.071  0.00  0.00    -0.740 N 
ATOM     10  H   LIG    1       -1.112   5.571  -1.260  0.00  0.00    +0.400 HD
ENDROOT
BRANCH   6  11
ATOM     11  C   LIG    1       -0.152   0.983   2.352  0.00  0.00    +0.230 A 
ATOM     12  N   LIG    1        0.835   0.134   2.386  0.00  0.00    -0.300 NA
ATOM     13  N   LIG    1        1.206  -0.287   3.515  0.00  0.00    -0.170 NA
ATOM     14  C   LIG    1        0.582   0.151   4.560  0.00  0.00    -0.120 A 
ATOM     15  S   LIG    1       -0.663   1.277   4.016  0.00  0.00    +0.180 S 
BRANCH  14  16
ATOM     16  C   LIG    1        0.872  -0.228   5.990  0.00  0.00    +0.570 C 
ATOM     17  F   LIG    1       -0.225  -0.914   6.521  0.00  0.00    -0.160 F 
ATOM     18  F   LIG    1        1.106   0.929   6.741  0.00  0.00    -0.160 F 
ATOM     19  F   LIG    1        2.003  -1.050   6.035  0.00  0.00    -0.150 F 
ENDBRANCH  14  16
ENDBRANCH   6  11
BRANCH   9  20
ATOM     20  C   LIG    1       -0.442   6.045  -3.218  0.00  0.00    +0.360 C 
BRANCH  20  21
ATOM     21  C   LIG    1       -0.784   7.473  -2.880  0.00  0.00    -0.140 A 
ATOM     22  C   LIG    1        0.168   8.296  -2.305  0.00  0.00    +0.130 A 
ATOM     23  C   LIG    1       -0.148   9.608  -1.995  0.00  0.00    +0.000 A 
ATOM     24  C   LIG    1       -1.414  10.095  -2.261  0.00  0.00    +0.080 A 
ATOM     25  C   LIG    1       -2.365   9.273  -2.836  0.00  0.00    +0.030 A 
ATOM     26  F   LIG    1        1.405   7.819  -2.045  0.00  0.00    -0.120 F 
ATOM     27  C   LIG    1       -2.049   7.963  -3.151  0.00  0.00    +0.010 A 
ATOM     28 CL   LIG    1       -3.242   6.934  -3.880  0.00  0.00    -0.040 Cl
ENDBRANCH  20  21
ENDBRANCH   9  20
TORSDOF 4
