REMARK  Name = ZINCrD000000CmSe.0
REMARK                            x       y       z     vdW  Elec       q    Type
REMARK                         _______ _______ _______ _____ _____    ______ ____
ROOT
ATOM      1  N   LIG    1       -6.320   1.167  -1.028  0.00  0.00    -0.380 N 
ATOM      2  C   LIG    1       -7.018  -0.126  -1.189  0.00  0.00    +0.280 C 
ATOM      3  C   LIG    1       -6.098  -0.961  -2.114  0.00  0.00    +0.080 C 
ATOM      4  C   LIG    1       -4.689  -0.534  -1.622  0.00  0.00    +0.080 C 
ATOM      5  C   LIG    1       -4.881   0.957  -1.272  0.00  0.00    +0.230 C 
ATOM      6  H   LIG    1       -6.683   1.834  -1.693  0.00  0.00    +0.420 HD
ENDROOT
BRANCH   5   7
ATOM      7  C   LIG    1       -4.096   1.297  -0.031  0.00  0.00    -0.130 A 
ATOM      8  C   LIG    1       -3.832   0.318   0.908  0.00  0.00    +0.050 A 
ATOM      9  C   LIG    1       -3.113   0.626   2.048  0.00  0.00    +0.050 A 
ATOM     10  C   LIG    1       -2.655   1.914   2.252  0.00  0.00    +0.060 A 
ATOM     11  C   LIG    1       -2.919   2.902   1.314  0.00  0.00    +0.060 A 
ATOM     12  O   LIG    1       -2.467   4.168   1.533  0.00  0.00    -0.300 OA
ATOM     13  C   LIG    1       -2.429   5.041   0.399  0.00  0.00    +0.230 C 
ATOM     14  C   LIG    1       -3.759   4.908  -0.356  0.00  0.00    +0.230 C 
ATOM     15  O   LIG    1       -3.906   3.544  -0.767  0.00  0.00    -0.310 OA
ATOM     16  C   LIG    1       -3.640   2.591   0.168  0.00  0.00    +0.060 A 
ENDBRANCH   5   7
BRANCH   1  17
ATOM     17  C   LIG    1       -6.522   1.672   0.336  0.00  0.00    +0.280 C 
BRANCH  17  18
ATOM     18  C   LIG    1       -7.995   2.034   0.533  0.00  0.00    +0.210 C 
BRANCH  18  19
ATOM     19  O   LIG    1       -8.792   0.851   0.446  0.00  0.00    -0.330 OA
BRANCH  19  24
ATOM     20  C   LIG    1      -12.344   0.050   0.684  0.00  0.00    -0.090 A 
ATOM     21  C   LIG    1      -12.875   1.322   0.915  0.00  0.00    +0.020 A 
ATOM     22  C   LIG    1      -12.037   2.416   0.986  0.00  0.00    +0.020 A 
ATOM     23  C   LIG    1      -10.672   2.259   0.830  0.00  0.00    -0.090 A 
ATOM     24  C   LIG    1      -10.135   0.999   0.599  0.00  0.00    +0.090 A 
ATOM     25  C   LIG    1      -10.965  -0.105   0.521  0.00  0.00    +0.030 A 
BRANCH  20  27
ATOM     26  O   LIG    1      -14.443  -0.982   0.746  0.00  0.00    -0.670 OA
ATOM     27  C   LIG    1      -13.236  -1.122   0.608  0.00  0.00    +0.520 C 
ATOM     28  O   LIG    1      -12.768  -2.234   0.406  0.00  0.00    -0.680 OA
ENDBRANCH  20  27
ENDBRANCH  19  24
ENDBRANCH  18  19
ENDBRANCH  17  18
ENDBRANCH   1  17
TORSDOF 6
