REMARK  Name = ZINCrD000000CmSe.1
REMARK                            x       y       z     vdW  Elec       q    Type
REMARK                         _______ _______ _______ _____ _____    ______ ____
ROOT
ATOM      1  N   LIG    1        1.418   1.446   0.103  0.00  0.00    -0.390 N 
ATOM      2  C   LIG    1        1.908   1.781  -1.247  0.00  0.00    +0.240 C 
ATOM      3  C   LIG    1        0.714   1.643  -2.214  0.00  0.00    +0.070 C 
ATOM      4  C   LIG    1       -0.514   1.790  -1.278  0.00  0.00    +0.090 C 
ATOM      5  C   LIG    1       -0.013   1.086   0.008  0.00  0.00    +0.240 C 
ATOM      6  H   LIG    1        1.528   2.244   0.711  0.00  0.00    +0.430 HD
ENDROOT
BRANCH   5   7
ATOM      7  C   LIG    1       -0.762   1.593   1.213  0.00  0.00    -0.130 A 
ATOM      8  C   LIG    1       -0.322   2.723   1.875  0.00  0.00    +0.010 A 
ATOM      9  C   LIG    1       -1.007   3.190   2.981  0.00  0.00    +0.060 A 
ATOM     10  C   LIG    1       -2.135   2.529   3.429  0.00  0.00    +0.060 A 
ATOM     11  C   LIG    1       -2.582   1.393   2.769  0.00  0.00    +0.070 A 
ATOM     12  O   LIG    1       -3.692   0.750   3.224  0.00  0.00    -0.300 OA
ATOM     13  C   LIG    1       -4.324  -0.162   2.319  0.00  0.00    +0.230 C 
ATOM     14  C   LIG    1       -3.236  -1.038   1.682  0.00  0.00    +0.230 C 
ATOM     15  O   LIG    1       -2.321  -0.182   0.989  0.00  0.00    -0.310 OA
ATOM     16  C   LIG    1       -1.897   0.928   1.653  0.00  0.00    +0.080 A 
ENDBRANCH   5   7
BRANCH   1  17
ATOM     17  C   LIG    1        2.180   0.309   0.634  0.00  0.00    +0.290 C 
BRANCH  17  18
ATOM     18  C   LIG    1        3.637   0.726   0.848  0.00  0.00    +0.210 C 
BRANCH  18  19
ATOM     19  O   LIG    1        3.701   1.731   1.862  0.00  0.00    -0.330 OA
BRANCH  19  24
ATOM     20  C   LIG    1        6.332   3.683   3.467  0.00  0.00    -0.090 A 
ATOM     21  C   LIG    1        7.456   3.188   2.801  0.00  0.00    +0.020 A 
ATOM     22  C   LIG    1        7.311   2.216   1.832  0.00  0.00    +0.020 A 
ATOM     23  C   LIG    1        6.056   1.725   1.522  0.00  0.00    -0.090 A 
ATOM     24  C   LIG    1        4.932   2.214   2.175  0.00  0.00    +0.090 A 
ATOM     25  C   LIG    1        5.065   3.189   3.148  0.00  0.00    +0.030 A 
BRANCH  20  27
ATOM     26  O   LIG    1        5.498   5.154   5.085  0.00  0.00    -0.680 OA
ATOM     27  C   LIG    1        6.483   4.722   4.503  0.00  0.00    +0.520 C 
ATOM     28  O   LIG    1        7.594   5.152   4.781  0.00  0.00    -0.670 OA
ENDBRANCH  20  27
ENDBRANCH  19  24
ENDBRANCH  18  19
ENDBRANCH  17  18
ENDBRANCH   1  17
TORSDOF 6
