REMARK  Name = ZINCpe000027pH0n.0
REMARK                            x       y       z     vdW  Elec       q    Type
REMARK                         _______ _______ _______ _____ _____    ______ ____
ROOT
ATOM      1  C   LIG    1       -1.612   6.273   2.479  0.00  0.00    +0.610 C 
ATOM      2  N   LIG    1       -1.899   6.156   3.791  0.00  0.00    -0.600 N 
ATOM      3  C   LIG    1       -1.815   4.851   4.462  0.00  0.00    +0.290 C 
ATOM      4  C   LIG    1       -3.141   4.568   5.166  0.00  0.00    +0.030 C 
ATOM      5  C   LIG    1       -3.481   5.734   6.097  0.00  0.00    +0.250 C 
ATOM      6  C   LIG    1       -3.632   7.017   5.277  0.00  0.00    +0.170 C 
ATOM      7  C   LIG    1       -2.306   7.329   4.575  0.00  0.00    +0.250 C 
ATOM      8  O   LIG    1       -1.608   7.369   1.953  0.00  0.00    -0.530 OA
ENDROOT
BRANCH   1  16
ATOM      9  C   LIG    1        0.225   1.303   2.495  0.00  0.00    +0.060 C 
ATOM     10  C   LIG    1       -0.661   1.589   1.281  0.00  0.00    +0.250 C 
ATOM     11  C   LIG    1        0.039   1.102   0.009  0.00  0.00    +0.050 C 
ATOM     12  C   LIG    1       -0.735   1.586  -1.221  0.00  0.00    +0.020 C 
ATOM     13  C   LIG    1       -0.576   3.107  -1.345  0.00  0.00    +0.130 C 
ATOM     14  C   LIG    1       -0.856   3.722   0.003  0.00  0.00    +0.020 A 
ATOM     15  C   LIG    1       -1.111   5.015   0.278  0.00  0.00    -0.010 A 
ATOM     16  C   LIG    1       -1.304   5.069   1.680  0.00  0.00    -0.010 A 
ATOM     17  N   LIG    1       -1.156   3.841   2.137  0.00  0.00    -0.260 NA
ATOM     18  N   LIG    1       -0.893   3.037   1.171  0.00  0.00    -0.280 N 
ENDBRANCH   1  16
BRANCH   5  19
ATOM     19  N   LIG    1       -2.405   5.905   7.077  0.00  0.00    -0.710 N 
ATOM     20  H   LIG    1       -1.697   6.547   6.913  0.00  0.00    +0.400 HD
ATOM     21  C   LIG    1       -2.401   5.171   8.207  0.00  0.00    +0.550 C 
ATOM     22  O   LIG    1       -3.286   4.368   8.413  0.00  0.00    -0.540 OA
BRANCH  21  23
ATOM     23  C   LIG    1       -1.294   5.347   9.216  0.00  0.00    -0.080 C 
ATOM     24  C   LIG    1       -0.307   4.191   9.390  0.00  0.00    +0.050 C 
ATOM     25  C   LIG    1       -1.344   4.482  10.477  0.00  0.00    +0.060 C 
ENDBRANCH  21  23
ENDBRANCH   5  19
BRANCH   6  26
ATOM     26  O   LIG    1       -3.979   8.099   6.143  0.00  0.00    -0.550 OA
ATOM     27  H   LIG    1       -4.089   8.946   5.690  0.00  0.00    +0.380 HD
ENDBRANCH   6  26
TORSDOF 4
