REMARK  Name = ZINCkj000005lmXY.0
REMARK                            x       y       z     vdW  Elec       q    Type
REMARK                         _______ _______ _______ _____ _____    ______ ____
ROOT
ATOM      1  C   LIG    1        0.840   2.778  -3.806  0.00  0.00    -0.030 C 
ATOM      2  C   LIG    1       -0.058   1.551  -3.494  0.00  0.00    +0.270 C 
ATOM      3  N   LIG    1        0.886   0.431  -3.312  0.00  0.00    -1.000 NA
ATOM      4  C   LIG    1        2.118   0.744  -4.037  0.00  0.00    +0.160 C 
ATOM      5  C   LIG    1        2.611  -0.346  -4.994  0.00  0.00    +0.030 C 
ATOM      6  C   LIG    1        4.037   0.027  -4.551  0.00  0.00    +0.040 C 
ATOM      7  C   LIG    1        3.414   0.548  -3.244  0.00  0.00    +0.010 C 
ATOM      8  C   LIG    1        1.956   2.134  -4.673  0.00  0.00    +0.100 C 
ENDROOT
BRANCH   3   9
ATOM      9  S   LIG    1        0.597  -0.947  -2.441  0.00  0.00    +2.790 S 
ATOM     10  O   LIG    1       -0.796  -1.205  -2.548  0.00  0.00    -0.970 OA
ATOM     11  O   LIG    1        1.592  -1.884  -2.831  0.00  0.00    -0.960 OA
BRANCH   9  12
ATOM     12  N   LIG    1        0.886  -0.592  -0.850  0.00  0.00    -0.990 NA
ATOM     13  C   LIG    1       -0.188  -0.201   0.016  0.00  0.00    +0.280 C 
ATOM     14  C   LIG    1       -0.509   1.314   0.062  0.00  0.00    -0.010 C 
ATOM     15  C   LIG    1        0.802   2.137   0.082  0.00  0.00    +0.000 C 
ATOM     16  C   LIG    1        1.838   1.469   0.940  0.00  0.00    +0.030 C 
ATOM     17  C   LIG    1        2.727   0.693  -0.026  0.00  0.00    -0.010 C 
ATOM     18  C   LIG    1        2.278  -0.673  -0.291  0.00  0.00    +0.310 C 
ENDBRANCH   9  12
ENDBRANCH   3   9
BRANCH   1  19
ATOM     19  C   LIG    1        0.067   3.831  -4.603  0.00  0.00    +0.280 C 
BRANCH  19  20
ATOM     20  N   LIG    1       -0.898   4.502  -3.721  0.00  0.00    -0.640 N 
ATOM     21  H   LIG    1       -1.543   3.821  -3.349  0.00  0.00    +0.430 HD
ATOM     22  H   LIG    1       -1.408   5.196  -4.247  0.00  0.00    +0.440 HD
ATOM     23  H   LIG    1       -0.406   4.948  -2.962  0.00  0.00    +0.440 HD
ENDBRANCH  19  20
ENDBRANCH   1  19
TORSDOF 4
