REMARK  Name = ZINCnE00000rhmoT.1
REMARK                            x       y       z     vdW  Elec       q    Type
REMARK                         _______ _______ _______ _____ _____    ______ ____
ROOT
ATOM      1  C   LIG    1       -0.081   6.138   0.035  0.00  0.00    +0.120 A 
ATOM      2  C   LIG    1        1.039   6.873  -0.065  0.00  0.00    -0.080 A 
ATOM      3  S   LIG    1        0.590   8.576  -0.021  0.00  0.00    +0.050 S 
ATOM      4  C   LIG    1       -1.105   8.128   0.142  0.00  0.00    +0.290 A 
ATOM      5  N   LIG    1       -1.211   6.835   0.148  0.00  0.00    -0.490 NA
ENDROOT
BRANCH   1  10
ATOM      6 BR   LIG    1        0.002  -0.004   0.002  0.00  0.00    -0.050 Br
ATOM      7  C   LIG    1       -0.024   1.887   0.012  0.00  0.00    -0.090 A 
ATOM      8  C   LIG    1       -1.233   2.560   0.022  0.00  0.00    +0.050 A 
ATOM      9  C   LIG    1       -1.257   3.940   0.035  0.00  0.00    +0.060 A 
ATOM     10  C   LIG    1       -0.061   4.655   0.028  0.00  0.00    +0.000 A 
ATOM     11  C   LIG    1        1.154   3.972   0.012  0.00  0.00    +0.030 A 
ATOM     12  C   LIG    1        1.167   2.593   0.005  0.00  0.00    +0.050 A 
ENDBRANCH   1  10
BRANCH   4  13
ATOM     13  N   LIG    1       -2.161   9.018   0.249  0.00  0.00    -0.430 N 
ATOM     14  C   LIG    1       -2.945   8.761   1.464  0.00  0.00    +0.210 C 
ATOM     15  C   LIG    1       -4.182   9.663   1.475  0.00  0.00    +0.040 C 
ATOM     16  C   LIG    1       -3.739  11.128   1.431  0.00  0.00    +0.100 C 
ATOM     17  C   LIG    1       -2.884  11.358   0.181  0.00  0.00    +0.060 C 
ATOM     18  C   LIG    1       -1.685  10.407   0.208  0.00  0.00    +0.200 C 
BRANCH  16  19
ATOM     19  C   LIG    1       -4.954  12.020   1.381  0.00  0.00    +0.060 A 
ATOM     20  N   LIG    1       -5.887  12.025   0.446  0.00  0.00    -0.380 NA
ATOM     21  N   LIG    1       -6.753  12.925   0.764  0.00  0.00    -0.200 NA
ATOM     22  N   LIG    1       -6.386  13.488   1.863  0.00  0.00    -0.200 NA
ATOM     23  N   LIG    1       -5.284  12.948   2.260  0.00  0.00    -0.390 NA
ENDBRANCH  16  19
ENDBRANCH   4  13
TORSDOF 3
