REMARK  Name = ZINCrH000004keSq.0
REMARK                            x       y       z     vdW  Elec       q    Type
REMARK                         _______ _______ _______ _____ _____    ______ ____
ROOT
ATOM      1  N   LIG    1       -0.011   0.966   0.007  0.00  0.00    -0.670 N 
ATOM      2  H   LIG    1        0.043  -0.003   0.007  0.00  0.00    +0.420 HD
ATOM      3  C   LIG    1       -1.214   1.573   0.018  0.00  0.00    +0.520 C 
ATOM      4  O   LIG    1       -1.284   2.781  -0.066  0.00  0.00    -0.480 OA
ENDROOT
BRANCH   1   8
ATOM      5  C   LIG    1        3.474   3.247  -0.041  0.00  0.00    -0.150 A 
ATOM      6  C   LIG    1        3.438   2.038   0.660  0.00  0.00    +0.100 A 
ATOM      7  C   LIG    1        2.284   1.287   0.674  0.00  0.00    -0.010 A 
ATOM      8  C   LIG    1        1.156   1.729  -0.009  0.00  0.00    +0.170 A 
ATOM      9  C   LIG    1        1.190   2.929  -0.713  0.00  0.00    +0.020 A 
ATOM     10  C   LIG    1        2.339   3.688  -0.726  0.00  0.00    +0.060 A 
BRANCH   5  14
ATOM     11  C   LIG    1        5.969   6.022  -0.752  0.00  0.00    +0.290 C 
ATOM     12  N   LIG    1        4.743   5.220  -0.735  0.00  0.00    -0.730 N 
ATOM     13  H   LIG    1        3.955   5.527  -1.211  0.00  0.00    +0.400 HD
ATOM     14  C   LIG    1        4.709   4.055  -0.058  0.00  0.00    +0.560 C 
ATOM     15  O   LIG    1        5.696   3.669   0.538  0.00  0.00    -0.540 OA
ENDBRANCH   5  14
ENDBRANCH   1   8
BRANCH   3  16
ATOM     16  C   LIG    1       -2.472   0.752   0.134  0.00  0.00    +0.240 C 
BRANCH  16  17
ATOM     17  O   LIG    1       -3.609   1.618   0.123  0.00  0.00    -0.280 OA
BRANCH  17  18
ATOM     18  C   LIG    1       -4.831   1.032   0.220  0.00  0.00    +0.140 A 
ATOM     19  C   LIG    1       -4.936  -0.345   0.318  0.00  0.00    -0.080 A 
ATOM     20  C   LIG    1       -6.179  -0.940   0.424  0.00  0.00    +0.050 A 
ATOM     21  C   LIG    1       -7.326  -0.165   0.419  0.00  0.00    -0.020 A 
ATOM     22  C   LIG    1       -7.236   1.209   0.316  0.00  0.00    +0.060 A 
ATOM     23  C   LIG    1       -5.988   1.818   0.216  0.00  0.00    -0.070 A 
BRANCH  23  24
ATOM     24  C   LIG    1       -5.886   3.294   0.104  0.00  0.00    -0.040 A 
ATOM     25  C   LIG    1       -5.028   4.001   0.945  0.00  0.00    +0.040 A 
ATOM     26  C   LIG    1       -4.934   5.373   0.834  0.00  0.00    +0.000 A 
ATOM     27  C   LIG    1       -5.696   6.048  -0.103  0.00  0.00    +0.000 A 
ATOM     28  C   LIG    1       -6.553   5.352  -0.936  0.00  0.00    +0.000 A 
ATOM     29  C   LIG    1       -6.652   3.978  -0.837  0.00  0.00    +0.010 A 
ENDBRANCH  23  24
ENDBRANCH  17  18
ENDBRANCH  16  17
ENDBRANCH   3  16
TORSDOF 6
