REMARK  Name = ZINCrH000004pDbz.0
REMARK                            x       y       z     vdW  Elec       q    Type
REMARK                         _______ _______ _______ _____ _____    ______ ____
ROOT
ATOM      1  C   LIG    1       -1.154   3.310  -0.167  0.00  0.00    +0.070 C 
ATOM      2  C   LIG    1       -2.560   3.873   0.048  0.00  0.00    +0.240 C 
ENDROOT
BRANCH   2   3
ATOM      3  C   LIG    1       -2.637   4.530   1.402  0.00  0.00    +0.420 A 
ATOM      4  N   LIG    1       -3.587   4.160   2.215  0.00  0.00    -0.590 NA
ATOM      5  C   LIG    1       -3.724   4.705   3.439  0.00  0.00    +0.530 A 
ATOM      6  C   LIG    1       -2.756   5.737   3.851  0.00  0.00    -0.210 A 
ATOM      7  C   LIG    1       -2.817   6.352   5.099  0.00  0.00    +0.110 A 
ATOM      8  C   LIG    1       -1.882   7.310   5.429  0.00  0.00    -0.010 A 
ATOM      9  C   LIG    1       -0.888   7.662   4.528  0.00  0.00    +0.080 A 
ATOM     10  C   LIG    1       -0.815   7.062   3.288  0.00  0.00    -0.020 A 
ATOM     11  C   LIG    1       -1.747   6.094   2.938  0.00  0.00    +0.170 A 
ATOM     12  O   LIG    1       -4.621   4.353   4.186  0.00  0.00    -0.480 OA
ATOM     13  N   LIG    1       -1.719   5.463   1.710  0.00  0.00    -0.620 N 
ATOM     14  H   LIG    1       -1.032   5.694   1.066  0.00  0.00    +0.420 HD
ENDBRANCH   2   3
BRANCH   2  15
ATOM     15  N   LIG    1       -3.541   2.781  -0.023  0.00  0.00    -0.500 NA
ATOM     16  C   LIG    1       -3.300   1.789   1.032  0.00  0.00    +0.180 C 
ATOM     17  C   LIG    1       -4.243   0.599   0.840  0.00  0.00    +0.040 C 
ATOM     18  C   LIG    1       -5.693   1.089   0.895  0.00  0.00    +0.000 C 
ATOM     19  C   LIG    1       -5.904   2.157  -0.182  0.00  0.00    +0.040 C 
ATOM     20  C   LIG    1       -4.912   3.301   0.040  0.00  0.00    +0.190 C 
BRANCH  18  21
ATOM     21  C   LIG    1       -6.640  -0.086   0.642  0.00  0.00    +0.190 C 
BRANCH  21  22
ATOM     22  O   LIG    1       -6.526  -1.028   1.711  0.00  0.00    -0.310 OA
BRANCH  22  23
ATOM     23  C   LIG    1       -7.305  -2.139   1.640  0.00  0.00    +0.130 A 
ATOM     24  C   LIG    1       -8.167  -2.316   0.567  0.00  0.00    -0.080 A 
ATOM     25  C   LIG    1       -8.955  -3.448   0.495  0.00  0.00    +0.040 A 
ATOM     26  C   LIG    1       -8.893  -4.400   1.496  0.00  0.00    -0.040 A 
ATOM     27  C   LIG    1       -8.039  -4.223   2.570  0.00  0.00    +0.050 A 
ATOM     28  C   LIG    1       -7.245  -3.095   2.644  0.00  0.00    -0.020 A 
ENDBRANCH  22  23
ENDBRANCH  21  22
ENDBRANCH  18  21
ENDBRANCH   2  15
TORSDOF 5
