REMARK  Name = ZINCrH000004vBYN.0
REMARK                            x       y       z     vdW  Elec       q    Type
REMARK                         _______ _______ _______ _____ _____    ______ ____
ROOT
ATOM      1  O   LIG    1        0.152   0.313  -0.793  0.00  0.00    -0.510 OA
ATOM      2  C   LIG    1       -0.014   1.211   0.009  0.00  0.00    +0.560 C 
ATOM      3  N   LIG    1        0.992   1.581   0.826  0.00  0.00    -0.610 N 
ATOM      4  C   LIG    1        0.851   2.739   1.721  0.00  0.00    +0.280 C 
ATOM      5  C   LIG    1        1.241   2.300   3.142  0.00  0.00    +0.170 C 
ATOM      6  N   LIG    1        2.580   1.697   3.112  0.00  0.00    -0.530 NA
ATOM      7  C   LIG    1        2.598   0.479   2.292  0.00  0.00    +0.170 C 
ATOM      8  C   LIG    1        2.263   0.840   0.841  0.00  0.00    +0.300 C 
ENDROOT
BRANCH   2   9
ATOM      9  C   LIG    1       -1.318   1.903   0.083  0.00  0.00    -0.110 A 
ATOM     10  C   LIG    1       -1.379   3.295  -0.004  0.00  0.00    +0.070 A 
ATOM     11  C   LIG    1       -2.599   3.935   0.061  0.00  0.00    +0.050 A 
ATOM     12  C   LIG    1       -3.762   3.202   0.223  0.00  0.00    +0.070 A 
ATOM     13  C   LIG    1       -3.710   1.822   0.316  0.00  0.00    -0.040 A 
ATOM     14 CL   LIG    1       -5.174   0.912   0.519  0.00  0.00    -0.040 Cl
ATOM     15  C   LIG    1       -2.494   1.168   0.247  0.00  0.00    +0.010 A 
ATOM     16 CL   LIG    1       -2.430  -0.563   0.362  0.00  0.00    -0.020 Cl
ENDBRANCH   2   9
BRANCH   6  17
ATOM     17  C   LIG    1        3.064   1.423   4.472  0.00  0.00    +0.170 C 
BRANCH  17  18
ATOM     18  C   LIG    1        2.799   2.639   5.362  0.00  0.00    +0.260 C 
BRANCH  18  19
ATOM     19  C   LIG    1        3.295   2.358   6.757  0.00  0.00    -0.100 A 
ATOM     20  C   LIG    1        4.623   2.574   7.074  0.00  0.00    +0.050 A 
ATOM     21  C   LIG    1        5.079   2.322   8.355  0.00  0.00    +0.030 A 
ATOM     22  C   LIG    1        4.209   1.843   9.318  0.00  0.00    +0.070 A 
ATOM     23  C   LIG    1        2.878   1.621   8.998  0.00  0.00    +0.070 A 
ATOM     24  F   LIG    1        2.026   1.153   9.937  0.00  0.00    -0.120 F 
ATOM     25  F   LIG    1        4.655   1.592  10.568  0.00  0.00    -0.130 F 
ATOM     26  C   LIG    1        2.423   1.879   7.717  0.00  0.00    +0.030 A 
ENDBRANCH  18  19
BRANCH  18  27
ATOM     27  O   LIG    1        3.485   3.776   4.833  0.00  0.00    -0.540 OA
ATOM     28  H   LIG    1        4.444   3.666   4.778  0.00  0.00    +0.380 HD
ENDBRANCH  18  27
ENDBRANCH  17  18
ENDBRANCH   6  17
TORSDOF 5
