REMARK  Name = ZINCpe00000gMLee.0
REMARK                            x       y       z     vdW  Elec       q    Type
REMARK                         _______ _______ _______ _____ _____    ______ ____
ROOT
ATOM      1  C   LIG    1       -1.401   1.030  -0.123  0.00  0.00    +0.080 C 
ATOM      2  C   LIG    1       -1.677   1.387   1.339  0.00  0.00    +0.190 C 
ENDROOT
BRANCH   2   3
ATOM      3  C   LIG    1       -0.731   0.624   2.229  0.00  0.00    +0.520 C 
ATOM      4  N   LIG    1       -0.800  -0.720   2.292  0.00  0.00    -0.670 N 
ATOM      5  H   LIG    1       -1.504  -1.192   1.820  0.00  0.00    +0.420 HD
ATOM      6  O   LIG    1        0.094   1.220   2.889  0.00  0.00    -0.490 OA
BRANCH   4   7
ATOM      7  C   LIG    1        0.142  -1.436   3.039  0.00  0.00    +0.150 A 
ATOM      8  C   LIG    1       -0.221  -2.625   3.660  0.00  0.00    +0.030 A 
ATOM      9  C   LIG    1        0.706  -3.336   4.399  0.00  0.00    +0.040 A 
ATOM     10  C   LIG    1        1.999  -2.869   4.526  0.00  0.00    +0.060 A 
ATOM     11  C   LIG    1        2.374  -1.675   3.906  0.00  0.00    -0.010 A 
ATOM     12  C   LIG    1        1.439  -0.961   3.156  0.00  0.00    +0.070 A 
BRANCH  11  13
ATOM     13  C   LIG    1        3.714  -1.189   4.035  0.00  0.00    +0.250 C 
ATOM     14  N   LIG    1        4.778  -0.803   4.138  0.00  0.00    -0.410 NA
ENDBRANCH  11  13
ENDBRANCH   4   7
ENDBRANCH   2   3
BRANCH   2  15
ATOM     15  O   LIG    1       -1.483   2.813   1.534  0.00  0.00    -0.320 OA
BRANCH  15  16
ATOM     16  C   LIG    1       -2.551   3.604   1.351  0.00  0.00    +0.460 C 
ATOM     17  O   LIG    1       -3.614   3.122   1.039  0.00  0.00    -0.490 OA
BRANCH  16  18
ATOM     18  C   LIG    1       -2.426   5.094   1.537  0.00  0.00    +0.290 C 
ATOM     19  C   LIG    1       -2.615   5.456   3.025  0.00  0.00    +0.060 C 
ATOM     20  C   LIG    1       -3.424   6.779   2.960  0.00  0.00    +0.040 C 
ATOM     21  C   LIG    1       -4.330   6.530   1.729  0.00  0.00    +0.280 C 
ATOM     22  N   LIG    1       -3.481   5.783   0.779  0.00  0.00    -1.000 NA
BRANCH  22  23
ATOM     23  S   LIG    1       -3.681   5.729  -0.864  0.00  0.00    +2.620 S 
ATOM     24  O   LIG    1       -5.085   5.839  -1.050  0.00  0.00    -0.940 OA
ATOM     25  O   LIG    1       -2.978   4.560  -1.265  0.00  0.00    -0.940 OA
ATOM     26  C   LIG    1       -2.839   7.217  -1.472  0.00  0.00    -0.280 C 
ENDBRANCH  22  23
ENDBRANCH  16  18
ENDBRANCH  15  16
ENDBRANCH   2  15
TORSDOF 7
