REMARK  Name = ZINCrD000000fokD.0
REMARK                            x       y       z     vdW  Elec       q    Type
REMARK                         _______ _______ _______ _____ _____    ______ ____
ROOT
ATOM      1  C   LIG    1        1.050   1.938  -0.116  0.00  0.00    -0.680 A 
ATOM      2  C   LIG    1        0.019   1.312  -0.794  0.00  0.00    +0.150 A 
ATOM      3  C   LIG    1        0.184   0.031  -1.288  0.00  0.00    +0.000 A 
ATOM      4  C   LIG    1        1.381  -0.632  -1.108  0.00  0.00    +0.100 A 
ATOM      5  C   LIG    1        2.425  -0.007  -0.425  0.00  0.00    -0.150 A 
ATOM      6  C   LIG    1        2.251   1.286   0.072  0.00  0.00    +0.180 A 
ENDROOT
BRANCH   5   7
ATOM      7  C   LIG    1        3.710  -0.711  -0.228  0.00  0.00    +0.560 C 
ATOM      8  N   LIG    1        3.720  -2.029   0.055  0.00  0.00    -0.600 N 
ATOM      9  C   LIG    1        2.466  -2.786   0.063  0.00  0.00    +0.290 C 
ATOM     10  O   LIG    1        4.758  -0.102  -0.322  0.00  0.00    -0.520 OA
BRANCH   8  11
ATOM     11  C   LIG    1        4.985  -2.704   0.355  0.00  0.00    +0.290 C 
ATOM     12  C   LIG    1        5.216  -3.818  -0.665  0.00  0.00    +0.010 C 
ATOM     13  C   LIG    1        6.423  -4.646  -0.210  0.00  0.00    +0.030 C 
ATOM     14  C   LIG    1        6.026  -5.432   1.038  0.00  0.00    +0.080 C 
ATOM     15  C   LIG    1        5.410  -4.519   2.065  0.00  0.00    -0.060 A 
ATOM     16  C   LIG    1        5.334  -4.976   3.374  0.00  0.00    +0.000 A 
ATOM     17  C   LIG    1        4.777  -4.189   4.361  0.00  0.00    +0.010 A 
ATOM     18  C   LIG    1        4.291  -2.934   4.045  0.00  0.00    +0.000 A 
ATOM     19  C   LIG    1        4.367  -2.477   2.745  0.00  0.00    +0.020 A 
ATOM     20  C   LIG    1        4.929  -3.267   1.751  0.00  0.00    -0.090 A 
ENDBRANCH   8  11
ENDBRANCH   5   7
BRANCH   1  21
ATOM     21  S   LIG    1        0.829   3.570   0.509  0.00  0.00    +2.700 S 
ATOM     22  O   LIG    1       -0.203   4.161  -0.269  0.00  0.00    -0.950 OA
ATOM     23  O   LIG    1        2.128   4.132   0.634  0.00  0.00    -0.950 OA
BRANCH  21  24
ATOM     24  N   LIG    1        0.231   3.429   2.047  0.00  0.00    -1.110 NA
ATOM     25  H   LIG    1       -0.661   3.750   2.253  0.00  0.00    +0.420 HD
BRANCH  24  26
ATOM     26  C   LIG    1        1.049   2.819   3.098  0.00  0.00    +0.300 C 
BRANCH  26  28
ATOM     27  C   LIG    1        0.156   2.164   5.274  0.00  0.00    +0.040 C 
ATOM     28  C   LIG    1        0.454   3.135   4.446  0.00  0.00    -0.050 C 
ENDBRANCH  26  28
ENDBRANCH  24  26
ENDBRANCH  21  24
ENDBRANCH   1  21
TORSDOF 6
