REMARK  Name = ZINCkj000005hsOw.2
REMARK                            x       y       z     vdW  Elec       q    Type
REMARK                         _______ _______ _______ _____ _____    ______ ____
ROOT
ATOM      1  N   LIG    1       -0.706   1.976   1.219  0.00  0.00    -0.380 N 
ATOM      2  C   LIG    1        0.085   1.620   2.411  0.00  0.00    +0.260 C 
ATOM      3  C   LIG    1        0.428   2.935   3.142  0.00  0.00    +0.080 C 
ATOM      4  C   LIG    1       -0.665   3.913   2.635  0.00  0.00    +0.090 C 
ATOM      5  C   LIG    1       -0.841   3.448   1.170  0.00  0.00    +0.230 C 
ATOM      6  H   LIG    1       -1.620   1.553   1.278  0.00  0.00    +0.430 HD
ENDROOT
BRANCH   5   7
ATOM      7  C   LIG    1       -2.207   3.833   0.661  0.00  0.00    -0.140 A 
ATOM      8  C   LIG    1       -3.320   3.121   1.068  0.00  0.00    +0.010 A 
ATOM      9  C   LIG    1       -4.574   3.470   0.603  0.00  0.00    +0.050 A 
ATOM     10  C   LIG    1       -4.718   4.535  -0.274  0.00  0.00    +0.080 A 
ATOM     11  O   LIG    1       -5.958   4.862  -0.730  0.00  0.00    -0.300 OA
ATOM     12  C   LIG    1       -6.108   6.161  -1.312  0.00  0.00    +0.240 C 
ATOM     13  C   LIG    1       -4.939   6.393  -2.279  0.00  0.00    +0.240 C 
ATOM     14  O   LIG    1       -3.719   6.304  -1.536  0.00  0.00    -0.300 OA
ATOM     15  C   LIG    1       -3.599   5.252  -0.680  0.00  0.00    +0.060 A 
ATOM     16  C   LIG    1       -2.345   4.900  -0.206  0.00  0.00    +0.070 A 
ENDBRANCH   5   7
BRANCH   1  17
ATOM     17  C   LIG    1       -0.018   1.503   0.010  0.00  0.00    +0.290 C 
BRANCH  17  21
ATOM     18  C   LIG    1        0.605  -2.129  -1.026  0.00  0.00    +0.310 C 
ATOM     19  N   LIG    1        0.585  -0.664  -1.018  0.00  0.00    -0.710 N 
ATOM     20  H   LIG    1        0.992  -0.170  -1.747  0.00  0.00    +0.410 HD
ATOM     21  C   LIG    1        0.002  -0.004   0.002  0.00  0.00    +0.500 C 
ATOM     22  O   LIG    1       -0.506  -0.622   0.913  0.00  0.00    -0.530 OA
ENDBRANCH  17  21
ENDBRANCH   1  17
TORSDOF 3
