REMARK  Name = ZINCkj000005hsOw.1
REMARK                            x       y       z     vdW  Elec       q    Type
REMARK                         _______ _______ _______ _____ _____    ______ ____
ROOT
ATOM      1  N   LIG    1        0.004   4.072   0.815  0.00  0.00    -0.370 N 
ATOM      2  C   LIG    1       -0.837   4.748  -0.201  0.00  0.00    +0.260 C 
ATOM      3  C   LIG    1        0.159   5.216  -1.291  0.00  0.00    +0.080 C 
ATOM      4  C   LIG    1        1.169   4.039  -1.319  0.00  0.00    +0.090 C 
ATOM      5  C   LIG    1        1.240   3.607   0.160  0.00  0.00    +0.230 C 
ATOM      6  H   LIG    1        0.234   4.720   1.554  0.00  0.00    +0.430 HD
ENDROOT
BRANCH   5   7
ATOM      7  C   LIG    1        1.334   2.105   0.251  0.00  0.00    -0.150 A 
ATOM      8  C   LIG    1        0.455   1.314  -0.464  0.00  0.00    +0.030 A 
ATOM      9  C   LIG    1        0.537  -0.063  -0.382  0.00  0.00    +0.040 A 
ATOM     10  C   LIG    1        1.503  -0.655   0.418  0.00  0.00    +0.080 A 
ATOM     11  O   LIG    1        1.567  -2.013   0.495  0.00  0.00    -0.300 OA
ATOM     12  C   LIG    1        2.780  -2.571   1.010  0.00  0.00    +0.240 C 
ATOM     13  C   LIG    1        3.167  -1.795   2.276  0.00  0.00    +0.240 C 
ATOM     14  O   LIG    1        3.349  -0.420   1.921  0.00  0.00    -0.300 OA
ATOM     15  C   LIG    1        2.389   0.141   1.135  0.00  0.00    +0.060 A 
ATOM     16  C   LIG    1        2.300   1.522   1.050  0.00  0.00    +0.060 A 
ENDBRANCH   5   7
BRANCH   1  17
ATOM     17  C   LIG    1       -0.722   2.924   1.375  0.00  0.00    +0.290 C 
BRANCH  17  21
ATOM     18  C   LIG    1       -3.831   3.014   3.606  0.00  0.00    +0.310 C 
ATOM     19  N   LIG    1       -2.700   2.535   2.809  0.00  0.00    -0.710 N 
ATOM     20  H   LIG    1       -2.535   1.583   2.723  0.00  0.00    +0.410 HD
ATOM     21  C   LIG    1       -1.886   3.417   2.195  0.00  0.00    +0.500 C 
ATOM     22  O   LIG    1       -2.091   4.608   2.302  0.00  0.00    -0.530 OA
ENDBRANCH  17  21
ENDBRANCH   1  17
TORSDOF 3
