REMARK  Name = ZINCvU0000000FoT.0
REMARK                            x       y       z     vdW  Elec       q    Type
REMARK                         _______ _______ _______ _____ _____    ______ ____
ROOT
ATOM      1  N   LIG    1       -0.784   1.852   1.416  0.00  0.00    -0.930 N 
ENDROOT
BRANCH   1   2
ATOM      2  C   LIG    1       -1.599   0.923   2.067  0.00  0.00    +0.170 A 
ATOM      3  C   LIG    1       -2.107  -0.167   1.371  0.00  0.00    -0.030 A 
ATOM      4  C   LIG    1       -2.909  -1.085   2.020  0.00  0.00    +0.050 A 
ATOM      5  C   LIG    1       -3.216  -0.915   3.357  0.00  0.00    -0.010 A 
ATOM      6  C   LIG    1       -2.717   0.172   4.052  0.00  0.00    +0.040 A 
ATOM      7  C   LIG    1       -1.910   1.091   3.411  0.00  0.00    -0.020 A 
ENDBRANCH   1   2
BRANCH   1   8
ATOM      8  S   LIG    1        0.099   1.393   0.092  0.00  0.00    +2.680 S 
ATOM      9  O   LIG    1        1.151   2.339  -0.036  0.00  0.00    -0.940 OA
ATOM     10  O   LIG    1        0.322  -0.004   0.223  0.00  0.00    -0.940 OA
BRANCH   8  11
ATOM     11  C   LIG    1       -0.933   1.603  -1.320  0.00  0.00    -0.690 A 
ATOM     12  C   LIG    1       -1.632   0.525  -1.832  0.00  0.00    +0.120 A 
ATOM     13  C   LIG    1       -2.445   0.690  -2.937  0.00  0.00    -0.020 A 
ATOM     14  C   LIG    1       -2.551   1.931  -3.538  0.00  0.00    -0.020 A 
ATOM     15  C   LIG    1       -1.849   3.007  -3.030  0.00  0.00    -0.010 A 
ATOM     16  C   LIG    1       -3.434   2.110  -4.746  0.00  0.00    +0.090 C 
ATOM     17  C   LIG    1       -1.039   2.843  -1.921  0.00  0.00    +0.160 A 
ENDBRANCH   8  11
ENDBRANCH   1   8
BRANCH   1  18
ATOM     18  C   LIG    1       -0.709   3.231   1.905  0.00  0.00    +0.420 C 
BRANCH  18  21
ATOM     19  C   LIG    1       -3.001   5.241  -0.040  0.00  0.00    +0.250 A 
ATOM     20  N   LIG    1       -1.843   4.647   0.126  0.00  0.00    -0.470 NA
ATOM     21  C   LIG    1       -1.843   4.033   1.320  0.00  0.00    -0.040 A 
ATOM     22  C   LIG    1       -3.032   4.266   1.903  0.00  0.00    +0.180 A 
ATOM     23  O   LIG    1       -3.754   5.022   1.052  0.00  0.00    -0.190 OA
BRANCH  19  27
ATOM     24  C   LIG    1       -4.167   7.497  -3.446  0.00  0.00    +0.150 A 
ATOM     25  C   LIG    1       -5.046   7.345  -2.381  0.00  0.00    -0.010 A 
ATOM     26  C   LIG    1       -4.672   6.614  -1.275  0.00  0.00    +0.090 A 
ATOM     27  C   LIG    1       -3.407   6.025  -1.225  0.00  0.00    -0.060 A 
ATOM     28  C   LIG    1       -2.524   6.184  -2.295  0.00  0.00    +0.110 A 
ATOM     29  C   LIG    1       -2.908   6.912  -3.400  0.00  0.00    -0.070 A 
BRANCH  24  31
ATOM     30  C   LIG    1       -3.587   8.334  -5.593  0.00  0.00    +0.240 C 
ATOM     31  O   LIG    1       -4.540   8.218  -4.535  0.00  0.00    -0.310 OA
ENDBRANCH  24  31
ENDBRANCH  19  27
ENDBRANCH  18  21
ENDBRANCH   1  18
TORSDOF 7
