REMARK  Name = ZINCvU00000004YT.0
REMARK                            x       y       z     vdW  Elec       q    Type
REMARK                         _______ _______ _______ _____ _____    ______ ____
ROOT
ATOM      1  C   LIG    1        5.822   3.376   0.343  0.00  0.00    -0.150 A 
ATOM      2  C   LIG    1        7.145   2.929   0.292  0.00  0.00    +0.070 A 
ATOM      3  C   LIG    1        8.165   3.826   0.066  0.00  0.00    -0.010 A 
ATOM      4  C   LIG    1        7.880   5.178  -0.101  0.00  0.00    +0.170 A 
ATOM      5  C   LIG    1        6.564   5.627  -0.046  0.00  0.00    +0.020 A 
ATOM      6  C   LIG    1        5.539   4.734   0.175  0.00  0.00    +0.110 A 
ENDROOT
BRANCH   1   9
ATOM      7  N   LIG    1        5.000   1.107   0.741  0.00  0.00    -0.660 N 
ATOM      8  H   LIG    1        5.921   0.806   0.787  0.00  0.00    +0.410 HD
ATOM      9  C   LIG    1        4.726   2.417   0.579  0.00  0.00    +0.560 C 
ATOM     10  O   LIG    1        3.575   2.808   0.628  0.00  0.00    -0.520 OA
BRANCH   7  16
ATOM     11  C   LIG    1        4.157  -1.032   1.501  0.00  0.00    +0.100 A 
ATOM     12  C   LIG    1        3.120  -1.944   1.599  0.00  0.00    -0.060 A 
ATOM     13  C   LIG    1        1.887  -1.652   1.045  0.00  0.00    +0.030 A 
ATOM     14  C   LIG    1        1.685  -0.450   0.393  0.00  0.00    +0.000 A 
ATOM     15  C   LIG    1        2.715   0.466   0.291  0.00  0.00    +0.050 A 
ATOM     16  C   LIG    1        3.955   0.180   0.843  0.00  0.00    +0.120 A 
BRANCH  11  18
ATOM     17  C   LIG    1        5.505  -2.579   2.703  0.00  0.00    +0.250 C 
ATOM     18  O   LIG    1        5.371  -1.318   2.045  0.00  0.00    -0.320 OA
ENDBRANCH  11  18
ENDBRANCH   7  16
ENDBRANCH   1   9
BRANCH   4  19
ATOM     19  N   LIG    1        8.915   6.085  -0.324  0.00  0.00    -0.670 N 
ATOM     20  H   LIG    1        9.688   5.819  -0.847  0.00  0.00    +0.410 HD
ATOM     21  C   LIG    1        8.842   7.330   0.186  0.00  0.00    +0.490 C 
ATOM     22  O   LIG    1        7.841   7.689   0.767  0.00  0.00    -0.490 OA
BRANCH  21  23
ATOM     23  C   LIG    1       10.006   8.276   0.034  0.00  0.00    +0.100 C 
ATOM     24  C   LIG    1       10.289   8.501  -1.452  0.00  0.00    +0.110 C 
ATOM     25  C   LIG    1       11.243   7.674   0.704  0.00  0.00    +0.050 C 
BRANCH  23  26
ATOM     26  O   LIG    1        9.689   9.524   0.654  0.00  0.00    -0.280 OA
BRANCH  26  27
ATOM     27  C   LIG    1        9.368   9.494   1.974  0.00  0.00    +0.140 A 
ATOM     28  C   LIG    1        9.311   8.282   2.647  0.00  0.00    -0.040 A 
ATOM     29  C   LIG    1        8.989   8.254   3.990  0.00  0.00    +0.060 A 
ATOM     30  C   LIG    1        8.714   9.432   4.662  0.00  0.00    -0.070 A 
ATOM     31  C   LIG    1        8.766  10.641   3.991  0.00  0.00    +0.070 A 
ATOM     32 CL   LIG    1        8.304   9.393   6.348  0.00  0.00    -0.070 Cl
ATOM     33  C   LIG    1        9.092  10.674   2.649  0.00  0.00    +0.000 A 
ENDBRANCH  26  27
ENDBRANCH  23  26
ENDBRANCH  21  23
ENDBRANCH   4  19
TORSDOF 7
