REMARK  Name = ZINCrD000000fU0S.0
REMARK                            x       y       z     vdW  Elec       q    Type
REMARK                         _______ _______ _______ _____ _____    ______ ____
ROOT
ATOM      1  C   LIG    1        2.636   4.178   3.797  0.00  0.00    -0.130 A 
ATOM      2  C   LIG    1        1.415   4.615   4.109  0.00  0.00    -0.010 A 
ATOM      3  C   LIG    1        0.386   3.741   3.801  0.00  0.00    +0.180 A 
ATOM      4  C   LIG    1        0.773   2.591   3.248  0.00  0.00    -0.800 A 
ATOM      5  S   LIG    1        2.523   2.575   3.080  0.00  0.00    +0.230 S 
ENDROOT
BRANCH   4   6
ATOM      6  S   LIG    1       -0.306   1.288   2.755  0.00  0.00    +2.720 S 
ATOM      7  O   LIG    1        0.476   0.102   2.744  0.00  0.00    -0.930 OA
ATOM      8  O   LIG    1       -1.489   1.432   3.529  0.00  0.00    -0.930 OA
BRANCH   6   9
ATOM      9  N   LIG    1       -0.738   1.578   1.182  0.00  0.00    -0.940 N 
ATOM     10  C   LIG    1       -0.013   1.086   0.008  0.00  0.00    +0.300 C 
ATOM     11  C   LIG    1       -0.797   1.615  -1.204  0.00  0.00    +0.120 C 
ATOM     12  C   LIG    1       -1.946   2.392  -0.603  0.00  0.00    -0.100 A 
ATOM     13  C   LIG    1       -2.979   3.090  -1.200  0.00  0.00    +0.030 A 
ATOM     14  C   LIG    1       -3.927   3.731  -0.421  0.00  0.00    +0.080 A 
ATOM     15  C   LIG    1       -3.837   3.671   0.959  0.00  0.00    +0.030 A 
ATOM     16  C   LIG    1       -2.808   2.976   1.558  0.00  0.00    +0.030 A 
ATOM     17  F   LIG    1       -4.936   4.413  -1.006  0.00  0.00    -0.140 F 
ATOM     18  C   LIG    1       -1.849   2.327   0.778  0.00  0.00    +0.150 A 
ENDBRANCH   6   9
ENDBRANCH   4   6
BRANCH   1  19
ATOM     19  C   LIG    1        3.916   4.939   4.025  0.00  0.00    +0.120 C 
BRANCH  19  20
ATOM     20  C   LIG    1        4.470   4.603   5.411  0.00  0.00    +0.270 C 
BRANCH  20  22
ATOM     21  C   LIG    1        6.384   5.204   6.794  0.00  0.00    +0.520 C 
ATOM     22  N   LIG    1        5.714   5.344   5.633  0.00  0.00    -0.730 N 
ATOM     23  H   LIG    1        6.056   5.935   4.944  0.00  0.00    +0.400 HD
ATOM     24  O   LIG    1        5.957   4.465   7.655  0.00  0.00    -0.530 OA
BRANCH  21  26
ATOM     25  C   LIG    1        8.218   5.630   8.408  0.00  0.00    +0.050 C 
ATOM     26  C   LIG    1        7.664   5.966   7.022  0.00  0.00    -0.090 C 
ATOM     27  C   LIG    1        7.386   7.468   6.934  0.00  0.00    +0.050 C 
ATOM     28  C   LIG    1        8.688   5.574   5.954  0.00  0.00    +0.050 C 
ENDBRANCH  21  26
ENDBRANCH  20  22
ENDBRANCH  19  20
ENDBRANCH   1  19
TORSDOF 6
