REMARK  Name = ZINCrH000004sqRy.0
REMARK                            x       y       z     vdW  Elec       q    Type
REMARK                         _______ _______ _______ _____ _____    ______ ____
ROOT
ATOM      1  N   LIG    1       -0.968  -3.347   2.415  0.00  0.00    -0.720 N 
ATOM      2  H   LIG    1       -1.553  -4.116   2.496  0.00  0.00    +0.400 HD
ATOM      3  C   LIG    1       -1.101  -2.307   3.262  0.00  0.00    +0.680 C 
ATOM      4  N   LIG    1       -2.048  -2.336   4.221  0.00  0.00    -0.650 N 
ATOM      5  H   LIG    1       -2.633  -3.106   4.302  0.00  0.00    +0.410 HD
ATOM      6  O   LIG    1       -0.368  -1.343   3.161  0.00  0.00    -0.460 OA
ENDROOT
BRANCH   4   7
ATOM      7  C   LIG    1       -2.185  -1.264   5.095  0.00  0.00    +0.290 A 
ATOM      8  N   LIG    1       -1.454  -0.194   5.077  0.00  0.00    -0.470 NA
ATOM      9  C   LIG    1       -1.726   0.731   5.980  0.00  0.00    +0.260 A 
ATOM     10  C   LIG    1       -2.728   0.422   6.806  0.00  0.00    -0.240 A 
ATOM     11  S   LIG    1       -3.338  -1.167   6.353  0.00  0.00    +0.120 S 
BRANCH  10  12
ATOM     12  C   LIG    1       -3.246   1.283   7.929  0.00  0.00    +0.190 C 
BRANCH  12  13
ATOM     13  C   LIG    1       -4.341   2.178   7.411  0.00  0.00    -0.050 A 
ATOM     14  C   LIG    1       -5.655   1.751   7.442  0.00  0.00    +0.010 A 
ATOM     15  C   LIG    1       -6.662   2.572   6.968  0.00  0.00    +0.040 A 
ATOM     16  C   LIG    1       -6.355   3.821   6.463  0.00  0.00    -0.020 A 
ATOM     17  C   LIG    1       -5.039   4.250   6.431  0.00  0.00    +0.100 A 
ATOM     18  F   LIG    1       -4.737   5.471   5.938  0.00  0.00    -0.140 F 
ATOM     19  C   LIG    1       -4.032   3.429   6.912  0.00  0.00    -0.010 A 
ENDBRANCH  12  13
ENDBRANCH  10  12
ENDBRANCH   4   7
BRANCH   1  20
ATOM     20  C   LIG    1        0.061  -3.315   1.372  0.00  0.00    +0.260 C 
ATOM     21  C   LIG    1        1.462  -3.696   1.878  0.00  0.00    +0.040 C 
ATOM     22  C   LIG    1        1.098  -5.154   1.546  0.00  0.00    +0.030 C 
ATOM     23  C   LIG    1        0.107  -4.591   0.514  0.00  0.00    +0.060 C 
BRANCH  20  27
ATOM     24  C   LIG    1       -0.018   1.503   0.010  0.00  0.00    +0.230 C 
ATOM     25  C   LIG    1        0.002  -0.004   0.002  0.00  0.00    +0.160 A 
ATOM     26  N   LIG    1        0.023  -0.791   1.051  0.00  0.00    -0.410 NA
ATOM     27  C   LIG    1        0.035  -2.044   0.564  0.00  0.00    +0.160 A 
ATOM     28  N   LIG    1        0.022  -1.958  -0.733  0.00  0.00    -0.380 NA
ATOM     29  O   LIG    1       -0.003  -0.794  -1.076  0.00  0.00    +0.070 OA
ENDBRANCH  20  27
ENDBRANCH   1  20
TORSDOF 5
