REMARK  Name = ZINCnE00000dSTIE.0
REMARK                            x       y       z     vdW  Elec       q    Type
REMARK                         _______ _______ _______ _____ _____    ______ ____
ROOT
ATOM      1  C   LIG    1       -1.682  -4.960  -0.007  0.00  0.00    +0.460 C 
ATOM      2  N   LIG    1       -1.931  -6.284  -0.011  0.00  0.00    -0.640 NA
ATOM      3  O   LIG    1       -2.602  -4.169   0.006  0.00  0.00    -0.590 OA
ENDROOT
BRANCH   2   4
ATOM      4  C   LIG    1       -3.241  -6.744  -0.001  0.00  0.00    +0.370 A 
ATOM      5  N   LIG    1       -3.648  -7.992  -0.009  0.00  0.00    -0.580 NA
ATOM      6  C   LIG    1       -4.952  -8.194   0.009  0.00  0.00    +0.310 A 
ATOM      7  N   LIG    1       -5.726  -7.138   0.020  0.00  0.00    -0.550 NA
ATOM      8  S   LIG    1       -4.681  -5.799   0.017  0.00  0.00    +0.110 S 
BRANCH   6   9
ATOM      9  C   LIG    1       -5.519  -9.565   0.008  0.00  0.00    -0.000 A 
ATOM     10  C   LIG    1       -4.673 -10.672  -0.011  0.00  0.00    +0.060 A 
ATOM     11  C   LIG    1       -5.206 -11.945  -0.006  0.00  0.00    -0.010 A 
ATOM     12  C   LIG    1       -6.577 -12.123   0.005  0.00  0.00    +0.000 A 
ATOM     13  C   LIG    1       -7.422 -11.028   0.019  0.00  0.00    -0.010 A 
ATOM     14  C   LIG    1       -6.900  -9.750   0.020  0.00  0.00    +0.040 A 
ENDBRANCH   6   9
ENDBRANCH   2   4
BRANCH   1  15
ATOM     15  C   LIG    1       -0.260  -4.460  -0.018  0.00  0.00    +0.090 C 
BRANCH  15  16
ATOM     16  C   LIG    1       -0.257  -2.930  -0.010  0.00  0.00    +0.110 C 
BRANCH  16  17
ATOM     17  S   LIG    1        1.451  -2.331  -0.023  0.00  0.00    +0.020 S 
BRANCH  17  22
ATOM     18  C   LIG    1        1.310   3.374   0.007  0.00  0.00    +0.200 C 
ATOM     19  C   LIG    1        1.119   1.879   0.002  0.00  0.00    +0.020 A 
ATOM     20  N   LIG    1       -0.015   1.257   0.009  0.00  0.00    -0.250 NA
ATOM     21  N   LIG    1        0.002  -0.004   0.002  0.00  0.00    -0.260 NA
ATOM     22  C   LIG    1        1.165  -0.592  -0.012  0.00  0.00    +0.010 A 
ATOM     23  S   LIG    1        2.402   0.667  -0.017  0.00  0.00    +0.090 S 
ENDBRANCH  17  22
ENDBRANCH  16  17
ENDBRANCH  15  16
ENDBRANCH   1  15
TORSDOF 6
