REMARK  Name = ZINCpe000000YVig.0
REMARK                            x       y       z     vdW  Elec       q    Type
REMARK                         _______ _______ _______ _____ _____    ______ ____
ROOT
ATOM      1  S   LIG    1       -1.074   1.357  -6.303  0.00  0.00    +2.620 S 
ATOM      2  O   LIG    1       -2.331   0.734  -6.077  0.00  0.00    -0.940 OA
ATOM      3  O   LIG    1       -0.135   0.801  -7.214  0.00  0.00    -0.940 OA
ENDROOT
BRANCH   1   4
ATOM      4  N   LIG    1       -0.311   1.285  -4.835  0.00  0.00    -1.110 NA
ATOM      5  H   LIG    1        0.589   0.930  -4.773  0.00  0.00    +0.430 HD
BRANCH   4   6
ATOM      6  C   LIG    1       -0.997   1.758  -3.630  0.00  0.00    +0.310 C 
BRANCH   6   8
ATOM      7  O   LIG    1        0.726   0.575  -2.534  0.00  0.00    -0.520 OA
ATOM      8  C   LIG    1       -0.268   1.258  -2.409  0.00  0.00    +0.520 C 
ATOM      9  N   LIG    1       -0.721   1.571  -1.179  0.00  0.00    -0.730 N 
ATOM     10  H   LIG    1       -1.516   2.118  -1.079  0.00  0.00    +0.410 HD
BRANCH   9  11
ATOM     11  C   LIG    1       -0.013   1.086   0.008  0.00  0.00    +0.390 C 
BRANCH  11  12
ATOM     12  C   LIG    1       -0.718   1.572   1.248  0.00  0.00    -0.050 A 
ATOM     13  C   LIG    1       -1.704   0.926   1.896  0.00  0.00    -0.030 A 
ATOM     14  C   LIG    1       -2.070   1.736   2.996  0.00  0.00    -0.070 A 
ATOM     15  C   LIG    1       -1.286   2.828   2.954  0.00  0.00    +0.190 A 
ATOM     16  O   LIG    1       -0.465   2.720   1.896  0.00  0.00    -0.170 OA
ENDBRANCH  11  12
ENDBRANCH   9  11
ENDBRANCH   6   8
ENDBRANCH   4   6
ENDBRANCH   1   4
BRANCH   1  17
ATOM     17  C   LIG    1       -1.290   3.131  -6.615  0.00  0.00    -0.380 C 
BRANCH  17  18
ATOM     18  C   LIG    1       -1.992   3.330  -7.960  0.00  0.00    +0.350 C 
BRANCH  18  19
ATOM     19  N   LIG    1       -2.166   4.763  -8.212  0.00  0.00    -0.490 N 
ATOM     20  C   LIG    1       -3.276   5.501  -7.937  0.00  0.00    +0.480 A 
ATOM     21  N   LIG    1       -3.086   6.740  -8.285  0.00  0.00    -0.490 NA
ATOM     22  C   LIG    1       -1.845   6.880  -8.817  0.00  0.00    +0.040 A 
ATOM     23  C   LIG    1       -1.139   7.965  -9.344  0.00  0.00    +0.070 A 
ATOM     24  C   LIG    1        0.131   7.786  -9.816  0.00  0.00    +0.000 A 
ATOM     25  C   LIG    1        0.731   6.536  -9.776  0.00  0.00    +0.030 A 
ATOM     26  C   LIG    1        0.054   5.451  -9.260  0.00  0.00    +0.000 A 
ATOM     27  C   LIG    1       -1.237   5.614  -8.777  0.00  0.00    +0.050 A 
ENDBRANCH  18  19
ENDBRANCH  17  18
ENDBRANCH   1  17
TORSDOF 8
