REMARK  Name = ZINCpk00000xI85B.0
REMARK                            x       y       z     vdW  Elec       q    Type
REMARK                         _______ _______ _______ _____ _____    ______ ____
ROOT
ATOM      1  C   LIG    1       -1.140  -0.542  -0.750  0.00  0.00    +0.300 C 
ENDROOT
BRANCH   1  11
ATOM      2  N   LIG    1       -2.954  -1.136   0.931  0.00  0.00    -0.480 N 
ATOM      3  C   LIG    1       -4.106  -0.543   1.410  0.00  0.00    +0.040 A 
ATOM      4  C   LIG    1       -5.067  -0.915   2.340  0.00  0.00    +0.050 A 
ATOM      5  C   LIG    1       -6.133  -0.079   2.596  0.00  0.00    +0.010 A 
ATOM      6  C   LIG    1       -6.252   1.135   1.930  0.00  0.00    +0.090 A 
ATOM      7  C   LIG    1       -5.307   1.519   1.004  0.00  0.00    +0.040 A 
ATOM      8  F   LIG    1       -7.302   1.944   2.192  0.00  0.00    -0.140 F 
ATOM      9  C   LIG    1       -4.221   0.682   0.733  0.00  0.00    +0.070 A 
ATOM     10  N   LIG    1       -3.154   0.775  -0.101  0.00  0.00    -0.490 NA
ATOM     11  C   LIG    1       -2.411  -0.287   0.018  0.00  0.00    +0.300 A 
BRANCH   2  13
ATOM     12  C   LIG    1       -1.466  -2.249   2.522  0.00  0.00    +0.050 C 
ATOM     13  C   LIG    1       -2.414  -2.437   1.336  0.00  0.00    +0.290 C 
ENDBRANCH   2  13
ENDBRANCH   1  11
BRANCH   1  14
ATOM     14  N   LIG    1        0.002  -0.004   0.002  0.00  0.00    -0.520 NA
ATOM     15  C   LIG    1       -0.018   1.474   0.010  0.00  0.00    +0.200 C 
ATOM     16  C   LIG    1        1.474   1.890  -0.002  0.00  0.00    +0.010 C 
ATOM     17  C   LIG    1        2.093   0.811  -0.929  0.00  0.00    +0.100 C 
ATOM     18  C   LIG    1        1.279  -0.453  -0.583  0.00  0.00    +0.240 C 
BRANCH  17  19
ATOM     19  O   LIG    1        1.920   1.163  -2.304  0.00  0.00    -0.550 OA
ATOM     20  H   LIG    1        2.411   1.951  -2.573  0.00  0.00    +0.390 HD
ENDBRANCH  17  19
BRANCH  17  21
ATOM     21  C   LIG    1        3.574   0.606  -0.608  0.00  0.00    +0.320 C 
BRANCH  21  22
ATOM     22  N   LIG    1        4.301   1.858  -0.833  0.00  0.00    -0.290 N 
ATOM     23  C   LIG    1        5.079   2.497   0.071  0.00  0.00    +0.150 A 
ATOM     24  C   LIG    1        5.551   3.602  -0.552  0.00  0.00    +0.140 A 
ATOM     25  N   LIG    1        5.046   3.585  -1.790  0.00  0.00    -0.260 NA
ATOM     26  N   LIG    1        4.314   2.536  -1.927  0.00  0.00    -0.100 NA
ENDBRANCH  21  22
ENDBRANCH  17  21
ENDBRANCH   1  14
TORSDOF 6
