REMARK  Name = ZINCrD00000723Xv.0
REMARK                            x       y       z     vdW  Elec       q    Type
REMARK                         _______ _______ _______ _____ _____    ______ ____
ROOT
ATOM      1  O   LIG    1       -0.860  -5.032  -0.015  0.00  0.00    -0.350 OA
ENDROOT
BRANCH   1   2
ATOM      2  C   LIG    1        0.192  -4.198  -0.021  0.00  0.00    +0.460 C 
ATOM      3  O   LIG    1        1.315  -4.642  -0.034  0.00  0.00    -0.460 OA
BRANCH   2   4
ATOM      4  C   LIG    1       -0.029  -2.707  -0.011  0.00  0.00    +0.300 C 
BRANCH   4   5
ATOM      5  O   LIG    1        1.234  -2.039  -0.020  0.00  0.00    -0.260 OA
BRANCH   5   6
ATOM      6  C   LIG    1        1.213  -0.680  -0.013  0.00  0.00    +0.190 A 
ATOM      7  C   LIG    1        0.002  -0.004   0.002  0.00  0.00    -0.060 A 
ATOM      8  C   LIG    1       -0.017   1.377   0.010  0.00  0.00    +0.130 A 
ATOM      9  C   LIG    1        1.170   2.086   0.002  0.00  0.00    +0.000 A 
ATOM     10  C   LIG    1        2.379   1.415  -0.013  0.00  0.00    +0.140 A 
ATOM     11  C   LIG    1        2.403   0.034  -0.021  0.00  0.00    -0.080 A 
BRANCH  11  12
ATOM     12  N   LIG    1        3.697  -0.685  -0.036  0.00  0.00    +0.030 N 
ATOM     13  O   LIG    1        3.718  -1.902  -0.043  0.00  0.00    -0.120 OA
ATOM     14  O   LIG    1        4.742  -0.058  -0.043  0.00  0.00    -0.180 OA
ENDBRANCH  11  12
ENDBRANCH   5   6
ENDBRANCH   4   5
ENDBRANCH   2   4
ENDBRANCH   1   2
BRANCH   1  15
ATOM     15  C   LIG    1       -0.572  -6.455  -0.025  0.00  0.00    +0.310 C 
BRANCH  15  21
ATOM     16  C   LIG    1       -1.841  -8.620  -0.024  0.00  0.00    +0.180 A 
ATOM     17  C   LIG    1       -3.030  -9.341  -0.015  0.00  0.00    -0.080 A 
ATOM     18  C   LIG    1       -4.237  -8.679   0.000  0.00  0.00    +0.110 A 
ATOM     19  C   LIG    1       -4.261  -7.278   0.008  0.00  0.00    -0.210 A 
ATOM     20  C   LIG    1       -3.057  -6.562   0.004  0.00  0.00    +0.150 A 
ATOM     21  C   LIG    1       -1.865  -7.229  -0.016  0.00  0.00    -0.140 A 
BRANCH  19  22
ATOM     22  C   LIG    1       -5.543  -6.564   0.024  0.00  0.00    +0.400 C 
ATOM     23  O   LIG    1       -5.562  -5.351   0.030  0.00  0.00    -0.460 OA
ATOM     24  C   LIG    1       -6.837  -7.337   0.033  0.00  0.00    +0.080 C 
ENDBRANCH  19  22
BRANCH  16  25
ATOM     25  O   LIG    1       -0.653  -9.275  -0.038  0.00  0.00    -0.310 OA
BRANCH  25  27
ATOM     26  C   LIG    1        0.725 -11.260  -0.062  0.00  0.00    +0.060 C 
ATOM     27  C   LIG    1       -0.700 -10.703  -0.045  0.00  0.00    +0.190 C 
ENDBRANCH  25  27
ENDBRANCH  16  25
ENDBRANCH  15  21
ENDBRANCH   1  15
TORSDOF 10
