REMARK  Name = ZINCpk000005VlG9.0
REMARK                            x       y       z     vdW  Elec       q    Type
REMARK                         _______ _______ _______ _____ _____    ______ ____
ROOT
ATOM      1  N   LIG    1       -8.502   1.440   2.520  0.00  0.00    -0.520 NA
ATOM      2  C   LIG    1       -9.262   2.007   3.641  0.00  0.00    +0.170 C 
ATOM      3  C   LIG    1      -10.684   1.442   3.633  0.00  0.00    +0.050 C 
ATOM      4  C   LIG    1      -11.360   1.792   2.305  0.00  0.00    +0.000 C 
ATOM      5  C   LIG    1      -10.523   1.232   1.152  0.00  0.00    +0.260 C 
ATOM      6  C   LIG    1       -9.105   1.803   1.232  0.00  0.00    +0.190 C 
ENDROOT
BRANCH   5   7
ATOM      7  N   LIG    1      -11.132   1.612  -0.125  0.00  0.00    -0.720 N 
ATOM      8  H   LIG    1      -10.826   2.405  -0.592  0.00  0.00    +0.400 HD
ATOM      9  C   LIG    1      -12.119   0.859  -0.652  0.00  0.00    +0.610 C 
ATOM     10  O   LIG    1      -12.503  -0.135  -0.067  0.00  0.00    -0.510 OA
BRANCH   9  11
ATOM     11  C   LIG    1      -12.731   1.242  -1.935  0.00  0.00    -0.290 A 
ATOM     12  C   LIG    1      -13.743   0.605  -2.628  0.00  0.00    +0.300 A 
ATOM     13  N   LIG    1      -14.040   1.229  -3.744  0.00  0.00    -0.250 NA
ATOM     14  N   LIG    1      -13.413   2.290  -4.066  0.00  0.00    -0.250 NA
ATOM     15  S   LIG    1      -12.355   2.635  -2.965  0.00  0.00    +0.420 S 
ENDBRANCH   9  11
ENDBRANCH   5   7
BRANCH   1  16
ATOM     16  C   LIG    1       -7.093   1.852   2.577  0.00  0.00    +0.210 C 
BRANCH  16  18
ATOM     17  O   LIG    1       -6.821   0.147   0.969  0.00  0.00    -0.520 OA
ATOM     18  C   LIG    1       -6.296   1.054   1.578  0.00  0.00    +0.510 C 
ATOM     19  N   LIG    1       -4.998   1.349   1.362  0.00  0.00    -0.730 N 
ATOM     20  H   LIG    1       -4.578   2.075   1.849  0.00  0.00    +0.400 HD
BRANCH  19  21
ATOM     21  C   LIG    1       -4.223   0.573   0.391  0.00  0.00    +0.260 C 
BRANCH  21  22
ATOM     22  C   LIG    1       -2.791   1.108   0.338  0.00  0.00    -0.020 C 
ATOM     23  C   LIG    1       -2.015   0.382  -0.763  0.00  0.00    +0.030 C 
ATOM     24  C   LIG    1       -0.583   0.917  -0.816  0.00  0.00    +0.000 C 
ATOM     25  C   LIG    1        0.101   0.678   0.531  0.00  0.00    +0.000 C 
ATOM     26  C   LIG    1       -0.674   1.405   1.632  0.00  0.00    +0.000 C 
ATOM     27  C   LIG    1       -2.107   0.870   1.686  0.00  0.00    +0.020 C 
ENDBRANCH  21  22
ENDBRANCH  19  21
ENDBRANCH  16  18
ENDBRANCH   1  16
TORSDOF 6
