REMARK  Name = ZINCrH000005uark.0
REMARK                            x       y       z     vdW  Elec       q    Type
REMARK                         _______ _______ _______ _____ _____    ______ ____
ROOT
ATOM      1  N   LIG    1       -3.908  -0.028   3.745  0.00  0.00    -0.470 N 
ATOM      2  C   LIG    1       -4.503  -0.095   2.404  0.00  0.00    +0.200 C 
ATOM      3  C   LIG    1       -5.103  -1.485   2.180  0.00  0.00    +0.060 C 
ATOM      4  C   LIG    1       -6.170  -1.752   3.246  0.00  0.00    +0.030 C 
ATOM      5  C   LIG    1       -5.535  -1.629   4.634  0.00  0.00    +0.030 C 
ATOM      6  C   LIG    1       -4.922  -0.235   4.787  0.00  0.00    +0.220 C 
ENDROOT
BRANCH   1  10
ATOM      7  C   LIG    1       -0.718   1.572   1.248  0.00  0.00    -0.160 A 
ATOM      8  C   LIG    1       -1.683   0.913   1.861  0.00  0.00    +0.050 A 
ATOM      9  C   LIG    1       -2.217   1.572   3.038  0.00  0.00    -0.190 A 
ATOM     10  C   LIG    1       -3.242   1.170   3.932  0.00  0.00    +0.410 A 
ATOM     11  N   LIG    1       -3.551   1.960   4.949  0.00  0.00    -0.560 NA
ATOM     12  C   LIG    1       -2.924   3.107   5.140  0.00  0.00    +0.540 A 
ATOM     13  N   LIG    1       -1.969   3.523   4.341  0.00  0.00    -0.510 NA
ATOM     14  C   LIG    1       -1.586   2.794   3.286  0.00  0.00    +0.100 A 
ATOM     15  S   LIG    1       -0.355   3.081   2.064  0.00  0.00    +0.170 S 
BRANCH   7  17
ATOM     16  C   LIG    1       -0.753   1.593  -1.232  0.00  0.00    +0.040 C 
ATOM     17  C   LIG    1       -0.013   1.086   0.008  0.00  0.00    +0.110 C 
ENDBRANCH   7  17
ENDBRANCH   1  10
BRANCH   4  18
ATOM     18  C   LIG    1       -6.731  -3.164   3.065  0.00  0.00    +0.100 C 
ATOM     19  C   LIG    1       -5.967  -4.115   2.142  0.00  0.00    +0.030 C 
ATOM     20  C   LIG    1       -7.305  -3.525   1.693  0.00  0.00    +0.020 C 
BRANCH  18  21
ATOM     21  N   LIG    1       -7.381  -3.742   4.243  0.00  0.00    -0.690 N 
ATOM     22  H   LIG    1       -7.433  -3.232   5.067  0.00  0.00    +0.400 HD
ATOM     23  C   LIG    1       -7.908  -4.981   4.183  0.00  0.00    +0.540 C 
ATOM     24  O   LIG    1       -7.843  -5.618   3.153  0.00  0.00    -0.530 OA
BRANCH  23  25
ATOM     25  C   LIG    1       -8.576  -5.575   5.396  0.00  0.00    -0.080 C 
ATOM     26  C   LIG    1       -7.881  -6.754   6.080  0.00  0.00    +0.060 C 
ATOM     27  C   LIG    1       -9.154  -6.986   5.264  0.00  0.00    +0.000 C 
ATOM     28  C   LIG    1      -10.439  -7.298   6.033  0.00  0.00    +0.060 C 
ENDBRANCH  23  25
ENDBRANCH  18  21
ENDBRANCH   4  18
TORSDOF 5
