REMARK  Name = ZINCkj000005hxO9.0
REMARK                            x       y       z     vdW  Elec       q    Type
REMARK                         _______ _______ _______ _____ _____    ______ ____
ROOT
ATOM      1  C   LIG    1        7.176   0.574   0.246  0.00  0.00    -0.030 C 
ATOM      2  C   LIG    1        6.480   1.861  -0.269  0.00  0.00    +0.070 C 
ATOM      3  C   LIG    1        4.981   1.513  -0.153  0.00  0.00    +0.260 C 
ATOM      4  N   LIG    1        4.872   0.047  -0.147  0.00  0.00    -0.620 N 
ATOM      5  C   LIG    1        3.726  -0.655  -0.038  0.00  0.00    +0.590 C 
ATOM      6  O   LIG    1        3.763  -1.867   0.052  0.00  0.00    -0.520 OA
ATOM      7  C   LIG    1        6.223  -0.528  -0.275  0.00  0.00    +0.270 C 
ENDROOT
BRANCH   5   8
ATOM      8  C   LIG    1        2.429   0.047  -0.028  0.00  0.00    -0.100 A 
ATOM      9  C   LIG    1        1.438  -0.315   0.894  0.00  0.00    +0.080 A 
ATOM     10  N   LIG    1        1.361  -1.256   1.895  0.00  0.00    -0.590 N 
ATOM     11  H   LIG    1        2.055  -1.885   2.148  0.00  0.00    +0.430 HD
ATOM     12  C   LIG    1        0.130  -1.142   2.466  0.00  0.00    +0.510 A 
ATOM     13  N   LIG    1       -0.547  -0.197   1.882  0.00  0.00    -0.490 NA
ATOM     14  C   LIG    1        0.205   0.358   0.896  0.00  0.00    +0.070 A 
ATOM     15  C   LIG    1       -0.021   1.385  -0.023  0.00  0.00    +0.080 A 
ATOM     16  C   LIG    1        0.962   1.735  -0.927  0.00  0.00    +0.090 A 
ATOM     17  F   LIG    1        0.734   2.730  -1.812  0.00  0.00    -0.130 F 
ATOM     18  C   LIG    1        2.180   1.075  -0.936  0.00  0.00    +0.050 A 
ENDBRANCH   5   8
BRANCH   1  19
ATOM     19  C   LIG    1        8.573   0.426  -0.359  0.00  0.00    +0.280 C 
BRANCH  19  21
ATOM     20  C   LIG    1       10.588  -0.876  -0.341  0.00  0.00    +0.330 C 
ATOM     21  N   LIG    1        9.247  -0.734   0.240  0.00  0.00    -0.510 N 
ATOM     22  H   LIG    1        8.710  -1.568   0.054  0.00  0.00    +0.430 HD
ATOM     23  H   LIG    1        9.325  -0.600   1.237  0.00  0.00    +0.430 HD
ENDBRANCH  19  21
ENDBRANCH   1  19
TORSDOF 3
