REMARK  Name = ZINCpk00000y6x9e.0
REMARK                            x       y       z     vdW  Elec       q    Type
REMARK                         _______ _______ _______ _____ _____    ______ ____
ROOT
ATOM      1  C   LIG    1        3.282   0.877   1.745  0.00  0.00    +0.600 C 
ATOM      2  N   LIG    1        3.250   2.162   1.339  0.00  0.00    -0.590 N 
ATOM      3  C   LIG    1        3.920   2.522   0.075  0.00  0.00    +0.280 C 
ATOM      4  C   LIG    1        3.082   3.499  -0.769  0.00  0.00    +0.030 C 
ATOM      5  C   LIG    1        1.624   3.111  -0.716  0.00  0.00    +0.020 C 
ATOM      6  C   LIG    1        0.943   3.857   0.427  0.00  0.00    +0.260 C 
ATOM      7  C   LIG    1        1.071   3.204   1.739  0.00  0.00    +0.020 C 
ATOM      8  C   LIG    1        2.559   3.131   2.161  0.00  0.00    +0.290 C 
ATOM      9  O   LIG    1        3.943   0.062   1.131  0.00  0.00    -0.500 OA
ENDROOT
BRANCH   1  13
ATOM     10  C   LIG    1        1.556  -0.653   4.561  0.00  0.00    +0.210 A 
ATOM     11  N   LIG    1        1.285   0.622   4.647  0.00  0.00    -0.390 NA
ATOM     12  O   LIG    1        1.806   1.254   3.758  0.00  0.00    +0.120 OA
ATOM     13  C   LIG    1        2.516   0.460   2.934  0.00  0.00    -0.070 A 
ATOM     14  C   LIG    1        2.379  -0.812   3.417  0.00  0.00    +0.040 A 
BRANCH  10  16
ATOM     15  C   LIG    1        0.297  -1.236   6.490  0.00  0.00    +0.260 C 
ATOM     16  O   LIG    1        1.130  -1.632   5.399  0.00  0.00    -0.280 OA
ENDBRANCH  10  16
ENDBRANCH   1  13
BRANCH   6  17
ATOM     17  N   LIG    1       -0.481   3.993   0.111  0.00  0.00    -0.980 NA
BRANCH  17  18
ATOM     18  S   LIG    1       -1.103   5.474  -0.290  0.00  0.00    +2.600 S 
ATOM     19  O   LIG    1       -2.236   5.173  -1.093  0.00  0.00    -0.950 OA
ATOM     20  O   LIG    1        0.005   6.187  -0.823  0.00  0.00    -0.950 OA
ATOM     21  C   LIG    1       -1.619   6.192   1.294  0.00  0.00    -0.290 C 
ENDBRANCH  17  18
BRANCH  17  22
ATOM     22  C   LIG    1       -1.354   2.817   0.150  0.00  0.00    +0.210 C 
ATOM     23  C   LIG    1       -2.011   2.493  -1.202  0.00  0.00    +0.030 C 
ATOM     24  C   LIG    1       -0.776   1.628  -1.505  0.00  0.00    +0.010 C 
ATOM     25  C   LIG    1       -0.599   1.483   0.016  0.00  0.00    +0.020 C 
ENDBRANCH  17  22
ENDBRANCH   6  17
TORSDOF 5
