REMARK  Name = ZINCnE000005t5GY.0
REMARK                            x       y       z     vdW  Elec       q    Type
REMARK                         _______ _______ _______ _____ _____    ______ ____
ROOT
ATOM      1  N   LIG    1       -5.070   4.010   3.716  0.00  0.00    -0.680 N 
ATOM      2  H   LIG    1       -5.325   3.129   4.033  0.00  0.00    +0.410 HD
ATOM      3  C   LIG    1       -4.420   4.142   2.543  0.00  0.00    +0.710 C 
ATOM      4  N   LIG    1       -4.062   3.046   1.844  0.00  0.00    -0.720 N 
ATOM      5  H   LIG    1       -4.272   2.163   2.185  0.00  0.00    +0.400 HD
ATOM      6  O   LIG    1       -4.155   5.249   2.115  0.00  0.00    -0.560 OA
ENDROOT
BRANCH   1  12
ATOM      7  C   LIG    1       -5.938   6.128   8.074  0.00  0.00    +0.140 C 
ATOM      8  C   LIG    1       -5.803   6.201   6.575  0.00  0.00    +0.180 A 
ATOM      9  N   LIG    1       -5.979   7.356   5.961  0.00  0.00    -0.500 NA
ATOM     10  C   LIG    1       -5.871   7.473   4.651  0.00  0.00    +0.310 A 
ATOM     11  C   LIG    1       -5.569   6.379   3.866  0.00  0.00    -0.020 A 
ATOM     12  C   LIG    1       -5.376   5.141   4.475  0.00  0.00    +0.250 A 
ATOM     13  C   LIG    1       -5.503   5.059   5.861  0.00  0.00    -0.190 A 
ATOM     14 BR   LIG    1       -5.261   3.408   6.750  0.00  0.00    -0.030 Br
ENDBRANCH   1  12
BRANCH   4  15
ATOM     15  C   LIG    1       -3.355   3.189   0.569  0.00  0.00    +0.270 C 
ATOM     16  C   LIG    1       -4.370   3.396  -0.557  0.00  0.00    +0.020 C 
BRANCH  15  17
ATOM     17  C   LIG    1       -2.539   1.925   0.293  0.00  0.00    -0.030 C 
ATOM     18  C   LIG    1       -1.241   1.836   1.119  0.00  0.00    +0.030 C 
ATOM     19  C   LIG    1       -0.569   1.281  -0.148  0.00  0.00    -0.090 C 
ATOM     20  C   LIG    1       -1.645   2.028  -0.954  0.00  0.00    -0.040 C 
ATOM     21  C   LIG    1       -2.170   1.238  -2.154  0.00  0.00    +0.030 C 
ATOM     22  C   LIG    1       -1.255   3.464  -1.312  0.00  0.00    +0.050 C 
BRANCH  19  23
ATOM     23  C   LIG    1        0.826   1.806  -0.370  0.00  0.00    +0.500 C 
ATOM     24  O   LIG    1        1.134   2.279  -1.451  0.00  0.00    -0.690 OA
ATOM     25  O   LIG    1        1.646   1.759   0.530  0.00  0.00    -0.700 OA
ENDBRANCH  19  23
ENDBRANCH  15  17
ENDBRANCH   4  15
TORSDOF 4
