REMARK  Name = ZINCrH000004pgWo.0
REMARK                            x       y       z     vdW  Elec       q    Type
REMARK                         _______ _______ _______ _____ _____    ______ ____
ROOT
ATOM      1  C   LIG    1        3.495   2.087   0.551  0.00  0.00    -0.040 A 
ATOM      2  C   LIG    1        3.281   3.449   0.618  0.00  0.00    -0.010 A 
ATOM      3  C   LIG    1        4.315   4.297   0.980  0.00  0.00    +0.110 A 
ATOM      4  C   LIG    1        5.567   3.781   1.268  0.00  0.00    +0.000 A 
ATOM      5  C   LIG    1        5.787   2.419   1.197  0.00  0.00    +0.020 A 
ATOM      6  F   LIG    1        4.102   5.629   1.050  0.00  0.00    -0.140 F 
ATOM      7  C   LIG    1        4.751   1.567   0.838  0.00  0.00    +0.090 A 
ENDROOT
BRANCH   7   8
ATOM      8  N   LIG    1        4.971   0.188   0.767  0.00  0.00    -0.500 N 
ATOM      9  C   LIG    1        6.014  -0.128  -0.218  0.00  0.00    +0.180 C 
ATOM     10  C   LIG    1        6.126  -1.646  -0.375  0.00  0.00    +0.000 C 
ATOM     11  C   LIG    1        6.471  -2.270   0.980  0.00  0.00    +0.150 C 
ATOM     12  C   LIG    1        5.395  -1.886   1.999  0.00  0.00    +0.050 C 
ATOM     13  C   LIG    1        5.304  -0.361   2.087  0.00  0.00    +0.180 C 
BRANCH  11  14
ATOM     14  O   LIG    1        6.521  -3.692   0.852  0.00  0.00    -0.560 OA
ATOM     15  H   LIG    1        7.183  -4.008   0.221  0.00  0.00    +0.380 HD
ENDBRANCH  11  14
ENDBRANCH   7   8
BRANCH   1  17
ATOM     16  C   LIG    1        2.407   0.924  -1.350  0.00  0.00    +0.040 C 
ATOM     17  C   LIG    1        2.369   1.165   0.161  0.00  0.00    +0.310 C 
BRANCH  17  18
ATOM     18  N   LIG    1        1.089   1.776   0.526  0.00  0.00    -0.730 N 
ATOM     19  H   LIG    1        1.008   2.741   0.574  0.00  0.00    +0.400 HD
ATOM     20  C   LIG    1        0.022   0.997   0.795  0.00  0.00    +0.530 C 
ATOM     21  O   LIG    1        0.122  -0.210   0.734  0.00  0.00    -0.520 OA
BRANCH  20  22
ATOM     22  C   LIG    1       -1.296   1.626   1.164  0.00  0.00    -0.140 C 
ATOM     23  C   LIG    1       -1.182   2.369   2.518  0.00  0.00    +0.060 C 
ATOM     24  C   LIG    1       -1.317   1.222   3.550  0.00  0.00    +0.030 C 
ATOM     25  C   LIG    1       -2.374   0.281   2.935  0.00  0.00    +0.020 C 
ATOM     26  C   LIG    1       -2.361   0.538   1.418  0.00  0.00    +0.070 C 
BRANCH  22  27
ATOM     27  C   LIG    1       -1.760   2.582   0.063  0.00  0.00    +0.400 C 
ATOM     28  F   LIG    1       -1.927   1.872  -1.131  0.00  0.00    -0.190 F 
ATOM     29  F   LIG    1       -0.799   3.582  -0.120  0.00  0.00    -0.200 F 
ENDBRANCH  22  27
ENDBRANCH  20  22
ENDBRANCH  17  18
ENDBRANCH   1  17
TORSDOF 6
