REMARK  Name = ZINCkj000005fZwu.1
REMARK                            x       y       z     vdW  Elec       q    Type
REMARK                         _______ _______ _______ _____ _____    ______ ____
ROOT
ATOM      1  N   LIG    1       -0.619   2.348   1.286  0.00  0.00    -0.580 N 
ATOM      2  C   LIG    1       -0.193   2.542   2.550  0.00  0.00    +0.500 C 
ATOM      3  O   LIG    1        0.803   1.975   2.947  0.00  0.00    -0.500 OA
ENDROOT
BRANCH   2   4
ATOM      4  C   LIG    1       -0.954   3.462   3.469  0.00  0.00    +0.140 C 
ATOM      5  C   LIG    1       -2.111   2.697   4.115  0.00  0.00    +0.280 C 
ATOM      6  O   LIG    1       -2.795   3.559   5.029  0.00  0.00    -0.350 OA
ATOM      7  C   LIG    1       -1.953   4.091   6.056  0.00  0.00    +0.270 C 
ATOM      8  C   LIG    1       -0.796   4.860   5.412  0.00  0.00    +0.250 C 
ATOM      9  N   LIG    1       -0.053   3.962   4.517  0.00  0.00    -0.490 N 
ATOM     10  H   LIG    1        0.710   4.467   4.092  0.00  0.00    +0.440 HD
ATOM     11  H   LIG    1        0.311   3.185   5.046  0.00  0.00    +0.440 HD
ENDBRANCH   2   4
BRANCH   1  13
ATOM     12  C   LIG    1       -2.998   1.876   0.967  0.00  0.00    +0.020 C 
ATOM     13  C   LIG    1       -1.892   2.926   0.845  0.00  0.00    +0.270 C 
ENDBRANCH   1  13
BRANCH   1  14
ATOM     14  C   LIG    1        0.189   1.560   0.352  0.00  0.00    +0.380 C 
BRANCH  14  15
ATOM     15  C   LIG    1       -0.211   0.110   0.442  0.00  0.00    -0.200 A 
ATOM     16  C   LIG    1        0.429  -0.732   1.336  0.00  0.00    +0.150 A 
ATOM     17  C   LIG    1        0.057  -2.062   1.421  0.00  0.00    -0.020 A 
ATOM     18  C   LIG    1       -0.946  -2.554   0.606  0.00  0.00    +0.100 A 
ATOM     19  C   LIG    1       -1.581  -1.716  -0.291  0.00  0.00    -0.010 A 
ATOM     20  F   LIG    1        1.413  -0.253   2.129  0.00  0.00    -0.110 F 
ATOM     21  C   LIG    1       -1.215  -0.384  -0.374  0.00  0.00    +0.140 A 
ATOM     22  F   LIG    1       -1.836   0.435  -1.250  0.00  0.00    -0.120 F 
ENDBRANCH  14  15
ENDBRANCH   1  14
TORSDOF 4
