REMARK  Name = ZINCpk00000y6zdA.0
REMARK                            x       y       z     vdW  Elec       q    Type
REMARK                         _______ _______ _______ _____ _____    ______ ____
ROOT
ATOM      1  N   LIG    1        4.672   1.339   5.704  0.00  0.00    -0.610 N 
ATOM      2  C   LIG    1        4.743   2.291   4.589  0.00  0.00    +0.300 C 
ATOM      3  C   LIG    1        4.993   1.432   3.330  0.00  0.00    +0.140 C 
ATOM      4  C   LIG    1        5.678   0.183   3.931  0.00  0.00    +0.090 C 
ATOM      5  C   LIG    1        5.196   0.148   5.364  0.00  0.00    +0.520 C 
ATOM      6  O   LIG    1        5.269  -0.813   6.099  0.00  0.00    -0.520 OA
ENDROOT
BRANCH   3   7
ATOM      7  C   LIG    1        3.694   1.065   2.660  0.00  0.00    +0.180 A 
ATOM      8  N   LIG    1        3.380   1.264   1.403  0.00  0.00    -0.470 NA
ATOM      9  C   LIG    1        2.132   0.783   1.261  0.00  0.00    +0.200 A 
ATOM     10  N   LIG    1        1.761   0.317   2.416  0.00  0.00    -0.380 NA
ATOM     11  O   LIG    1        2.644   0.469   3.233  0.00  0.00    +0.090 OA
BRANCH   9  12
ATOM     12  C   LIG    1        1.317   0.779  -0.006  0.00  0.00    +0.060 C 
ATOM     13  C   LIG    1       -0.019   1.526   0.010  0.00  0.00    +0.060 C 
ATOM     14  C   LIG    1        0.002  -0.004   0.002  0.00  0.00    +0.050 C 
ENDBRANCH   9  12
ENDBRANCH   3   7
BRANCH   1  17
ATOM     15  N   LIG    1        3.515   0.698   8.754  0.00  0.00    -0.470 NA
ATOM     16  C   LIG    1        2.912   0.751   7.404  0.00  0.00    +0.180 C 
ATOM     17  C   LIG    1        4.104   1.647   7.019  0.00  0.00    +0.260 C 
ATOM     18  C   LIG    1        4.853   0.984   8.189  0.00  0.00    +0.180 C 
BRANCH  15  19
ATOM     19  C   LIG    1        3.456  -0.663   9.303  0.00  0.00    +0.320 C 
BRANCH  19  24
ATOM     20  C   LIG    1        7.346  -1.289  12.445  0.00  0.00    +0.180 C 
ATOM     21  C   LIG    1        5.968  -1.006  11.906  0.00  0.00    -0.050 A 
ATOM     22  C   LIG    1        4.885  -0.663  12.623  0.00  0.00    +0.140 A 
ATOM     23  N   LIG    1        3.863  -0.496  11.765  0.00  0.00    -0.460 NA
ATOM     24  C   LIG    1        4.288  -0.735  10.557  0.00  0.00    +0.190 A 
ATOM     25  O   LIG    1        5.589  -1.050  10.613  0.00  0.00    -0.200 OA
ENDBRANCH  19  24
ENDBRANCH  15  19
ENDBRANCH   1  17
TORSDOF 5
