REMARK  Name = ZINCrD000000AqdX.0
REMARK                            x       y       z     vdW  Elec       q    Type
REMARK                         _______ _______ _______ _____ _____    ______ ____
ROOT
ATOM      1  O   LIG    1       -2.370  -1.710   3.788  0.00  0.00    -0.510 OA
ATOM      2  C   LIG    1       -3.080  -2.198   2.935  0.00  0.00    +0.520 C 
ATOM      3  N   LIG    1       -4.143  -2.947   3.291  0.00  0.00    -0.620 N 
ATOM      4  C   LIG    1       -5.022  -3.543   2.273  0.00  0.00    +0.270 C 
ATOM      5  C   LIG    1       -5.171  -5.041   2.582  0.00  0.00    +0.200 C 
ATOM      6  N   LIG    1       -5.627  -5.206   3.969  0.00  0.00    -0.490 N 
ATOM      7  C   LIG    1       -4.633  -4.692   4.921  0.00  0.00    +0.190 C 
ATOM      8  C   LIG    1       -4.459  -3.184   4.707  0.00  0.00    +0.300 C 
ENDROOT
BRANCH   6   9
ATOM      9  C   LIG    1       -5.935  -6.543   4.239  0.00  0.00    +0.080 A 
ATOM     10  C   LIG    1       -6.464  -6.900   5.471  0.00  0.00    +0.030 A 
ATOM     11  C   LIG    1       -6.774  -8.221   5.733  0.00  0.00    +0.030 A 
ATOM     12  C   LIG    1       -6.545  -9.190   4.774  0.00  0.00    +0.020 A 
ATOM     13  C   LIG    1       -6.011  -8.841   3.546  0.00  0.00    +0.010 A 
ATOM     14  C   LIG    1       -5.706  -7.520   3.275  0.00  0.00    +0.050 A 
ATOM     15  F   LIG    1       -5.185  -7.178   2.076  0.00  0.00    -0.140 F 
ENDBRANCH   6   9
BRANCH   2  16
ATOM     16  C   LIG    1       -2.776  -1.967   1.477  0.00  0.00    +0.230 C 
BRANCH  16  17
ATOM     17  O   LIG    1       -1.610  -1.149   1.358  0.00  0.00    -0.350 OA
BRANCH  17  18
ATOM     18  C   LIG    1       -1.232  -0.869   0.009  0.00  0.00    +0.310 C 
BRANCH  18  19
ATOM     19  C   LIG    1        0.002  -0.004   0.002  0.00  0.00    +0.080 A 
ATOM     20  N   LIG    1        1.198  -0.457  -0.012  0.00  0.00    -0.450 NA
ATOM     21  C   LIG    1        2.208   0.433  -0.017  0.00  0.00    +0.080 A 
ATOM     22  C   LIG    1        3.601   0.215  -0.032  0.00  0.00    +0.080 A 
ATOM     23  C   LIG    1        4.464   1.269  -0.035  0.00  0.00    +0.030 A 
ATOM     24  C   LIG    1        3.992   2.573  -0.023  0.00  0.00    +0.040 A 
ATOM     25  C   LIG    1        2.637   2.817  -0.009  0.00  0.00    +0.060 A 
ATOM     26  C   LIG    1        1.739   1.752  -0.005  0.00  0.00    -0.180 A 
ATOM     27  S   LIG    1       -0.021   1.702   0.011  0.00  0.00    +0.130 S 
ENDBRANCH  18  19
ENDBRANCH  17  18
ENDBRANCH  16  17
ENDBRANCH   2  16
TORSDOF 5
