REMARK  Name = ZINCuL0000000g1E.1
REMARK                            x       y       z     vdW  Elec       q    Type
REMARK                         _______ _______ _______ _____ _____    ______ ____
ROOT
ATOM      1  C   LIG    1        6.844   5.020   1.853  0.00  0.00    +0.290 A 
ATOM      2  C   LIG    1        7.672   5.460   0.825  0.00  0.00    -0.190 A 
ATOM      3  C   LIG    1        8.861   6.090   1.119  0.00  0.00    +0.110 A 
ATOM      4  C   LIG    1        9.241   6.275   2.450  0.00  0.00    -0.200 A 
ATOM      5  C   LIG    1        8.411   5.827   3.480  0.00  0.00    +0.080 A 
ATOM      6  C   LIG    1        7.220   5.204   3.180  0.00  0.00    -0.090 A 
ENDROOT
BRANCH   4   7
ATOM      7  C   LIG    1       10.520   6.946   2.769  0.00  0.00    +0.530 C 
ATOM      8  O   LIG    1       10.851   7.108   3.931  0.00  0.00    -0.570 OA
BRANCH   7   9
ATOM      9  N   LIG    1       11.313   7.374   1.783  0.00  0.00    -0.660 NA
ATOM     10  C   LIG    1       12.466   7.978   2.070  0.00  0.00    +0.350 A 
ATOM     11  N   LIG    1       12.969   8.237   3.293  0.00  0.00    -0.420 NA
ATOM     12  N   LIG    1       14.190   8.874   3.334  0.00  0.00    -0.270 NA
ATOM     13  C   LIG    1       14.740   9.175   2.205  0.00  0.00    -0.030 A 
ATOM     14  S   LIG    1       13.623   8.599   0.956  0.00  0.00    -0.100 S 
BRANCH  13  15
ATOM     15  C   LIG    1       16.059   9.872   1.994  0.00  0.00    +0.090 C 
ATOM     16  C   LIG    1       17.159   8.829   1.785  0.00  0.00    +0.030 C 
ATOM     17  C   LIG    1       16.389  10.723   3.222  0.00  0.00    +0.030 C 
ENDBRANCH  13  15
ENDBRANCH   7   9
ENDBRANCH   4   7
BRANCH   1  18
ATOM     18  N   LIG    1        5.640   4.389   1.554  0.00  0.00    -1.090 NA
BRANCH  18  19
ATOM     19  S   LIG    1        5.191   4.169  -0.025  0.00  0.00    +2.600 S 
ATOM     20  O   LIG    1        4.959   5.464  -0.561  0.00  0.00    -1.030 OA
ATOM     21  O   LIG    1        6.124   3.253  -0.584  0.00  0.00    -1.030 OA
BRANCH  19  25
ATOM     22  C   LIG    1        1.185   2.058   0.002  0.00  0.00    +0.160 A 
ATOM     23  C   LIG    1        2.359   1.320  -0.008  0.00  0.00    -0.100 A 
ATOM     24  C   LIG    1        3.580   1.966  -0.021  0.00  0.00    +0.160 A 
ATOM     25  C   LIG    1        3.633   3.348  -0.015  0.00  0.00    -0.640 A 
ATOM     26  C   LIG    1        2.464   4.086   0.000  0.00  0.00    +0.150 A 
ATOM     27  C   LIG    1        1.240   3.444   0.009  0.00  0.00    -0.050 A 
BRANCH  22  28
ATOM     28  O   LIG    1       -0.017   1.425   0.010  0.00  0.00    -0.320 OA
BRANCH  28  30
ATOM     29  C   LIG    1       -1.433  -0.534   0.013  0.00  0.00    +0.060 C 
ATOM     30  C   LIG    1        0.002  -0.004   0.002  0.00  0.00    +0.170 C 
ENDBRANCH  28  30
ENDBRANCH  22  28
ENDBRANCH  19  25
ENDBRANCH  18  19
ENDBRANCH   1  18
TORSDOF 8
