REMARK  Name = ZINCkj00000y7wKr.0
REMARK                            x       y       z     vdW  Elec       q    Type
REMARK                         _______ _______ _______ _____ _____    ______ ____
ROOT
ATOM      1  C   LIG    1        1.485   1.782   0.614  0.00  0.00    +0.140 C 
ATOM      2  C   LIG    1        1.566   2.892  -0.455  0.00  0.00    +0.100 C 
ATOM      3  C   LIG    1        0.122   3.459  -0.480  0.00  0.00    +0.080 C 
ATOM      4  C   LIG    1       -0.720   2.182  -0.238  0.00  0.00    +0.260 C 
ATOM      5  N   LIG    1        0.069   1.386   0.726  0.00  0.00    -0.390 N 
ATOM      6  H   LIG    1       -0.027   0.404   0.515  0.00  0.00    +0.420 HD
ENDROOT
BRANCH   1   7
ATOM      7  C   LIG    1        2.329   0.579   0.186  0.00  0.00    +0.330 C 
BRANCH   7  10
ATOM      8  C   LIG    1        3.737   0.697   2.650  0.00  0.00    +0.100 C 
ATOM      9  C   LIG    1        2.899  -0.504   2.293  0.00  0.00    +0.510 C 
ATOM     10  N   LIG    1        2.168  -0.502   1.161  0.00  0.00    -0.610 N 
ATOM     11  O   LIG    1        2.884  -1.472   3.023  0.00  0.00    -0.500 OA
BRANCH  10  12
ATOM     12  C   LIG    1        1.211  -1.582   0.905  0.00  0.00    +0.150 C 
ATOM     13  C   LIG    1        0.807  -2.463   2.090  0.00  0.00    +0.050 C 
ATOM     14  C   LIG    1        1.727  -3.020   1.000  0.00  0.00    +0.050 C 
ENDBRANCH  10  12
ENDBRANCH   7  10
ENDBRANCH   1   7
BRANCH   5  15
ATOM     15  C   LIG    1       -0.412   1.649   2.089  0.00  0.00    +0.240 C 
BRANCH  15  16
ATOM     16  C   LIG    1       -1.838   1.116   2.239  0.00  0.00    +0.310 C 
BRANCH  16  17
ATOM     17  N   LIG    1       -2.317   1.379   3.598  0.00  0.00    -0.470 N 
ATOM     18  C   LIG    1       -2.981   2.498   4.024  0.00  0.00    +0.120 A 
ATOM     19  C   LIG    1       -3.232   2.326   5.336  0.00  0.00    +0.170 A 
ATOM     20  N   LIG    1       -2.736   1.134   5.701  0.00  0.00    -0.480 NA
ATOM     21  C   LIG    1       -2.192   0.559   4.664  0.00  0.00    +0.400 A 
ENDBRANCH  16  17
ENDBRANCH  15  16
ENDBRANCH   5  15
TORSDOF 6
