REMARK  Name = ZINCkj00000y7wKr.1
REMARK                            x       y       z     vdW  Elec       q    Type
REMARK                         _______ _______ _______ _____ _____    ______ ____
ROOT
ATOM      1  C   LIG    1        2.056  -4.122  -2.825  0.00  0.00    +0.140 C 
ATOM      2  C   LIG    1        3.453  -4.766  -2.911  0.00  0.00    +0.090 C 
ATOM      3  C   LIG    1        3.798  -5.051  -1.425  0.00  0.00    +0.080 C 
ATOM      4  C   LIG    1        3.154  -3.834  -0.715  0.00  0.00    +0.260 C 
ATOM      5  N   LIG    1        1.905  -3.578  -1.463  0.00  0.00    -0.380 N 
ATOM      6  H   LIG    1        1.132  -4.033  -1.000  0.00  0.00    +0.430 HD
ENDROOT
BRANCH   1   7
ATOM      7  C   LIG    1        1.940  -2.994  -3.852  0.00  0.00    +0.310 C 
BRANCH   7  10
ATOM      8  C   LIG    1       -0.449  -3.907  -5.079  0.00  0.00    +0.100 C 
ATOM      9  C   LIG    1        0.880  -4.050  -5.775  0.00  0.00    +0.510 C 
ATOM     10  N   LIG    1        1.996  -3.556  -5.204  0.00  0.00    -0.580 N 
ATOM     11  O   LIG    1        0.945  -4.608  -6.850  0.00  0.00    -0.500 OA
BRANCH  10  12
ATOM     12  C   LIG    1        3.266  -3.582  -5.934  0.00  0.00    +0.180 C 
ATOM     13  C   LIG    1        3.207  -3.819  -7.444  0.00  0.00    +0.060 C 
ATOM     14  C   LIG    1        3.719  -4.923  -6.516  0.00  0.00    +0.020 C 
ENDBRANCH  10  12
ENDBRANCH   7  10
ENDBRANCH   1   7
BRANCH   5  15
ATOM     15  C   LIG    1        1.658  -2.132  -1.533  0.00  0.00    +0.240 C 
BRANCH  15  16
ATOM     16  C   LIG    1        1.394  -1.591  -0.126  0.00  0.00    +0.320 C 
BRANCH  16  17
ATOM     17  N   LIG    1        1.027  -0.175  -0.208  0.00  0.00    -0.470 N 
ATOM     18  C   LIG    1       -0.225   0.328  -0.437  0.00  0.00    +0.120 A 
ATOM     19  C   LIG    1       -0.113   1.670  -0.433  0.00  0.00    +0.170 A 
ATOM     20  N   LIG    1        1.173   1.978  -0.208  0.00  0.00    -0.480 NA
ATOM     21  C   LIG    1        1.862   0.878  -0.073  0.00  0.00    +0.400 A 
ENDBRANCH  16  17
ENDBRANCH  15  16
ENDBRANCH   5  15
TORSDOF 6
