REMARK  Name = ZINCtV00000L6l3x.0
REMARK                            x       y       z     vdW  Elec       q    Type
REMARK                         _______ _______ _______ _____ _____    ______ ____
ROOT
ATOM      1  P   LIG    1        3.854   2.994  -2.734  0.00  0.00    +2.570 P 
ATOM      2  O   LIG    1        3.209   4.326  -2.747  0.00  0.00    -1.030 OA
ENDROOT
BRANCH   1   3
ATOM      3  C   LIG    1        3.531   2.151  -4.307  0.00  0.00    -0.740 A 
ATOM      4  C   LIG    1        2.477   1.262  -4.412  0.00  0.00    +0.050 A 
ATOM      5  C   LIG    1        2.228   0.623  -5.612  0.00  0.00    +0.000 A 
ATOM      6  C   LIG    1        3.039   0.865  -6.705  0.00  0.00    +0.050 A 
ATOM      7  C   LIG    1        4.096   1.749  -6.599  0.00  0.00    +0.000 A 
ATOM      8  C   LIG    1        4.342   2.392  -5.400  0.00  0.00    +0.070 A 
ENDBRANCH   1   3
BRANCH   1   9
ATOM      9  N   LIG    1        5.472   3.172  -2.531  0.00  0.00    -1.100 N 
ATOM     10  H   LIG    1        5.867   4.058  -2.534  0.00  0.00    +0.430 HD
BRANCH   9  11
ATOM     11  C   LIG    1        6.283   2.045  -2.354  0.00  0.00    +0.120 A 
ATOM     12  C   LIG    1        5.735   0.773  -2.452  0.00  0.00    -0.030 A 
ATOM     13  C   LIG    1        6.536  -0.339  -2.283  0.00  0.00    -0.020 A 
ATOM     14  C   LIG    1        7.888  -0.185  -2.003  0.00  0.00    +0.190 A 
ATOM     15  C   LIG    1        8.435   1.087  -1.900  0.00  0.00    -0.030 A 
ATOM     16  C   LIG    1        7.635   2.199  -2.075  0.00  0.00    +0.020 A 
BRANCH  14  17
ATOM     17  N   LIG    1        8.699  -1.312  -1.826  0.00  0.00    -0.640 N 
ATOM     18  C   LIG    1        8.122  -2.655  -1.935  0.00  0.00    +0.270 C 
ATOM     19  C   LIG    1       10.125  -1.150  -1.532  0.00  0.00    +0.280 C 
ENDBRANCH  14  17
ENDBRANCH   9  11
ENDBRANCH   1   9
BRANCH   1  20
ATOM     20  O   LIG    1        3.254   2.119  -1.523  0.00  0.00    -0.750 OA
BRANCH  20  27
ATOM     21  C   LIG    1        1.403   2.576  -0.038  0.00  0.00    -0.010 C 
ATOM     22  C   LIG    1       -0.096   2.347   0.161  0.00  0.00    +0.020 C 
ATOM     23  C   LIG    1       -0.376   0.845   0.239  0.00  0.00    +0.020 C 
ATOM     24  C   LIG    1        0.075   0.173  -1.059  0.00  0.00    -0.010 C 
ATOM     25  C   LIG    1        1.574   0.403  -1.258  0.00  0.00    +0.010 C 
ATOM     26  C   LIG    1       -0.694   0.774  -2.238  0.00  0.00    +0.010 C 
ATOM     27  C   LIG    1        1.854   1.905  -1.337  0.00  0.00    +0.220 C 
BRANCH  21  29
ATOM     28  C   LIG    1        0.810   4.703  -1.208  0.00  0.00    +0.020 C 
ATOM     29  C   LIG    1        1.683   4.079  -0.117  0.00  0.00    -0.010 C 
ATOM     30  C   LIG    1        1.359   4.729   1.229  0.00  0.00    +0.010 C 
ENDBRANCH  21  29
ENDBRANCH  20  27
ENDBRANCH   1  20
TORSDOF 7
