REMARK  Name = ZINCpk00000eaUee.0
REMARK                            x       y       z     vdW  Elec       q    Type
REMARK                         _______ _______ _______ _____ _____    ______ ____
ROOT
ATOM      1  C   LIG    1        0.871   3.566   0.006  0.00  0.00    +0.560 C 
ATOM      2  N   LIG    1       -0.348   4.123   0.149  0.00  0.00    -0.610 N 
ATOM      3  C   LIG    1       -1.626   3.390   0.201  0.00  0.00    +0.250 C 
ATOM      4  C   LIG    1       -2.590   4.332   0.970  0.00  0.00    +0.040 C 
ATOM      5  C   LIG    1       -2.149   5.723   0.443  0.00  0.00    +0.040 C 
ATOM      6  C   LIG    1       -0.624   5.561   0.274  0.00  0.00    +0.220 C 
ATOM      7  O   LIG    1        1.857   4.273  -0.066  0.00  0.00    -0.480 OA
ENDROOT
BRANCH   1  11
ATOM      8  C   LIG    1        3.614  -0.544   0.682  0.00  0.00    +0.110 C 
ATOM      9  C   LIG    1        2.327   0.116   0.260  0.00  0.00    -0.060 A 
ATOM     10  C   LIG    1        2.203   1.486   0.326  0.00  0.00    +0.100 A 
ATOM     11  C   LIG    1        1.008   2.097  -0.065  0.00  0.00    -0.100 A 
ATOM     12  C   LIG    1       -0.055   1.316  -0.523  0.00  0.00    +0.050 A 
ATOM     13  C   LIG    1        0.077  -0.054  -0.587  0.00  0.00    +0.030 A 
ATOM     14  C   LIG    1        1.266  -0.659  -0.197  0.00  0.00    +0.130 A 
BRANCH  14  15
ATOM     15  N   LIG    1        1.397  -2.051  -0.263  0.00  0.00    -0.330 N 
ATOM     16  C   LIG    1        0.527  -2.979   0.192  0.00  0.00    +0.470 A 
ATOM     17  N   LIG    1        1.037  -4.153  -0.076  0.00  0.00    -0.330 NA
ATOM     18  N   LIG    1        2.173  -4.030  -0.662  0.00  0.00    -0.030 NA
ATOM     19  N   LIG    1        2.464  -2.783  -0.813  0.00  0.00    -0.070 NA
ENDBRANCH  14  15
ENDBRANCH   1  11
BRANCH   6  20
ATOM     20  C   LIG    1       -0.160   6.292  -0.988  0.00  0.00    +0.310 C 
BRANCH  20  21
ATOM     21  N   LIG    1        1.297   6.190  -1.103  0.00  0.00    -0.360 N 
ATOM     22  C   LIG    1        1.978   5.712  -2.166  0.00  0.00    +0.210 A 
ATOM     23  C   LIG    1        3.298   5.787  -1.877  0.00  0.00    -0.130 A 
ATOM     24  C   LIG    1        3.428   6.330  -0.595  0.00  0.00    +0.220 A 
ATOM     25  N   LIG    1        2.230   6.577  -0.132  0.00  0.00    -0.270 NA
ENDBRANCH  20  21
ENDBRANCH   6  20
TORSDOF 4
