REMARK  Name = ZINCqH0000008u4g.0
REMARK                            x       y       z     vdW  Elec       q    Type
REMARK                         _______ _______ _______ _____ _____    ______ ____
ROOT
ATOM      1  C   LIG    1       -1.231   1.759   0.017  0.00  0.00    -0.160 A 
ATOM      2  C   LIG    1       -0.013   1.076   0.008  0.00  0.00    +0.130 A 
ATOM      3  C   LIG    1        1.171   1.782   0.001  0.00  0.00    -0.030 A 
ATOM      4  C   LIG    1        1.158   3.167   0.007  0.00  0.00    +0.090 A 
ATOM      5  C   LIG    1       -0.039   3.855   0.022  0.00  0.00    -0.090 A 
ATOM      6  C   LIG    1       -1.240   3.161   0.030  0.00  0.00    +0.190 A 
ENDROOT
BRANCH   1   7
ATOM      7  C   LIG    1       -2.501   1.010   0.020  0.00  0.00    +0.510 C 
ATOM      8  O   LIG    1       -3.559   1.608   0.028  0.00  0.00    -0.480 OA
BRANCH   7   9
ATOM      9  O   LIG    1       -2.489  -0.337   0.013  0.00  0.00    -0.330 OA
BRANCH   9  11
ATOM     10  C   LIG    1       -4.221  -1.252   1.459  0.00  0.00    +0.070 C 
ATOM     11  C   LIG    1       -3.776  -1.008   0.016  0.00  0.00    +0.180 C 
BRANCH  11  12
ATOM     12  C   LIG    1       -3.656  -2.328  -0.702  0.00  0.00    +0.520 C 
ATOM     13  N   LIG    1       -4.753  -3.083  -0.912  0.00  0.00    -0.700 N 
ATOM     14  H   LIG    1       -5.619  -2.776  -0.602  0.00  0.00    +0.400 HD
ATOM     15  O   LIG    1       -2.573  -2.711  -1.090  0.00  0.00    -0.510 OA
BRANCH  13  16
ATOM     16  C   LIG    1       -4.636  -4.366  -1.610  0.00  0.00    +0.220 C 
ATOM     17  C   LIG    1       -5.687  -4.689  -2.674  0.00  0.00    +0.010 C 
ATOM     18  C   LIG    1       -5.707  -5.422  -1.330  0.00  0.00    +0.020 C 
ENDBRANCH  13  16
ENDBRANCH  11  12
ENDBRANCH   9  11
ENDBRANCH   7   9
ENDBRANCH   1   7
BRANCH   6  19
ATOM     19  O   LIG    1       -2.416   3.836   0.044  0.00  0.00    -0.280 OA
BRANCH  19  20
ATOM     20  C   LIG    1       -2.346   5.263   0.051  0.00  0.00    +0.250 C 
BRANCH  20  21
ATOM     21  C   LIG    1       -3.740   5.835   0.067  0.00  0.00    -0.090 A 
ATOM     22  C   LIG    1       -4.389   6.108  -1.123  0.00  0.00    +0.050 A 
ATOM     23  C   LIG    1       -5.669   6.628  -1.109  0.00  0.00    +0.030 A 
ATOM     24  C   LIG    1       -6.298   6.885   0.096  0.00  0.00    -0.020 A 
ATOM     25  C   LIG    1       -5.647   6.616   1.286  0.00  0.00    +0.030 A 
ATOM     26 CL   LIG    1       -7.904   7.545   0.114  0.00  0.00    -0.070 Cl
ATOM     27  C   LIG    1       -4.368   6.090   1.271  0.00  0.00    +0.050 A 
ENDBRANCH  20  21
ENDBRANCH  19  20
ENDBRANCH   6  19
TORSDOF 8
