REMARK  Name = ZINCvU00000005Rz.0
REMARK                            x       y       z     vdW  Elec       q    Type
REMARK                         _______ _______ _______ _____ _____    ______ ____
ROOT
ATOM      1  N   LIG    1       -0.440   2.649   2.481  0.00  0.00    -0.220 N 
ATOM      2  N   LIG    1       -1.604   2.879   2.973  0.00  0.00    -0.250 NA
ATOM      3  C   LIG    1       -2.499   2.949   2.007  0.00  0.00    +0.010 A 
ATOM      4  C   LIG    1       -1.811   2.739   0.790  0.00  0.00    -0.150 A 
ATOM      5  C   LIG    1       -1.987   2.649  -0.707  0.00  0.00    +0.110 C 
ATOM      6  C   LIG    1       -0.563   2.808  -1.286  0.00  0.00    +0.060 C 
ATOM      7  C   LIG    1        0.316   2.318  -0.114  0.00  0.00    +0.130 C 
ATOM      8  C   LIG    1       -0.514   2.554   1.128  0.00  0.00    -0.010 A 
ENDROOT
BRANCH   1  12
ATOM      9  C   LIG    1        3.059   2.251   4.711  0.00  0.00    -0.070 A 
ATOM     10  C   LIG    1        2.082   3.143   5.114  0.00  0.00    +0.030 A 
ATOM     11  C   LIG    1        0.921   3.277   4.377  0.00  0.00    +0.040 A 
ATOM     12  C   LIG    1        0.736   2.516   3.231  0.00  0.00    +0.120 A 
ATOM     13  C   LIG    1        1.717   1.617   2.831  0.00  0.00    +0.020 A 
ATOM     14  C   LIG    1        2.877   1.491   3.570  0.00  0.00    +0.040 A 
BRANCH   9  16
ATOM     15  C   LIG    1        4.130   1.021   6.579  0.00  0.00    +0.030 C 
ATOM     16  C   LIG    1        4.324   2.106   5.517  0.00  0.00    +0.070 C 
ENDBRANCH   9  16
ENDBRANCH   1  12
BRANCH   3  17
ATOM     17  C   LIG    1       -3.946   3.198   2.167  0.00  0.00    +0.600 C 
ATOM     18  N   LIG    1       -4.484   3.280   3.400  0.00  0.00    -0.600 N 
ATOM     19  C   LIG    1       -3.624   3.183   4.582  0.00  0.00    +0.290 C 
ATOM     20  O   LIG    1       -4.652   3.330   1.185  0.00  0.00    -0.520 OA
BRANCH  18  21
ATOM     21  C   LIG    1       -5.928   3.467   3.558  0.00  0.00    +0.340 C 
BRANCH  21  22
ATOM     22  C   LIG    1       -6.604   2.122   3.627  0.00  0.00    -0.100 A 
ATOM     23  C   LIG    1       -6.776   1.520   4.835  0.00  0.00    +0.040 A 
ATOM     24  C   LIG    1       -7.406   0.265   4.903  0.00  0.00    -0.050 A 
ATOM     25  C   LIG    1       -7.602  -0.388   6.132  0.00  0.00    +0.020 A 
ATOM     26  C   LIG    1       -8.216  -1.602   6.159  0.00  0.00    +0.000 A 
ATOM     27  C   LIG    1       -8.655  -2.210   4.985  0.00  0.00    +0.000 A 
ATOM     28  C   LIG    1       -8.482  -1.608   3.777  0.00  0.00    +0.020 A 
ATOM     29  C   LIG    1       -7.853  -0.354   3.709  0.00  0.00    -0.050 A 
ATOM     30  C   LIG    1       -7.657   0.299   2.480  0.00  0.00    +0.020 A 
ATOM     31  C   LIG    1       -7.048   1.516   2.453  0.00  0.00    +0.040 A 
ENDBRANCH  21  22
ENDBRANCH  18  21
ENDBRANCH   3  17
TORSDOF 5
