REMARK  Name = ZINCqH0000003QcW.0
REMARK                            x       y       z     vdW  Elec       q    Type
REMARK                         _______ _______ _______ _____ _____    ______ ____
ROOT
ATOM      1  C   LIG    1       -3.044   2.610  -1.807  0.00  0.00    +0.510 C 
ATOM      2  N   LIG    1       -3.476   3.534  -0.927  0.00  0.00    -0.620 N 
ATOM      3  C   LIG    1       -4.879   3.979  -0.924  0.00  0.00    +0.250 C 
ATOM      4  C   LIG    1       -5.414   3.882   0.509  0.00  0.00    +0.210 C 
ATOM      5  O   LIG    1       -4.527   4.575   1.390  0.00  0.00    -0.370 OA
ATOM      6  C   LIG    1       -3.208   4.024   1.445  0.00  0.00    +0.220 C 
ATOM      7  C   LIG    1       -2.560   4.128   0.059  0.00  0.00    +0.240 C 
ATOM      8  O   LIG    1       -1.904   2.200  -1.745  0.00  0.00    -0.500 OA
ENDROOT
BRANCH   7   9
ATOM      9  C   LIG    1       -1.253   3.379   0.053  0.00  0.00    -0.020 A 
ATOM     10  C   LIG    1       -1.191   2.093   0.554  0.00  0.00    +0.020 A 
ATOM     11  C   LIG    1        0.008   1.405   0.549  0.00  0.00    +0.050 A 
ATOM     12  C   LIG    1        1.146   2.002   0.043  0.00  0.00    -0.020 A 
ATOM     13  C   LIG    1        1.086   3.291  -0.460  0.00  0.00    +0.100 A 
ATOM     14  F   LIG    1        2.198   3.876  -0.956  0.00  0.00    -0.140 F 
ATOM     15  C   LIG    1       -0.114   3.981  -0.450  0.00  0.00    -0.020 A 
ENDBRANCH   7   9
BRANCH   1  16
ATOM     16  C   LIG    1       -3.976   2.085  -2.869  0.00  0.00    +0.050 C 
BRANCH  16  17
ATOM     17  C   LIG    1       -3.242   1.055  -3.729  0.00  0.00    +0.110 C 
BRANCH  17  23
ATOM     18  C   LIG    1       -4.331   1.224  -5.981  0.00  0.00    +0.130 A 
ATOM     19  C   LIG    1       -5.185   0.735  -6.959  0.00  0.00    -0.080 A 
ATOM     20  C   LIG    1       -5.887  -0.435  -6.739  0.00  0.00    +0.040 A 
ATOM     21  C   LIG    1       -5.733  -1.121  -5.549  0.00  0.00    -0.040 A 
ATOM     22  C   LIG    1       -4.878  -0.639  -4.575  0.00  0.00    +0.050 A 
ATOM     23  C   LIG    1       -4.174   0.530  -4.790  0.00  0.00    -0.120 A 
BRANCH  18  24
ATOM     24  O   LIG    1       -3.644   2.378  -6.193  0.00  0.00    -0.310 OA
BRANCH  24  26
ATOM     25  C   LIG    1       -3.004   4.309  -7.497  0.00  0.00    +0.070 C 
ATOM     26  C   LIG    1       -3.855   3.038  -7.442  0.00  0.00    +0.170 C 
ENDBRANCH  24  26
ENDBRANCH  18  24
ENDBRANCH  17  23
ENDBRANCH  16  17
ENDBRANCH   1  16
TORSDOF 6
