REMARK  Name = ZINCvU0000000GWd.0
REMARK                            x       y       z     vdW  Elec       q    Type
REMARK                         _______ _______ _______ _____ _____    ______ ____
ROOT
ATOM      1  C   LIG    1       -0.803   3.509  -0.007  0.00  0.00    +0.160 A 
ATOM      2  N   LIG    1        0.469   3.187  -0.103  0.00  0.00    -0.280 NA
ATOM      3  N   LIG    1        0.595   1.913  -0.208  0.00  0.00    -0.250 NA
ATOM      4  C   LIG    1       -0.587   1.341  -0.185  0.00  0.00    +0.230 A 
ATOM      5  N   LIG    1       -1.520   2.347  -0.060  0.00  0.00    -0.410 N 
ENDROOT
BRANCH   5   6
ATOM      6  C   LIG    1       -2.914   2.207   0.001  0.00  0.00    +0.100 A 
ATOM      7  C   LIG    1       -3.623   1.808  -1.125  0.00  0.00    +0.060 A 
ATOM      8  C   LIG    1       -4.995   1.667  -1.061  0.00  0.00    +0.060 A 
ATOM      9  C   LIG    1       -5.665   1.932   0.121  0.00  0.00    -0.020 A 
ATOM     10  C   LIG    1       -4.961   2.334   1.242  0.00  0.00    +0.060 A 
ATOM     11 CL   LIG    1       -7.391   1.760   0.196  0.00  0.00    -0.050 Cl
ATOM     12  C   LIG    1       -3.588   2.472   1.185  0.00  0.00    +0.060 A 
ENDBRANCH   5   6
BRANCH   4  13
ATOM     13  C   LIG    1       -0.863  -0.107  -0.281  0.00  0.00    +0.020 A 
ATOM     14  C   LIG    1       -2.090  -0.635   0.140  0.00  0.00    -0.020 A 
ATOM     15  C   LIG    1       -2.308  -1.992   0.028  0.00  0.00    +0.270 A 
ATOM     16  N   LIG    1       -1.376  -2.790  -0.459  0.00  0.00    -0.470 NA
ATOM     17  C   LIG    1       -0.204  -2.335  -0.862  0.00  0.00    +0.280 A 
ATOM     18  C   LIG    1        0.096  -0.991  -0.791  0.00  0.00    +0.020 A 
ENDBRANCH   4  13
BRANCH   1  19
ATOM     19  S   LIG    1       -1.460   5.136   0.154  0.00  0.00    +0.110 S 
BRANCH  19  20
ATOM     20  C   LIG    1        0.073   6.097   0.142  0.00  0.00    +0.120 C 
BRANCH  20  23
ATOM     21  N   LIG    1        0.741   8.475   0.286  0.00  0.00    -0.660 N 
ATOM     22  H   LIG    1        1.661   8.192   0.161  0.00  0.00    +0.420 HD
ATOM     23  C   LIG    1       -0.252   7.563   0.272  0.00  0.00    +0.540 C 
ATOM     24  O   LIG    1       -1.406   7.923   0.364  0.00  0.00    -0.500 OA
BRANCH  21  32
ATOM     25  C   LIG    1        2.756  10.141   1.407  0.00  0.00    +0.100 C 
ATOM     26  C   LIG    1        1.400  10.677   1.026  0.00  0.00    -0.120 A 
ATOM     27  C   LIG    1        1.108  12.014   1.214  0.00  0.00    +0.070 A 
ATOM     28  C   LIG    1       -0.137  12.507   0.870  0.00  0.00    -0.020 A 
ATOM     29  C   LIG    1       -1.094  11.662   0.332  0.00  0.00    +0.120 A 
ATOM     30  C   LIG    1       -0.805  10.323   0.137  0.00  0.00    +0.000 A 
ATOM     31  F   LIG    1       -2.310  12.146  -0.002  0.00  0.00    -0.130 F 
ATOM     32  C   LIG    1        0.446   9.828   0.482  0.00  0.00    +0.170 A 
ENDBRANCH  21  32
ENDBRANCH  20  23
ENDBRANCH  19  20
ENDBRANCH   1  19
TORSDOF 6
