REMARK  Name = ZINCrg00000fS3MT.0
REMARK                            x       y       z     vdW  Elec       q    Type
REMARK                         _______ _______ _______ _____ _____    ______ ____
ROOT
ATOM      1  C   LIG    1        2.407  -2.733  -0.138  0.00  0.00    +0.510 C 
ATOM      2  N   LIG    1        1.236  -2.077  -0.021  0.00  0.00    -0.640 N 
ATOM      3  H   LIG    1        0.407  -2.575   0.061  0.00  0.00    +0.430 HD
ATOM      4  O   LIG    1        3.451  -2.114  -0.144  0.00  0.00    -0.490 OA
ENDROOT
BRANCH   2   5
ATOM      5  C   LIG    1        1.215  -0.679  -0.019  0.00  0.00    +0.150 A 
ATOM      6  C   LIG    1        0.270  -0.001   0.743  0.00  0.00    +0.040 A 
ATOM      7  C   LIG    1        0.245   1.380   0.748  0.00  0.00    +0.060 A 
ATOM      8  C   LIG    1        1.165   2.090  -0.007  0.00  0.00    +0.060 A 
ATOM      9  C   LIG    1        2.116   1.414  -0.773  0.00  0.00    +0.060 A 
ATOM     10  O   LIG    1        2.874   2.351  -1.393  0.00  0.00    -0.230 OA
ATOM     11  C   LIG    1        2.433   3.572  -1.052  0.00  0.00    +0.640 A 
ATOM     12  O   LIG    1        2.903   4.623  -1.444  0.00  0.00    -0.480 OA
ATOM     13  N   LIG    1        1.392   3.454  -0.205  0.00  0.00    -0.550 N 
ATOM     14  C   LIG    1        0.636   4.554   0.398  0.00  0.00    +0.360 C 
ATOM     15  C   LIG    1        2.138   0.029  -0.777  0.00  0.00    +0.070 A 
ENDBRANCH   2   5
BRANCH   1  18
ATOM     16  N   LIG    1        3.592  -4.877  -0.375  0.00  0.00    -0.690 N 
ATOM     17  H   LIG    1        4.427  -4.383  -0.381  0.00  0.00    +0.410 HD
ATOM     18  C   LIG    1        2.421  -4.221  -0.259  0.00  0.00    +0.510 C 
ATOM     19  O   LIG    1        1.377  -4.840  -0.253  0.00  0.00    -0.510 OA
BRANCH  16  20
ATOM     20  C   LIG    1        3.605  -6.338  -0.494  0.00  0.00    +0.360 C 
BRANCH  20  27
ATOM     21  C   LIG    1        5.824  -6.943   0.522  0.00  0.00    +0.350 A 
ATOM     22  N   LIG    1        7.074  -7.365   0.424  0.00  0.00    -0.540 NA
ATOM     23  C   LIG    1        7.609  -7.682  -0.740  0.00  0.00    +0.180 A 
ATOM     24  C   LIG    1        6.876  -7.584  -1.905  0.00  0.00    -0.070 A 
ATOM     25  C   LIG    1        5.559  -7.150  -1.845  0.00  0.00    +0.140 A 
ATOM     26  C   LIG    1        9.037  -8.158  -0.797  0.00  0.00    +0.130 C 
ATOM     27  C   LIG    1        5.029  -6.819  -0.610  0.00  0.00    -0.200 A 
BRANCH  21  29
ATOM     28  C   LIG    1        6.183  -6.776   2.864  0.00  0.00    +0.260 C 
ATOM     29  O   LIG    1        5.315  -6.627   1.739  0.00  0.00    -0.300 OA
ENDBRANCH  21  29
ENDBRANCH  20  27
ENDBRANCH  16  20
ENDBRANCH   1  18
TORSDOF 5
