REMARK  Name = ZINCvU0000000D0J.0
REMARK                            x       y       z     vdW  Elec       q    Type
REMARK                         _______ _______ _______ _____ _____    ______ ____
ROOT
ATOM      1  C   LIG    1        4.215   8.323  -0.549  0.00  0.00    +0.310 C 
ENDROOT
BRANCH   1   6
ATOM      2  C   LIG    1        3.959   8.972   1.783  0.00  0.00    +0.190 C 
ATOM      3  C   LIG    1        4.804   8.777   3.068  0.00  0.00    +0.030 C 
ATOM      4  C   LIG    1        5.690   7.560   2.717  0.00  0.00    +0.000 C 
ATOM      5  C   LIG    1        5.720   7.514   1.178  0.00  0.00    +0.180 C 
ATOM      6  N   LIG    1        4.920   8.660   0.694  0.00  0.00    -0.500 NA
BRANCH   2  11
ATOM      7  C   LIG    1        3.762  12.630   0.852  0.00  0.00    +0.090 A 
ATOM      8  C   LIG    1        2.585  13.012   1.478  0.00  0.00    -0.040 A 
ATOM      9  C   LIG    1        1.855  12.088   2.202  0.00  0.00    -0.040 A 
ATOM     10  C   LIG    1        2.297  10.777   2.297  0.00  0.00    +0.090 A 
ATOM     11  C   LIG    1        3.477  10.396   1.675  0.00  0.00    -0.060 A 
ATOM     12  C   LIG    1        4.206  11.319   0.953  0.00  0.00    +0.060 A 
BRANCH   7  14
ATOM     13  C   LIG    1        3.963  14.869   0.079  0.00  0.00    +0.230 C 
ATOM     14  O   LIG    1        4.479  13.539   0.140  0.00  0.00    -0.320 OA
ENDBRANCH   7  14
BRANCH  10  15
ATOM     15  O   LIG    1        1.576   9.867   3.005  0.00  0.00    -0.310 OA
ATOM     16  C   LIG    1        0.371  10.329   3.619  0.00  0.00    +0.230 C 
ENDBRANCH  10  15
ENDBRANCH   2  11
ENDBRANCH   1   6
BRANCH   1  17
ATOM     17  C   LIG    1        3.122   7.329  -0.253  0.00  0.00    +0.060 A 
ATOM     18  C   LIG    1        1.857   7.693  -0.028  0.00  0.00    -0.080 A 
ATOM     19  S   LIG    1        0.914   6.235   0.269  0.00  0.00    +0.140 S 
ATOM     20  C   LIG    1        2.315   5.276   0.069  0.00  0.00    +0.270 A 
ATOM     21  N   LIG    1        3.337   6.028  -0.195  0.00  0.00    -0.460 NA
BRANCH  20  22
ATOM     22  N   LIG    1        2.352   3.888   0.169  0.00  0.00    -0.480 N 
ATOM     23  C   LIG    1        3.530   3.238   0.095  0.00  0.00    +0.510 C 
ATOM     24  O   LIG    1        4.566   3.866   0.034  0.00  0.00    -0.470 OA
ATOM     25  C   LIG    1        3.560   1.732   0.087  0.00  0.00    +0.110 C 
BRANCH  22  26
ATOM     26  C   LIG    1        1.164   3.167   0.347  0.00  0.00    +0.100 A 
ATOM     27  C   LIG    1        0.413   2.780  -0.754  0.00  0.00    +0.030 A 
ATOM     28  C   LIG    1       -0.758   2.070  -0.575  0.00  0.00    +0.020 A 
ATOM     29  C   LIG    1       -1.185   1.748   0.700  0.00  0.00    +0.030 A 
ATOM     30  C   LIG    1       -0.436   2.127   1.799  0.00  0.00    +0.020 A 
ATOM     31  C   LIG    1        0.736   2.838   1.627  0.00  0.00    +0.030 A 
ENDBRANCH  22  26
ENDBRANCH  20  22
ENDBRANCH   1  17
TORSDOF 7
