REMARK  Name = ZINCpk000000nlHZ.1
REMARK                            x       y       z     vdW  Elec       q    Type
REMARK                         _______ _______ _______ _____ _____    ______ ____
ROOT
ATOM      1  C   LIG    1       -0.816   3.404   4.848  0.00  0.00    +0.520 C 
ATOM      2  N   LIG    1       -1.101   2.753   3.703  0.00  0.00    -0.610 N 
ATOM      3  C   LIG    1       -1.023   1.286   3.629  0.00  0.00    +0.300 C 
ATOM      4  C   LIG    1       -0.165   0.904   2.418  0.00  0.00    +0.170 C 
ATOM      5  N   LIG    1       -0.700   1.560   1.217  0.00  0.00    -0.540 NA
ATOM      6  C   LIG    1       -0.622   3.022   1.328  0.00  0.00    +0.170 C 
ATOM      7  C   LIG    1       -1.499   3.490   2.494  0.00  0.00    +0.280 C 
ATOM      8  O   LIG    1       -0.489   2.779   5.835  0.00  0.00    -0.530 OA
ENDROOT
BRANCH   1   9
ATOM      9  C   LIG    1       -0.902   4.907   4.902  0.00  0.00    +0.070 C 
BRANCH   9  10
ATOM     10  C   LIG    1       -0.531   5.389   6.305  0.00  0.00    +0.220 C 
BRANCH  10  14
ATOM     11  C   LIG    1       -1.283   8.888   6.590  0.00  0.00    +0.180 A 
ATOM     12  N   LIG    1       -0.035   8.893   6.229  0.00  0.00    -0.380 NA
ATOM     13  O   LIG    1        0.369   7.757   6.096  0.00  0.00    +0.080 OA
ATOM     14  C   LIG    1       -0.617   6.893   6.359  0.00  0.00    +0.180 A 
ATOM     15  N   LIG    1       -1.672   7.604   6.678  0.00  0.00    -0.470 NA
BRANCH  11  17
ATOM     16  C   LIG    1       -2.640  10.058   8.304  0.00  0.00    +0.060 C 
ATOM     17  C   LIG    1       -2.138  10.100   6.859  0.00  0.00    +0.020 C 
ATOM     18  C   LIG    1       -3.333  10.103   5.904  0.00  0.00    +0.060 C 
ATOM     19  C   LIG    1       -1.309  11.367   6.644  0.00  0.00    +0.050 C 
ENDBRANCH  11  17
ENDBRANCH  10  14
ENDBRANCH   9  10
ENDBRANCH   1   9
BRANCH   5  20
ATOM     20  C   LIG    1       -0.013   1.086   0.008  0.00  0.00    +0.190 C 
BRANCH  20  21
ATOM     21  C   LIG    1       -0.753   1.593  -1.232  0.00  0.00    -0.030 C 
ATOM     22  C   LIG    1       -0.062   1.094  -2.530  0.00  0.00    +0.010 C 
ATOM     23  C   LIG    1       -1.262   1.064  -3.509  0.00  0.00    +0.200 C 
ATOM     24  O   LIG    1       -2.382   0.637  -2.716  0.00  0.00    -0.390 OA
ATOM     25  C   LIG    1       -2.152   0.949  -1.337  0.00  0.00    +0.210 C 
ENDBRANCH  20  21
ENDBRANCH   5  20
TORSDOF 6
