REMARK  Name = ZINCpk000000nlHz.0
REMARK                            x       y       z     vdW  Elec       q    Type
REMARK                         _______ _______ _______ _____ _____    ______ ____
ROOT
ATOM      1  C   LIG    1       -0.185   7.929  -0.230  0.00  0.00    +0.500 C 
ATOM      2  N   LIG    1        0.821   7.048  -0.065  0.00  0.00    -0.660 N 
ATOM      3  H   LIG    1        1.735   7.364   0.009  0.00  0.00    +0.410 HD
ATOM      4  O   LIG    1       -1.335   7.544  -0.227  0.00  0.00    -0.490 OA
ENDROOT
BRANCH   2   5
ATOM      5  C   LIG    1        0.547   5.675  -0.000  0.00  0.00    +0.120 A 
ATOM      6  C   LIG    1       -0.502   5.141  -0.737  0.00  0.00    +0.050 A 
ATOM      7  C   LIG    1       -0.772   3.789  -0.673  0.00  0.00    +0.010 A 
ATOM      8  C   LIG    1        0.005   2.963   0.129  0.00  0.00    +0.100 A 
ATOM      9  C   LIG    1        1.050   3.498   0.870  0.00  0.00    -0.020 A 
ATOM     10  C   LIG    1        1.324   4.850   0.801  0.00  0.00    +0.020 A 
BRANCH   8  11
ATOM     11  N   LIG    1       -0.269   1.593   0.194  0.00  0.00    -0.490 N 
ATOM     12  C   LIG    1        0.670   0.910   1.096  0.00  0.00    +0.160 C 
ATOM     13  C   LIG    1        0.298  -0.573   1.184  0.00  0.00    +0.220 C 
ATOM     14  O   LIG    1        0.301  -1.139  -0.129  0.00  0.00    -0.380 OA
ATOM     15  C   LIG    1       -0.602  -0.498  -1.034  0.00  0.00    +0.220 C 
ATOM     16  C   LIG    1       -0.240   0.985  -1.145  0.00  0.00    +0.160 C 
ENDBRANCH   8  11
ENDBRANCH   2   5
BRANCH   1  17
ATOM     17  C   LIG    1        0.118   9.393  -0.418  0.00  0.00    +0.380 C 
BRANCH  17  22
ATOM     18  C   LIG    1       -1.803  10.790   0.394  0.00  0.00    +0.210 A 
ATOM     19  N   LIG    1       -2.865  11.313  -0.169  0.00  0.00    -0.300 NA
ATOM     20  N   LIG    1       -2.850  10.997  -1.418  0.00  0.00    -0.070 NA
ATOM     21  N   LIG    1       -1.803  10.290  -1.668  0.00  0.00    -0.080 NA
ATOM     22  N   LIG    1       -1.135  10.136  -0.575  0.00  0.00    -0.300 N 
BRANCH  18  24
ATOM     23  C   LIG    1       -0.112  11.704   1.960  0.00  0.00    +0.050 C 
ATOM     24  C   LIG    1       -1.408  10.898   1.844  0.00  0.00    +0.010 C 
ATOM     25  C   LIG    1       -1.191   9.497   2.420  0.00  0.00    +0.050 C 
ATOM     26  C   LIG    1       -2.519  11.604   2.624  0.00  0.00    +0.080 C 
ENDBRANCH  18  24
ENDBRANCH  17  22
ENDBRANCH   1  17
TORSDOF 5
