REMARK  Name = ZINCrg000000rhXY.0
REMARK                            x       y       z     vdW  Elec       q    Type
REMARK                         _______ _______ _______ _____ _____    ______ ____
ROOT
ATOM      1  C   LIG    1        0.033  -2.771  -0.009  0.00  0.00    +0.150 A 
ATOM      2  C   LIG    1        0.041  -2.085   1.199  0.00  0.00    +0.020 A 
ATOM      3  C   LIG    1        0.016  -0.704   1.208  0.00  0.00    +0.050 A 
ATOM      4  C   LIG    1       -0.017  -0.004   0.016  0.00  0.00    -0.110 A 
ATOM      5  C   LIG    1       -0.030  -0.684  -1.188  0.00  0.00    +0.060 A 
ATOM      6  C   LIG    1       -0.001  -2.065  -1.204  0.00  0.00    -0.010 A 
ENDROOT
BRANCH   4   7
ATOM      7  C   LIG    1       -0.044   1.502   0.029  0.00  0.00    +0.170 C 
ATOM      8  N   LIG    1       -0.795   1.997   1.196  0.00  0.00    -0.720 N 
ATOM      9  H   LIG    1       -0.579   1.848   2.130  0.00  0.00    +0.440 HD
ATOM     10  C   LIG    1       -1.841   2.694   0.708  0.00  0.00    +0.710 C 
ATOM     11  N   LIG    1       -1.863   2.717  -0.629  0.00  0.00    -0.680 N 
ATOM     12  H   LIG    1       -2.540   3.170  -1.156  0.00  0.00    +0.440 HD
ATOM     13  O   LIG    1       -2.671   3.242   1.407  0.00  0.00    -0.540 OA
ATOM     14  C   LIG    1        1.379   2.065   0.027  0.00  0.00    +0.100 C 
ATOM     15  C   LIG    1       -0.828   2.032  -1.155  0.00  0.00    +0.540 C 
ATOM     16  O   LIG    1       -0.577   1.873  -2.330  0.00  0.00    -0.460 OA
ENDBRANCH   4   7
BRANCH   1  18
ATOM     17  C   LIG    1        0.758  -4.839   0.916  0.00  0.00    +0.520 C 
ATOM     18  N   LIG    1        0.059  -4.170  -0.021  0.00  0.00    -0.670 N 
ATOM     19  H   LIG    1       -0.427  -4.658  -0.704  0.00  0.00    +0.420 HD
ATOM     20  O   LIG    1        1.297  -4.234   1.819  0.00  0.00    -0.510 OA
BRANCH  17  22
ATOM     21  C   LIG    1        1.544  -6.737  -0.473  0.00  0.00    +0.060 C 
ATOM     22  C   LIG    1        0.873  -6.340   0.843  0.00  0.00    +0.250 C 
BRANCH  22  23
ATOM     23  N   LIG    1        1.677  -6.824   1.967  0.00  0.00    -0.710 N 
ATOM     24  H   LIG    1        2.325  -6.237   2.389  0.00  0.00    +0.410 HD
ATOM     25  C   LIG    1        1.519  -8.085   2.416  0.00  0.00    +0.600 C 
ATOM     26  O   LIG    1        0.708  -8.821   1.887  0.00  0.00    -0.530 OA
BRANCH  25  27
ATOM     27  C   LIG    1        2.329  -8.572   3.546  0.00  0.00    -0.240 A 
ATOM     28  C   LIG    1        3.278  -7.880   4.239  0.00  0.00    +0.240 A 
ATOM     29  O   LIG    1        3.774  -8.680   5.189  0.00  0.00    -0.170 OA
ATOM     30  C   LIG    1        3.194  -9.889   5.148  0.00  0.00    +0.170 A 
ATOM     31  C   LIG    1        2.286  -9.908   4.160  0.00  0.00    +0.000 A 
ENDBRANCH  25  27
ENDBRANCH  22  23
ENDBRANCH  17  22
ENDBRANCH   1  18
TORSDOF 5
