REMARK  Name = ZINCkj00000a7Ljw.0
REMARK                            x       y       z     vdW  Elec       q    Type
REMARK                         _______ _______ _______ _____ _____    ______ ____
ROOT
ATOM      1  C   LIG    1        0.002   1.511  -0.002  0.00  0.00    -0.030 C 
ATOM      2  C   LIG    1       -0.857   2.176  -1.111  0.00  0.00    +0.070 C 
ATOM      3  C   LIG    1       -2.300   1.939  -0.619  0.00  0.00    +0.260 C 
ATOM      4  N   LIG    1       -2.235   1.714   0.833  0.00  0.00    -0.620 N 
ATOM      5  C   LIG    1       -3.286   1.448   1.634  0.00  0.00    +0.590 C 
ATOM      6  O   LIG    1       -3.105   1.186   2.807  0.00  0.00    -0.520 OA
ATOM      7  C   LIG    1       -0.830   1.825   1.267  0.00  0.00    +0.260 C 
ENDROOT
BRANCH   5   8
ATOM      8  C   LIG    1       -4.656   1.477   1.088  0.00  0.00    -0.190 A 
ATOM      9  C   LIG    1       -5.065   2.532   0.275  0.00  0.00    +0.110 A 
ATOM     10  C   LIG    1       -6.349   2.565  -0.241  0.00  0.00    -0.020 A 
ATOM     11  C   LIG    1       -7.245   1.556   0.039  0.00  0.00    +0.130 A 
ATOM     12  C   LIG    1       -6.858   0.485   0.853  0.00  0.00    -0.140 A 
ATOM     13  C   LIG    1       -7.790  -0.600   1.167  0.00  0.00    +0.130 A 
ATOM     14  C   LIG    1       -7.355  -1.621   1.948  0.00  0.00    -0.050 A 
ATOM     15  C   LIG    1       -6.037  -1.615   2.453  0.00  0.00    +0.530 A 
ATOM     16  O   LIG    1       -5.668  -2.535   3.162  0.00  0.00    -0.530 OA
ATOM     17  N   LIG    1       -5.179  -0.618   2.173  0.00  0.00    -0.630 N 
ATOM     18  H   LIG    1       -4.281  -0.646   2.537  0.00  0.00    +0.420 HD
ATOM     19  C   LIG    1       -5.555   0.437   1.379  0.00  0.00    +0.240 A 
ENDBRANCH   5   8
BRANCH   1  20
ATOM     20  C   LIG    1        1.388   2.154   0.078  0.00  0.00    +0.290 C 
BRANCH  20  21
ATOM     21  N   LIG    1        2.185   1.472   1.105  0.00  0.00    -0.640 N 
ATOM     22  H   LIG    1        2.280   0.497   0.865  0.00  0.00    +0.440 HD
ATOM     23  H   LIG    1        1.724   1.555   1.999  0.00  0.00    +0.440 HD
ATOM     24  H   LIG    1        3.099   1.896   1.158  0.00  0.00    +0.440 HD
ENDBRANCH  20  21
ENDBRANCH   1  20
TORSDOF 3
