REMARK  Name = ZINCkj00000DLptB.0
REMARK                            x       y       z     vdW  Elec       q    Type
REMARK                         _______ _______ _______ _____ _____    ______ ____
ROOT
ATOM      1  C   LIG    1       -0.430  -2.127  -0.029  0.00  0.00    -0.040 A 
ATOM      2  C   LIG    1        0.919  -2.003  -0.035  0.00  0.00    +0.180 A 
ATOM      3  N   LIG    1        1.200  -0.670  -0.024  0.00  0.00    -0.330 N 
ATOM      4  C   LIG    1        2.386   0.033  -0.024  0.00  0.00    +0.020 A 
ATOM      5  C   LIG    1        2.373   1.409  -0.012  0.00  0.00    +0.100 A 
ATOM      6  C   LIG    1        1.155   2.098   0.003  0.00  0.00    +0.060 A 
ATOM      7  C   LIG    1       -0.017   1.405   0.003  0.00  0.00    +0.130 A 
ATOM      8  C   LIG    1        0.002  -0.004  -0.011  0.00  0.00    +0.230 A 
ATOM      9  N   LIG    1       -0.968  -0.908  -0.014  0.00  0.00    -0.460 NA
ENDROOT
BRANCH   4  10
ATOM     10  C   LIG    1        3.667  -0.689  -0.037  0.00  0.00    +0.570 C 
ATOM     11  N   LIG    1        4.824  -0.007  -0.148  0.00  0.00    -0.710 N 
ATOM     12  H   LIG    1        4.817   0.963  -0.144  0.00  0.00    +0.410 HD
ATOM     13  O   LIG    1        3.682  -1.903   0.051  0.00  0.00    -0.530 OA
BRANCH  11  14
ATOM     14  C   LIG    1        6.091  -0.730  -0.274  0.00  0.00    +0.410 C 
BRANCH  14  15
ATOM     15  C   LIG    1        7.225   0.257  -0.381  0.00  0.00    -0.060 A 
ATOM     16  C   LIG    1        7.922   0.769   0.649  0.00  0.00    -0.020 A 
ATOM     17  C   LIG    1        8.883   1.647   0.097  0.00  0.00    -0.060 A 
ATOM     18  C   LIG    1        8.716   1.619  -1.237  0.00  0.00    +0.200 A 
ATOM     19  O   LIG    1        7.713   0.771  -1.521  0.00  0.00    -0.170 OA
ENDBRANCH  14  15
ENDBRANCH  11  14
ENDBRANCH   4  10
BRANCH   1  20
ATOM     20  C   LIG    1       -1.194  -3.426  -0.037  0.00  0.00    +0.400 C 
BRANCH  20  21
ATOM     21  N   LIG    1       -1.538  -3.800   1.341  0.00  0.00    -0.640 N 
ATOM     22  H   LIG    1       -0.693  -3.910   1.881  0.00  0.00    +0.430 HD
ATOM     23  H   LIG    1       -2.049  -4.670   1.336  0.00  0.00    +0.440 HD
ATOM     24  H   LIG    1       -2.108  -3.077   1.754  0.00  0.00    +0.440 HD
ENDBRANCH  20  21
ENDBRANCH   1  20
TORSDOF 5
