REMARK  Name = ZINCrH000004usIv.0
REMARK                            x       y       z     vdW  Elec       q    Type
REMARK                         _______ _______ _______ _____ _____    ______ ____
ROOT
ATOM      1  O   LIG    1       -3.592   1.915  -0.056  0.00  0.00    -0.560 OA
ATOM      2  C   LIG    1       -3.607   3.131  -0.050  0.00  0.00    +0.710 C 
ATOM      3  N   LIG    1       -2.451   3.818   0.044  0.00  0.00    -0.680 N 
ATOM      4  H   LIG    1       -2.467   4.784   0.127  0.00  0.00    +0.410 HD
ATOM      5  N   LIG    1       -4.779   3.791  -0.138  0.00  0.00    -0.740 N 
ATOM      6  H   LIG    1       -4.790   4.761  -0.133  0.00  0.00    +0.400 HD
ENDROOT
BRANCH   3   7
ATOM      7  C   LIG    1       -1.233   3.140   0.023  0.00  0.00    +0.200 A 
ATOM      8  C   LIG    1       -1.093   1.988  -0.743  0.00  0.00    +0.010 A 
ATOM      9  C   LIG    1        0.107   1.313  -0.762  0.00  0.00    +0.110 A 
ATOM     10  C   LIG    1        1.189   1.794  -0.019  0.00  0.00    -0.160 A 
ATOM     11  C   LIG    1        1.046   2.955   0.745  0.00  0.00    +0.070 A 
ATOM     12  C   LIG    1       -0.158   3.622   0.764  0.00  0.00    -0.030 A 
BRANCH  10  13
ATOM     13  C   LIG    1        2.478   1.077  -0.042  0.00  0.00    +0.570 C 
ATOM     14  N   LIG    1        3.521   1.542   0.675  0.00  0.00    -0.700 N 
ATOM     15  H   LIG    1        3.423   2.348   1.206  0.00  0.00    +0.400 HD
ATOM     16  O   LIG    1        2.601   0.067  -0.708  0.00  0.00    -0.530 OA
BRANCH  14  17
ATOM     17  C   LIG    1        4.801   0.830   0.652  0.00  0.00    +0.220 C 
ATOM     18  C   LIG    1        5.526   0.638   1.986  0.00  0.00    +0.010 C 
ATOM     19  C   LIG    1        6.064   1.638   0.960  0.00  0.00    +0.020 C 
ENDBRANCH  14  17
ENDBRANCH  10  13
ENDBRANCH   3   7
BRANCH   5  20
ATOM     20  C   LIG    1       -6.034   3.043  -0.241  0.00  0.00    +0.330 C 
BRANCH  20  21
ATOM     21  C   LIG    1       -7.206   4.024  -0.327  0.00  0.00    +0.080 C 
ATOM     22  S   LIG    1       -7.234   5.056   1.164  0.00  0.00    -0.240 S 
ATOM     23  C   LIG    1       -8.891   5.800   1.033  0.00  0.00    +0.120 C 
ATOM     24  C   LIG    1       -9.913   4.678   1.141  0.00  0.00    +0.100 C 
ATOM     25  C   LIG    1       -9.672   3.550   0.179  0.00  0.00    -0.070 A 
ATOM     26  C   LIG    1      -10.790   2.745  -0.061  0.00  0.00    +0.000 A 
ATOM     27  C   LIG    1      -10.728   1.661  -0.906  0.00  0.00    +0.020 A 
ATOM     28  C   LIG    1       -9.536   1.355  -1.534  0.00  0.00    +0.010 A 
ATOM     29  C   LIG    1       -8.433   2.147  -1.308  0.00  0.00    +0.020 A 
ATOM     30  C   LIG    1       -8.495   3.251  -0.455  0.00  0.00    -0.080 A 
ENDBRANCH  20  21
ENDBRANCH   5  20
TORSDOF 5
