REMARK  Name = ZINCvU000000041R.0
REMARK                            x       y       z     vdW  Elec       q    Type
REMARK                         _______ _______ _______ _____ _____    ______ ____
ROOT
ATOM      1  O   LIG    1       -2.464   7.878  -0.889  0.00  0.00    -0.330 OA
ENDROOT
BRANCH   1   2
ATOM      2  C   LIG    1       -2.619   9.209  -1.030  0.00  0.00    +0.520 C 
ATOM      3  O   LIG    1       -1.689   9.956  -0.798  0.00  0.00    -0.510 OA
BRANCH   2   4
ATOM      4  C   LIG    1       -3.917   9.759  -1.465  0.00  0.00    -0.160 A 
ATOM      5  C   LIG    1       -4.987   8.895  -1.738  0.00  0.00    +0.090 A 
ATOM      6  C   LIG    1       -6.194   9.389  -2.136  0.00  0.00    -0.010 A 
ATOM      7  C   LIG    1       -6.376  10.762  -2.288  0.00  0.00    +0.130 A 
ATOM      8  N   LIG    1       -7.449  11.532  -2.670  0.00  0.00    -0.580 N 
ATOM      9  H   LIG    1       -8.322  11.186  -2.914  0.00  0.00    +0.420 HD
ATOM     10  C   LIG    1       -7.106  12.854  -2.656  0.00  0.00    +0.070 A 
ATOM     11  C   LIG    1       -5.822  12.985  -2.273  0.00  0.00    -0.150 A 
ATOM     12  C   LIG    1       -5.094  14.297  -2.143  0.00  0.00    +0.090 C 
ATOM     13  C   LIG    1       -5.894  15.373  -2.889  0.00  0.00    +0.020 C 
ATOM     14  C   LIG    1       -7.361  15.304  -2.455  0.00  0.00    +0.020 C 
ATOM     15  C   LIG    1       -7.998  14.023  -3.006  0.00  0.00    +0.100 C 
ATOM     16  C   LIG    1       -5.305  11.642  -2.022  0.00  0.00    -0.120 A 
ATOM     17  C   LIG    1       -4.076  11.134  -1.611  0.00  0.00    +0.150 A 
ENDBRANCH   2   4
ENDBRANCH   1   2
BRANCH   1  18
ATOM     18  C   LIG    1       -1.160   7.408  -0.457  0.00  0.00    +0.270 C 
BRANCH  18  20
ATOM     19  O   LIG    1       -2.187   5.289  -0.622  0.00  0.00    -0.480 OA
ATOM     20  C   LIG    1       -1.176   5.904  -0.356  0.00  0.00    +0.530 C 
ATOM     21  N   LIG    1       -0.067   5.243   0.029  0.00  0.00    -0.690 N 
ATOM     22  H   LIG    1        0.719   5.737   0.311  0.00  0.00    +0.420 HD
BRANCH  21  23
ATOM     23  C   LIG    1       -0.049   3.843   0.022  0.00  0.00    +0.200 A 
ATOM     24  C   LIG    1       -0.556   3.135   1.105  0.00  0.00    -0.030 A 
ATOM     25  C   LIG    1       -0.541   1.753   1.092  0.00  0.00    +0.080 A 
ATOM     26  C   LIG    1       -0.013   1.076   0.008  0.00  0.00    +0.050 A 
ATOM     27  C   LIG    1        0.492   1.778  -1.071  0.00  0.00    +0.090 A 
ATOM     28 CL   LIG    1       -1.213   3.985   2.469  0.00  0.00    -0.040 Cl
ATOM     29  C   LIG    1        0.476   3.159  -1.067  0.00  0.00    -0.170 A 
BRANCH  29  30
ATOM     30  C   LIG    1        1.027   3.923  -2.243  0.00  0.00    +0.510 C 
ATOM     31  F   LIG    1        2.081   4.739  -1.816  0.00  0.00    -0.170 F 
ATOM     32  F   LIG    1        0.018   4.718  -2.797  0.00  0.00    -0.170 F 
ATOM     33  F   LIG    1        1.495   3.023  -3.206  0.00  0.00    -0.170 F 
ENDBRANCH  29  30
ENDBRANCH  21  23
ENDBRANCH  18  20
ENDBRANCH   1  18
TORSDOF 6
