REMARK  Name = ZINCkj000005lsuk.0
REMARK                            x       y       z     vdW  Elec       q    Type
REMARK                         _______ _______ _______ _____ _____    ______ ____
ROOT
ATOM      1  S   LIG    1       -0.103   1.815   2.695  0.00  0.00    +2.710 S 
ATOM      2  O   LIG    1        1.034   0.968   2.782  0.00  0.00    -0.930 OA
ATOM      3  O   LIG    1       -1.190   1.752   3.608  0.00  0.00    -0.940 OA
ENDROOT
BRANCH   1   4
ATOM      4  C   LIG    1        0.502   3.468   2.756  0.00  0.00    -0.710 A 
ATOM      5  C   LIG    1        1.807   3.739   2.389  0.00  0.00    +0.170 A 
ATOM      6  C   LIG    1        2.282   5.036   2.430  0.00  0.00    -0.060 A 
ATOM      7  C   LIG    1        1.452   6.065   2.851  0.00  0.00    +0.170 A 
ATOM      8  C   LIG    1        0.145   5.789   3.224  0.00  0.00    +0.010 A 
ATOM      9  C   LIG    1       -0.327   4.492   3.176  0.00  0.00    +0.170 A 
BRANCH   7  10
ATOM     10  O   LIG    1        1.919   7.340   2.897  0.00  0.00    -0.310 OA
BRANCH  10  11
ATOM     11  C   LIG    1        3.275   7.550   2.498  0.00  0.00    +0.610 C 
ATOM     12  F   LIG    1        4.125   6.808   3.326  0.00  0.00    -0.160 F 
ATOM     13  F   LIG    1        3.588   8.909   2.606  0.00  0.00    -0.120 F 
ATOM     14  F   LIG    1        3.440   7.137   1.171  0.00  0.00    -0.160 F 
ENDBRANCH  10  11
ENDBRANCH   7  10
ENDBRANCH   1   4
BRANCH   1  18
ATOM     15  C   LIG    1       -2.269   1.504  -0.705  0.00  0.00    +0.180 C 
ATOM     16  C   LIG    1       -0.806   1.621  -1.210  0.00  0.00    +0.070 C 
ATOM     17  C   LIG    1       -0.013   1.086   0.008  0.00  0.00    +0.310 C 
ATOM     18  N   LIG    1       -0.746   1.583   1.187  0.00  0.00    -1.010 NA
ATOM     19  C   LIG    1       -2.143   1.837   0.797  0.00  0.00    +0.300 C 
BRANCH  15  20
ATOM     20  N   LIG    1       -3.132   2.480  -1.383  0.00  0.00    -0.630 N 
ATOM     21  H   LIG    1       -2.783   3.412  -1.216  0.00  0.00    +0.440 HD
ATOM     22  H   LIG    1       -4.072   2.404  -1.024  0.00  0.00    +0.440 HD
ATOM     23  H   LIG    1       -3.135   2.294  -2.375  0.00  0.00    +0.440 HD
ENDBRANCH  15  20
ENDBRANCH   1  18
TORSDOF 5
