REMARK  Name = ZINCrD00000hQ76F.0
REMARK                            x       y       z     vdW  Elec       q    Type
REMARK                         _______ _______ _______ _____ _____    ______ ____
ROOT
ATOM      1  N   LIG    1       -5.505   3.525   0.308  0.00  0.00    -0.590 N 
ATOM      2  C   LIG    1       -6.259   2.411   0.327  0.00  0.00    +0.530 C 
ATOM      3  C   LIG    1       -5.410   1.223   0.101  0.00  0.00    +0.100 C 
ATOM      4  C   LIG    1       -4.124   1.618  -0.049  0.00  0.00    -0.230 C 
ATOM      5  O   LIG    1       -7.462   2.386   0.501  0.00  0.00    -0.490 OA
ATOM      6  C   LIG    1       -4.114   3.124   0.072  0.00  0.00    +0.350 C 
ENDROOT
BRANCH   6   7
ATOM      7  C   LIG    1       -3.604   3.743  -1.204  0.00  0.00    -0.120 A 
ATOM      8  C   LIG    1       -4.373   3.693  -2.351  0.00  0.00    +0.070 A 
ATOM      9  C   LIG    1       -3.909   4.265  -3.521  0.00  0.00    -0.020 A 
ATOM     10  C   LIG    1       -2.668   4.878  -3.545  0.00  0.00    +0.110 A 
ATOM     11  C   LIG    1       -1.896   4.923  -2.397  0.00  0.00    -0.010 A 
ATOM     12  F   LIG    1       -2.211   5.433  -4.689  0.00  0.00    -0.140 F 
ATOM     13  C   LIG    1       -2.365   4.356  -1.227  0.00  0.00    +0.070 A 
ENDBRANCH   6   7
BRANCH   4  14
ATOM     14  C   LIG    1       -2.965   0.752  -0.289  0.00  0.00    +0.470 C 
ATOM     15  O   LIG    1       -2.865   0.148  -1.340  0.00  0.00    -0.430 OA
BRANCH  14  16
ATOM     16  C   LIG    1       -1.919   0.614   0.747  0.00  0.00    -0.170 A 
ATOM     17  C   LIG    1       -0.760  -0.118   0.480  0.00  0.00    +0.080 A 
ATOM     18  C   LIG    1        0.214  -0.239   1.448  0.00  0.00    +0.000 A 
ATOM     19  C   LIG    1        0.044   0.360   2.684  0.00  0.00    -0.050 A 
ATOM     20  C   LIG    1       -1.105   1.083   2.957  0.00  0.00    +0.000 A 
ATOM     21  C   LIG    1        1.113   0.224   3.737  0.00  0.00    +0.100 C 
ATOM     22  C   LIG    1       -2.087   1.211   1.998  0.00  0.00    +0.060 A 
ENDBRANCH  14  16
ENDBRANCH   4  14
BRANCH   3  23
ATOM     23  O   LIG    1       -5.847  -0.056   0.053  0.00  0.00    -0.430 OA
ATOM     24  H   LIG    1       -6.801  -0.151   0.181  0.00  0.00    +0.410 HD
ENDBRANCH   3  23
BRANCH   1  25
ATOM     25  C   LIG    1       -5.988   4.896   0.491  0.00  0.00    +0.340 C 
BRANCH  25  26
ATOM     26  C   LIG    1       -6.364   5.490  -0.868  0.00  0.00    +0.150 C 
BRANCH  26  28
ATOM     27  C   LIG    1       -7.903   5.246  -2.689  0.00  0.00    +0.200 C 
ATOM     28  O   LIG    1       -7.471   4.769  -1.414  0.00  0.00    -0.380 OA
ENDBRANCH  26  28
ENDBRANCH  25  26
ENDBRANCH   1  25
TORSDOF 7
