REMARK  Name = ZINCvU00000008PP.0
REMARK                            x       y       z     vdW  Elec       q    Type
REMARK                         _______ _______ _______ _____ _____    ______ ____
ROOT
ATOM      1  C   LIG    1        0.107   0.000  -0.249  0.00  0.00    -0.660 A 
ATOM      2  C   LIG    1        0.250  -0.501  -1.530  0.00  0.00    +0.130 A 
ATOM      3  C   LIG    1        0.368  -1.864  -1.733  0.00  0.00    +0.040 A 
ATOM      4  C   LIG    1        0.332  -2.730  -0.657  0.00  0.00    -0.010 A 
ATOM      5  C   LIG    1        0.183  -2.229   0.631  0.00  0.00    +0.140 A 
ATOM      6 CL   LIG    1        0.473  -4.441  -0.913  0.00  0.00    -0.050 Cl
ATOM      7  C   LIG    1        0.071  -0.860   0.831  0.00  0.00    +0.160 A 
ENDROOT
BRANCH   5   8
ATOM      8  N   LIG    1        0.147  -3.102   1.723  0.00  0.00    -0.670 N 
ATOM      9  H   LIG    1        0.677  -3.915   1.712  0.00  0.00    +0.420 HD
ATOM     10  C   LIG    1       -0.624  -2.815   2.790  0.00  0.00    +0.550 C 
ATOM     11  O   LIG    1       -1.219  -1.755   2.844  0.00  0.00    -0.510 OA
BRANCH  10  12
ATOM     12  C   LIG    1       -0.746  -3.779   3.885  0.00  0.00    -0.080 C 
ATOM     13  C   LIG    1       -1.518  -3.491   4.953  0.00  0.00    +0.140 C 
BRANCH  13  14
ATOM     14  C   LIG    1       -1.641  -4.460   6.054  0.00  0.00    -0.080 A 
ATOM     15  C   LIG    1       -0.963  -5.682   5.994  0.00  0.00    +0.050 A 
ATOM     16  C   LIG    1       -1.079  -6.583   7.031  0.00  0.00    +0.030 A 
ATOM     17  C   LIG    1       -1.873  -6.284   8.126  0.00  0.00    -0.020 A 
ATOM     18  C   LIG    1       -2.551  -5.078   8.191  0.00  0.00    +0.030 A 
ATOM     19 CL   LIG    1       -2.019  -7.427   9.425  0.00  0.00    -0.060 Cl
ATOM     20  C   LIG    1       -2.441  -4.165   7.163  0.00  0.00    +0.060 A 
ENDBRANCH  13  14
ENDBRANCH  10  12
ENDBRANCH   5   8
BRANCH   1  21
ATOM     21  S   LIG    1       -0.036   1.738   0.004  0.00  0.00    +2.690 S 
ATOM     22  O   LIG    1       -0.802   1.909   1.189  0.00  0.00    -0.940 OA
ATOM     23  O   LIG    1       -0.406   2.297  -1.248  0.00  0.00    -0.950 OA
BRANCH  21  24
ATOM     24  N   LIG    1        1.481   2.310   0.342  0.00  0.00    -1.050 N 
ATOM     25  H   LIG    1        1.896   2.960  -0.246  0.00  0.00    +0.430 HD
BRANCH  24  29
ATOM     26  C   LIG    1        3.515   0.959   3.720  0.00  0.00    +0.120 A 
ATOM     27  C   LIG    1        4.168   1.027   2.498  0.00  0.00    +0.000 A 
ATOM     28  C   LIG    1        3.495   1.474   1.379  0.00  0.00    +0.050 A 
ATOM     29  C   LIG    1        2.164   1.857   1.476  0.00  0.00    +0.100 A 
ATOM     30  C   LIG    1        1.512   1.794   2.700  0.00  0.00    +0.050 A 
ATOM     31  C   LIG    1        2.185   1.341   3.818  0.00  0.00    -0.050 A 
BRANCH  26  33
ATOM     32  C   LIG    1        3.444   0.473   6.047  0.00  0.00    +0.240 C 
ATOM     33  O   LIG    1        4.178   0.518   4.822  0.00  0.00    -0.320 OA
ENDBRANCH  26  33
ENDBRANCH  24  29
ENDBRANCH  21  24
ENDBRANCH   1  21
TORSDOF 7
