REMARK  Name = ZINCrg00000fRZYi.0
REMARK                            x       y       z     vdW  Elec       q    Type
REMARK                         _______ _______ _______ _____ _____    ______ ____
ROOT
ATOM      1  N   LIG    1       -1.730   7.004  -3.010  0.00  0.00    -0.510 N 
ATOM      2  H   LIG    1       -1.499   7.115  -3.946  0.00  0.00    +0.440 HD
ATOM      3  C   LIG    1       -1.706   5.779  -2.451  0.00  0.00    +0.500 C 
ATOM      4  O   LIG    1       -1.996   5.640  -1.281  0.00  0.00    -0.530 OA
ENDROOT
BRANCH   1   6
ATOM      5  C   LIG    1       -2.114   9.345  -2.801  0.00  0.00    +0.570 C 
ATOM      6  N   LIG    1       -2.090   8.119  -2.241  0.00  0.00    -0.520 N 
ATOM      7  H   LIG    1       -2.322   8.008  -1.306  0.00  0.00    +0.430 HD
ATOM      8  O   LIG    1       -1.824   9.483  -3.973  0.00  0.00    -0.510 OA
BRANCH   5  15
ATOM      9  C   LIG    1       -2.519  11.795  -2.569  0.00  0.00    +0.200 A 
ATOM     10  C   LIG    1       -2.876  12.891  -1.798  0.00  0.00    -0.060 A 
ATOM     11  C   LIG    1       -3.205  12.725  -0.468  0.00  0.00    +0.120 A 
ATOM     12  C   LIG    1       -3.181  11.464   0.108  0.00  0.00    -0.080 A 
ATOM     13  C   LIG    1       -2.832  10.362  -0.645  0.00  0.00    +0.100 A 
ATOM     14 CL   LIG    1       -3.597  11.270   1.782  0.00  0.00    -0.060 Cl
ATOM     15  C   LIG    1       -2.493  10.518  -1.991  0.00  0.00    -0.160 A 
BRANCH   9  17
ATOM     16  C   LIG    1       -2.246  13.287  -4.397  0.00  0.00    +0.250 C 
ATOM     17  O   LIG    1       -2.197  11.957  -3.877  0.00  0.00    -0.280 OA
ENDBRANCH   9  17
ENDBRANCH   5  15
ENDBRANCH   1   6
BRANCH   3  18
ATOM     18  C   LIG    1       -1.320   4.580  -3.278  0.00  0.00    +0.350 C 
BRANCH  18  19
ATOM     19  N   LIG    1       -1.370   3.375  -2.446  0.00  0.00    -0.570 N 
ATOM     20  C   LIG    1       -0.311   2.921  -1.741  0.00  0.00    +0.550 C 
ATOM     21  C   LIG    1       -0.695   1.561  -1.232  0.00  0.00    +0.000 C 
ATOM     22  C   LIG    1       -0.013   1.086   0.008  0.00  0.00    +0.110 C 
ATOM     23  C   LIG    1       -0.672   1.548   1.269  0.00  0.00    -0.030 C 
ATOM     24  C   LIG    1       -1.834   2.106   1.300  0.00  0.00    -0.040 C 
ATOM     25  C   LIG    1       -2.662   2.414   0.101  0.00  0.00    +0.090 C 
ATOM     26  C   LIG    1       -2.228   1.646  -1.150  0.00  0.00    +0.040 C 
ATOM     27  O   LIG    1        0.740   3.496  -1.556  0.00  0.00    -0.460 OA
ATOM     28  C   LIG    1       -2.477   2.619  -2.315  0.00  0.00    +0.530 C 
ATOM     29  O   LIG    1       -3.482   2.692  -2.988  0.00  0.00    -0.470 OA
ENDBRANCH  18  19
ENDBRANCH   3  18
TORSDOF 5
