REMARK  Name = ZINCpe000000SyUA.0
REMARK                            x       y       z     vdW  Elec       q    Type
REMARK                         _______ _______ _______ _____ _____    ______ ____
ROOT
ATOM      1  C   LIG    1        3.098  -0.500  -2.198  0.00  0.00    +0.530 C 
ATOM      2  N   LIG    1        4.378  -0.101  -2.339  0.00  0.00    -0.620 N 
ATOM      3  C   LIG    1        5.020   0.748  -1.323  0.00  0.00    +0.300 C 
ATOM      4  C   LIG    1        6.353   0.097  -0.923  0.00  0.00    +0.200 C 
ATOM      5  N   LIG    1        7.156  -0.143  -2.130  0.00  0.00    -0.470 N 
ATOM      6  C   LIG    1        6.493  -1.095  -3.031  0.00  0.00    +0.210 C 
ATOM      7  C   LIG    1        5.168  -0.497  -3.514  0.00  0.00    +0.290 C 
ATOM      8  O   LIG    1        2.609  -1.262  -3.005  0.00  0.00    -0.530 OA
ENDROOT
BRANCH   1  15
ATOM      9  C   LIG    1        0.046   3.398   1.438  0.00  0.00    +0.100 C 
ATOM     10  C   LIG    1        0.979   2.986   0.329  0.00  0.00    +0.510 C 
ATOM     11  N   LIG    1        0.808   1.801  -0.290  0.00  0.00    -0.610 N 
ATOM     12  C   LIG    1       -0.284   0.900   0.105  0.00  0.00    +0.260 C 
ATOM     13  C   LIG    1        0.304  -0.478   0.422  0.00  0.00    +0.010 C 
ATOM     14  C   LIG    1        1.121  -0.968  -0.776  0.00  0.00    +0.050 C 
ATOM     15  C   LIG    1        2.276   0.001  -1.039  0.00  0.00    -0.020 C 
ATOM     16  C   LIG    1        1.710   1.385  -1.373  0.00  0.00    +0.300 C 
ATOM     17  O   LIG    1        1.884   3.720  -0.006  0.00  0.00    -0.540 OA
ENDBRANCH   1  15
BRANCH   5  18
ATOM     18  C   LIG    1        8.435  -0.578  -1.799  0.00  0.00    +0.320 A 
ATOM     19  C   LIG    1        9.226   0.194  -0.957  0.00  0.00    +0.010 A 
ATOM     20  C   LIG    1       10.507  -0.259  -0.630  0.00  0.00    +0.050 A 
ATOM     21  C   LIG    1       10.940  -1.473  -1.179  0.00  0.00    -0.010 A 
ATOM     22  C   LIG    1       10.092  -2.175  -2.011  0.00  0.00    +0.310 A 
ATOM     23  N   LIG    1        8.887  -1.719  -2.294  0.00  0.00    -0.500 NA
BRANCH  20  24
ATOM     24  C   LIG    1       11.356   0.499   0.238  0.00  0.00    +0.250 C 
ATOM     25  N   LIG    1       12.030   1.101   0.927  0.00  0.00    -0.390 NA
ENDBRANCH  20  24
ENDBRANCH   5  18
TORSDOF 3
