REMARK  Name = ZINCrD00000f9iDy.0
REMARK                            x       y       z     vdW  Elec       q    Type
REMARK                         _______ _______ _______ _____ _____    ______ ____
ROOT
ATOM      1  N   LIG    1        2.689  -0.761   3.687  0.00  0.00    -0.680 N 
ATOM      2  H   LIG    1        3.074  -1.105   2.865  0.00  0.00    +0.400 HD
ATOM      3  C   LIG    1        3.271  -1.040   4.871  0.00  0.00    +0.700 C 
ATOM      4  N   LIG    1        4.438  -1.719   4.907  0.00  0.00    -0.610 N 
ATOM      5  C   LIG    1        5.087  -2.063   3.629  0.00  0.00    +0.260 C 
ATOM      6  C   LIG    1        6.098  -0.989   3.319  0.00  0.00    +0.190 C 
ATOM      7  O   LIG    1        7.286  -1.089   4.106  0.00  0.00    -0.380 OA
ATOM      8  C   LIG    1        7.274  -1.964   5.245  0.00  0.00    +0.220 C 
ATOM      9  C   LIG    1        6.381  -1.497   6.371  0.00  0.00    -0.100 C 
ATOM     10  C   LIG    1        6.926  -1.997   7.713  0.00  0.00    +0.020 C 
ATOM     11  C   LIG    1        6.068  -1.451   8.855  0.00  0.00    +0.210 C 
ATOM     12  O   LIG    1        6.044  -0.024   8.794  0.00  0.00    -0.380 OA
ATOM     13  C   LIG    1        5.479   0.498   7.590  0.00  0.00    +0.200 C 
ATOM     14  C   LIG    1        6.305   0.029   6.391  0.00  0.00    +0.010 C 
ATOM     15  C   LIG    1        4.966  -2.083   6.163  0.00  0.00    +0.290 C 
ATOM     16  O   LIG    1        2.744  -0.680   5.906  0.00  0.00    -0.560 OA
ENDROOT
BRANCH   1  21
ATOM     17  C   LIG    1       -2.005   2.426   3.525  0.00  0.00    +0.100 C 
ATOM     18  C   LIG    1       -0.760   1.579   3.566  0.00  0.00    -0.120 A 
ATOM     19  C   LIG    1       -0.555   0.703   4.615  0.00  0.00    +0.080 A 
ATOM     20  C   LIG    1        0.589  -0.072   4.658  0.00  0.00    -0.010 A 
ATOM     21  C   LIG    1        1.532   0.024   3.644  0.00  0.00    +0.190 A 
ATOM     22  C   LIG    1        1.325   0.899   2.586  0.00  0.00    -0.100 A 
ATOM     23  C   LIG    1        0.177   1.674   2.546  0.00  0.00    +0.140 A 
BRANCH  23  24
ATOM     24  O   LIG    1       -0.028   2.532   1.512  0.00  0.00    -0.300 OA
BRANCH  24  25
ATOM     25  C   LIG    1        0.981   2.583   0.501  0.00  0.00    +0.180 C 
BRANCH  25  26
ATOM     26  C   LIG    1        0.577   3.597  -0.571  0.00  0.00    +0.400 C 
ATOM     27  F   LIG    1        0.437   4.861   0.012  0.00  0.00    -0.200 F 
ATOM     28  F   LIG    1       -0.639   3.210  -1.145  0.00  0.00    -0.200 F 
ENDBRANCH  25  26
ENDBRANCH  24  25
ENDBRANCH  23  24
ENDBRANCH   1  21
TORSDOF 4
