REMARK  Name = ZINCqH00000329gb.0
REMARK                            x       y       z     vdW  Elec       q    Type
REMARK                         _______ _______ _______ _____ _____    ______ ____
ROOT
ATOM      1  N   LIG    1       -2.462   4.096   0.045  0.00  0.00    -0.680 N 
ATOM      2  H   LIG    1       -3.256   3.665   0.400  0.00  0.00    +0.410 HD
ATOM      3  C   LIG    1       -2.537   5.350  -0.442  0.00  0.00    +0.720 C 
ATOM      4  N   LIG    1       -3.692   6.049  -0.337  0.00  0.00    -0.620 N 
ATOM      5  C   LIG    1       -4.840   5.447   0.322  0.00  0.00    +0.250 C 
ATOM      6  C   LIG    1       -5.777   4.693  -0.584  0.00  0.00    +0.010 C 
ATOM      7  C   LIG    1       -6.633   5.525  -1.504  0.00  0.00    -0.250 C 
ATOM      8  C   LIG    1       -7.214   6.678  -0.649  0.00  0.00    +0.040 C 
ATOM      9  C   LIG    1       -6.238   7.838  -0.539  0.00  0.00    +0.040 C 
ATOM     10  C   LIG    1       -5.090   7.761  -1.542  0.00  0.00    -0.270 C 
ATOM     11  S   LIG    1       -5.534   6.399  -2.683  0.00  0.00    +1.230 S 
ATOM     12  O   LIG    1       -4.394   5.606  -2.966  0.00  0.00    -0.820 OA
ATOM     13  C   LIG    1       -3.769   7.430  -0.875  0.00  0.00    +0.300 C 
ATOM     14  O   LIG    1       -1.568   5.854  -0.976  0.00  0.00    -0.560 OA
ENDROOT
BRANCH   1  18
ATOM     15  C   LIG    1        1.183   2.067   0.024  0.00  0.00    +0.080 A 
ATOM     16  C   LIG    1        1.155   3.441   0.204  0.00  0.00    -0.020 A 
ATOM     17  C   LIG    1       -0.052   4.113   0.211  0.00  0.00    +0.060 A 
ATOM     18  C   LIG    1       -1.238   3.413   0.038  0.00  0.00    +0.160 A 
ATOM     19  C   LIG    1       -1.211   2.037  -0.147  0.00  0.00    -0.010 A 
ATOM     20  C   LIG    1       -0.004   1.365  -0.149  0.00  0.00    +0.090 A 
ATOM     21  F   LIG    1        0.023   0.025  -0.325  0.00  0.00    -0.130 F 
BRANCH  15  22
ATOM     22  O   LIG    1        2.371   1.406   0.017  0.00  0.00    -0.310 OA
BRANCH  22  23
ATOM     23  C   LIG    1        3.551   2.191   0.201  0.00  0.00    +0.190 C 
BRANCH  23  24
ATOM     24  C   LIG    1        4.780   1.281   0.164  0.00  0.00    +0.050 C 
BRANCH  24  26
ATOM     25  C   LIG    1        6.036   2.733   1.763  0.00  0.00    +0.020 C 
ATOM     26  C   LIG    1        6.044   2.121   0.360  0.00  0.00    -0.020 C 
ATOM     27  C   LIG    1        7.278   1.232   0.199  0.00  0.00    +0.030 C 
ENDBRANCH  24  26
ENDBRANCH  23  24
ENDBRANCH  22  23
ENDBRANCH  15  22
ENDBRANCH   1  18
TORSDOF 5
