REMARK  Name = ZINCvU000000054y.0
REMARK                            x       y       z     vdW  Elec       q    Type
REMARK                         _______ _______ _______ _____ _____    ______ ____
ROOT
ATOM      1  C   LIG    1       -3.635   0.494   6.740  0.00  0.00    +0.230 A 
ATOM      2  N   LIG    1       -2.348   0.371   6.533  0.00  0.00    -0.490 NA
ATOM      3  C   LIG    1       -2.138   0.164   5.204  0.00  0.00    +0.090 A 
ATOM      4  C   LIG    1       -0.995  -0.030   4.428  0.00  0.00    +0.070 A 
ATOM      5  C   LIG    1       -1.117  -0.223   3.068  0.00  0.00    +0.140 A 
ATOM      6  C   LIG    1       -2.366  -0.213   2.468  0.00  0.00    -0.660 A 
ATOM      7  C   LIG    1       -3.505  -0.021   3.224  0.00  0.00    +0.190 A 
ATOM      8  C   LIG    1       -3.401   0.168   4.592  0.00  0.00    -0.020 A 
ATOM      9  O   LIG    1       -4.303   0.375   5.579  0.00  0.00    -0.180 OA
ENDROOT
BRANCH   6  10
ATOM     10  S   LIG    1       -2.501  -0.453   0.728  0.00  0.00    +2.700 S 
ATOM     11  O   LIG    1       -1.328  -1.148   0.326  0.00  0.00    -0.940 OA
ATOM     12  O   LIG    1       -3.814  -0.944   0.491  0.00  0.00    -0.940 OA
BRANCH  10  13
ATOM     13  N   LIG    1       -2.426   1.041   0.019  0.00  0.00    -1.050 N 
ATOM     14  H   LIG    1       -3.170   1.363  -0.514  0.00  0.00    +0.430 HD
BRANCH  13  15
ATOM     15  C   LIG    1       -1.291   1.839   0.189  0.00  0.00    +0.160 A 
ATOM     16  C   LIG    1       -0.033   1.254   0.255  0.00  0.00    +0.010 A 
ATOM     17  C   LIG    1        1.087   2.046   0.417  0.00  0.00    +0.060 A 
ATOM     18  C   LIG    1        0.958   3.418   0.519  0.00  0.00    +0.020 A 
ATOM     19  C   LIG    1       -0.294   4.005   0.459  0.00  0.00    +0.050 A 
ATOM     20  C   LIG    1       -1.419   3.219   0.297  0.00  0.00    -0.060 A 
ATOM     21 CL   LIG    1       -2.989   3.955   0.221  0.00  0.00    -0.060 Cl
ENDBRANCH  13  15
ENDBRANCH  10  13
ENDBRANCH   6  10
BRANCH   1  22
ATOM     22  S   LIG    1       -4.382   0.773   8.312  0.00  0.00    +0.140 S 
BRANCH  22  23
ATOM     23  C   LIG    1       -2.906   0.817   9.358  0.00  0.00    +0.100 C 
BRANCH  23  25
ATOM     24  O   LIG    1       -4.484   1.178  11.075  0.00  0.00    -0.420 OA
ATOM     25  C   LIG    1       -3.312   1.052  10.790  0.00  0.00    +0.420 C 
BRANCH  25  26
ATOM     26  C   LIG    1       -2.288   1.129  11.841  0.00  0.00    -0.200 A 
ATOM     27  C   LIG    1       -0.934   0.985  11.517  0.00  0.00    +0.100 A 
ATOM     28  C   LIG    1        0.020   1.059  12.509  0.00  0.00    +0.000 A 
ATOM     29  C   LIG    1       -0.355   1.275  13.824  0.00  0.00    +0.090 A 
ATOM     30  C   LIG    1       -1.690   1.419  14.156  0.00  0.00    -0.020 A 
ATOM     31  C   LIG    1       -2.661   1.353  13.174  0.00  0.00    +0.160 A 
ATOM     32  F   LIG    1       -3.964   1.500  13.498  0.00  0.00    -0.110 F 
ENDBRANCH  25  26
ENDBRANCH  23  25
ENDBRANCH  22  23
ENDBRANCH   1  22
TORSDOF 7
