REMARK  Name = ZINCrm000000M7Uc.1
REMARK                            x       y       z     vdW  Elec       q    Type
REMARK                         _______ _______ _______ _____ _____    ______ ____
ROOT
ATOM      1  C   LIG    1       -1.919   0.963   9.090  0.00  0.00    -0.140 A 
ATOM      2  C   LIG    1       -2.717   1.581  10.034  0.00  0.00    +0.050 A 
ATOM      3  C   LIG    1       -2.283   2.738  10.654  0.00  0.00    +0.060 A 
ATOM      4  C   LIG    1       -1.052   3.276  10.331  0.00  0.00    +0.070 A 
ATOM      5  C   LIG    1       -0.252   2.655   9.390  0.00  0.00    +0.050 A 
ATOM      6  C   LIG    1       -0.687   1.501   8.766  0.00  0.00    -0.100 A 
ENDROOT
BRANCH   1   7
ATOM      7  C   LIG    1       -2.390  -0.299   8.414  0.00  0.00    +0.320 C 
BRANCH   7  11
ATOM      8  C   LIG    1       -4.313  -2.139   4.301  0.00  0.00    +0.110 C 
ATOM      9  C   LIG    1       -3.910  -0.854   5.027  0.00  0.00    +0.140 C 
ATOM     10  C   LIG    1       -3.305  -1.204   6.388  0.00  0.00    +0.240 C 
ATOM     11  N   LIG    1       -2.971   0.035   7.106  0.00  0.00    -0.390 N 
ATOM     12  C   LIG    1       -4.191   0.831   7.301  0.00  0.00    +0.250 C 
ATOM     13  C   LIG    1       -4.795   1.176   5.937  0.00  0.00    +0.230 C 
ATOM     14  C   LIG    1       -3.806   2.032   5.142  0.00  0.00    +0.020 C 
ATOM     15  H   LIG    1       -2.305   0.567   6.567  0.00  0.00    +0.400 HD
ATOM     16  O   LIG    1       -5.064  -0.032   5.221  0.00  0.00    -0.340 OA
ENDBRANCH   7  11
ENDBRANCH   1   7
BRANCH   6  17
ATOM     17  C   LIG    1        0.183   0.827   7.737  0.00  0.00    +0.350 C 
BRANCH  17  18
ATOM     18  N   LIG    1       -0.252   1.221   6.395  0.00  0.00    -0.730 N 
ATOM     19  H   LIG    1       -0.945   1.891   6.287  0.00  0.00    +0.400 HD
ATOM     20  C   LIG    1        0.309   0.651   5.310  0.00  0.00    +0.490 C 
ATOM     21  O   LIG    1        1.175  -0.187   5.445  0.00  0.00    -0.490 OA
BRANCH  20  22
ATOM     22  C   LIG    1       -0.139   1.057   3.930  0.00  0.00    +0.280 C 
BRANCH  22  23
ATOM     23  N   LIG    1        0.620   0.298   2.926  0.00  0.00    -0.490 N 
ATOM     24  H   LIG    1        1.604   0.493   3.031  0.00  0.00    +0.450 HD
ATOM     25  H   LIG    1        0.456  -0.689   3.057  0.00  0.00    +0.430 HD
BRANCH  23  26
ATOM     26  C   LIG    1        0.183   0.693   1.581  0.00  0.00    +0.280 C 
BRANCH  26  27
ATOM     27  C   LIG    1        0.973  -0.097   0.535  0.00  0.00    +0.150 C 
ATOM     28  C   LIG    1        0.554   0.330  -0.894  0.00  0.00    +0.040 C 
ATOM     29  C   LIG    1        1.828  -0.048  -1.699  0.00  0.00    +0.030 C 
ATOM     30  C   LIG    1        2.954   0.237  -0.683  0.00  0.00    +0.230 C 
ATOM     31  O   LIG    1        2.372   0.217   0.626  0.00  0.00    -0.390 OA
ENDBRANCH  26  27
ENDBRANCH  23  26
ENDBRANCH  22  23
ENDBRANCH  20  22
ENDBRANCH  17  18
ENDBRANCH   6  17
TORSDOF 8
