REMARK  Name = ZINCpk00001AZjaE.0
REMARK                            x       y       z     vdW  Elec       q    Type
REMARK                         _______ _______ _______ _____ _____    ______ ____
ROOT
ATOM      1  N   LIG    1       -0.719   1.318   3.682  0.00  0.00    -0.610 N 
ATOM      2  C   LIG    1       -0.198   1.003   2.479  0.00  0.00    +0.520 C 
ATOM      3  O   LIG    1        0.739   0.237   2.406  0.00  0.00    -0.530 OA
ENDROOT
BRANCH   1   4
ATOM      4  C   LIG    1       -0.153   0.734   4.901  0.00  0.00    +0.360 C 
BRANCH   4   8
ATOM      5  C   LIG    1        2.890   3.212   6.350  0.00  0.00    +0.500 A 
ATOM      6  N   LIG    1        1.648   3.407   6.762  0.00  0.00    -0.530 NA
ATOM      7  C   LIG    1        0.661   2.642   6.324  0.00  0.00    +0.370 A 
ATOM      8  C   LIG    1        0.943   1.627   5.423  0.00  0.00    -0.260 A 
ATOM      9  C   LIG    1        2.256   1.448   5.018  0.00  0.00    +0.390 A 
ATOM     10  N   LIG    1        3.193   2.253   5.492  0.00  0.00    -0.570 NA
BRANCH   5  12
ATOM     11  C   LIG    1        5.199   3.763   6.344  0.00  0.00    +0.270 C 
ATOM     12  O   LIG    1        3.875   4.015   6.820  0.00  0.00    -0.290 OA
ENDBRANCH   5  12
ENDBRANCH   4   8
ENDBRANCH   1   4
BRANCH   2  13
ATOM     13  C   LIG    1       -0.781   1.603   1.226  0.00  0.00    +0.070 C 
BRANCH  13  14
ATOM     14  C   LIG    1       -0.013   1.086   0.008  0.00  0.00    +0.010 C 
ATOM     15  C   LIG    1        1.427   1.647  -0.003  0.00  0.00    +0.220 C 
ATOM     16  O   LIG    1        1.716   1.894  -1.396  0.00  0.00    -0.370 OA
ATOM     17  C   LIG    1        0.501   2.449  -1.944  0.00  0.00    +0.180 C 
ATOM     18  C   LIG    1       -0.636   1.626  -1.299  0.00  0.00    +0.140 C 
BRANCH  18  19
ATOM     19  O   LIG    1       -1.020   0.547  -2.153  0.00  0.00    -0.550 OA
ATOM     20  H   LIG    1       -1.418   0.830  -2.988  0.00  0.00    +0.380 HD
ENDBRANCH  18  19
ENDBRANCH  13  14
ENDBRANCH   2  13
BRANCH   1  21
ATOM     21  C   LIG    1       -1.851   2.244   3.771  0.00  0.00    +0.270 C 
BRANCH  21  22
ATOM     22  C   LIG    1       -3.161   1.457   3.696  0.00  0.00    +0.010 C 
BRANCH  22  23
ATOM     23  C   LIG    1       -4.343   2.424   3.788  0.00  0.00    -0.020 C 
ATOM     24  C   LIG    1       -4.780   2.726   5.231  0.00  0.00    +0.010 C 
ATOM     25  C   LIG    1       -6.229   2.658   4.723  0.00  0.00    +0.000 C 
ATOM     26  C   LIG    1       -5.710   1.745   3.600  0.00  0.00    +0.010 C 
ENDBRANCH  22  23
ENDBRANCH  21  22
ENDBRANCH   1  21
TORSDOF 9
