REMARK  Name = ZINCpk000005ZItK.0
REMARK                            x       y       z     vdW  Elec       q    Type
REMARK                         _______ _______ _______ _____ _____    ______ ____
ROOT
ATOM      1  N   LIG    1        2.024   0.787  -0.013  0.00  0.00    -0.280 N 
ATOM      2  C   LIG    1        1.318  -0.367  -0.013  0.00  0.00    +0.150 A 
ATOM      3  C   LIG    1        0.002  -0.004   0.002  0.00  0.00    +0.030 A 
ATOM      4  N   LIG    1       -0.016   1.341   0.009  0.00  0.00    -0.230 NA
ATOM      5  N   LIG    1        1.196   1.772   0.000  0.00  0.00    -0.080 NA
ENDROOT
BRANCH   3   6
ATOM      6  C   LIG    1       -1.173  -0.911   0.009  0.00  0.00    -0.010 A 
ATOM      7  C   LIG    1       -0.987  -2.289   0.000  0.00  0.00    +0.040 A 
ATOM      8  C   LIG    1       -2.079  -3.135   0.006  0.00  0.00    +0.000 A 
ATOM      9  C   LIG    1       -3.360  -2.612   0.017  0.00  0.00    +0.040 A 
ATOM     10  C   LIG    1       -3.555  -1.246   0.024  0.00  0.00    -0.150 A 
ATOM     11  C   LIG    1       -4.821  -0.412   0.028  0.00  0.00    +0.060 C 
ATOM     12  C   LIG    1       -4.311   0.989  -0.381  0.00  0.00    +0.230 C 
ATOM     13  N   LIG    1       -2.896   0.955   0.049  0.00  0.00    -0.620 N 
ATOM     14  H   LIG    1       -2.788   1.351   0.970  0.00  0.00    +0.360 HD
ATOM     15  C   LIG    1       -2.471  -0.379   0.030  0.00  0.00    +0.130 A 
ENDBRANCH   3   6
BRANCH   1  16
ATOM     16  C   LIG    1        3.484   0.897  -0.026  0.00  0.00    +0.310 C 
BRANCH  16  17
ATOM     17  C   LIG    1        3.920   1.767  -1.207  0.00  0.00    +0.230 C 
BRANCH  17  18
ATOM     18  O   LIG    1        3.579   1.113  -2.431  0.00  0.00    -0.540 OA
ATOM     19  H   LIG    1        3.997   0.248  -2.544  0.00  0.00    +0.370 HD
ENDBRANCH  17  18
BRANCH  17  20
ATOM     20  C   LIG    1        5.433   1.985  -1.149  0.00  0.00    +0.160 C 
BRANCH  20  21
ATOM     21  O   LIG    1        5.824   2.891  -2.183  0.00  0.00    -0.370 OA
BRANCH  21  22
ATOM     22  C   LIG    1        7.226   3.164  -2.218  0.00  0.00    +0.190 C 
BRANCH  22  23
ATOM     23  C   LIG    1        7.528   4.139  -3.357  0.00  0.00    +0.160 C 
ATOM     24  C   LIG    1        9.049   4.383  -3.468  0.00  0.00    +0.010 C 
ATOM     25  C   LIG    1        9.165   5.879  -3.835  0.00  0.00    +0.000 C 
ATOM     26  C   LIG    1        7.699   6.363  -3.902  0.00  0.00    +0.190 C 
ATOM     27  O   LIG    1        6.964   5.438  -3.070  0.00  0.00    -0.360 OA
ENDBRANCH  22  23
ENDBRANCH  21  22
ENDBRANCH  20  21
ENDBRANCH  17  20
ENDBRANCH  16  17
ENDBRANCH   1  16
TORSDOF 8
