REMARK  Name = ZINCrg000009DGj3.0
REMARK                            x       y       z     vdW  Elec       q    Type
REMARK                         _______ _______ _______ _____ _____    ______ ____
ROOT
ATOM      1  C   LIG    1       -1.413  -2.041   0.005  0.00  0.00    +0.520 C 
ATOM      2  N   LIG    1       -2.571  -2.730   0.012  0.00  0.00    -0.610 N 
ATOM      3  C   LIG    1       -3.861  -2.026   0.034  0.00  0.00    +0.270 C 
ATOM      4  C   LIG    1       -4.700  -2.513  -1.159  0.00  0.00    +0.270 C 
ATOM      5  N   LIG    1       -4.695  -3.982  -1.167  0.00  0.00    -0.620 N 
ATOM      6  C   LIG    1       -3.405  -4.686  -1.184  0.00  0.00    +0.280 C 
ATOM      7  C   LIG    1       -5.853  -4.672  -1.160  0.00  0.00    +0.520 C 
ATOM      8  O   LIG    1       -5.837  -5.884  -1.167  0.00  0.00    -0.520 OA
ATOM      9  C   LIG    1       -2.566  -4.200   0.004  0.00  0.00    +0.280 C 
ATOM     10  O   LIG    1       -0.354  -2.632  -0.009  0.00  0.00    -0.530 OA
ENDROOT
BRANCH   1  11
ATOM     11  C   LIG    1       -1.433  -0.534   0.013  0.00  0.00    +0.050 C 
BRANCH  11  12
ATOM     12  C   LIG    1        0.002  -0.004   0.002  0.00  0.00    +0.290 C 
BRANCH  12  14
ATOM     13  C   LIG    1        1.140   2.151   0.003  0.00  0.00    +0.540 C 
ATOM     14  N   LIG    1       -0.018   1.461   0.010  0.00  0.00    -0.730 N 
ATOM     15  H   LIG    1       -0.864   1.934   0.017  0.00  0.00    +0.400 HD
ATOM     16  O   LIG    1        2.201   1.557  -0.011  0.00  0.00    -0.540 OA
BRANCH  13  18
ATOM     17  C   LIG    1        2.263   4.302   0.004  0.00  0.00    +0.150 C 
ATOM     18  C   LIG    1        1.120   3.621   0.011  0.00  0.00    -0.090 C 
ENDBRANCH  13  18
ENDBRANCH  12  14
ENDBRANCH  11  12
ENDBRANCH   1  11
BRANCH   7  19
ATOM     19  C   LIG    1       -7.168  -3.936  -1.143  0.00  0.00    +0.140 C 
BRANCH  19  20
ATOM     20  C   LIG    1       -8.300  -4.931  -1.138  0.00  0.00    -0.160 A 
ATOM     21  C   LIG    1       -8.976  -5.377  -2.208  0.00  0.00    +0.240 A 
ATOM     22  N   LIG    1       -9.931  -6.275  -1.816  0.00  0.00    -0.590 N 
ATOM     23  H   LIG    1      -10.543  -6.734  -2.412  0.00  0.00    +0.420 HD
ATOM     24  C   LIG    1       -9.899  -6.425  -0.448  0.00  0.00    +0.100 A 
ATOM     25  C   LIG    1      -10.637  -7.189   0.450  0.00  0.00    -0.010 A 
ATOM     26  C   LIG    1      -10.359  -7.121   1.798  0.00  0.00    +0.030 A 
ATOM     27  C   LIG    1       -9.348  -6.296   2.271  0.00  0.00    -0.020 A 
ATOM     28  C   LIG    1       -8.611  -5.536   1.407  0.00  0.00    +0.050 A 
ATOM     29  C   LIG    1       -8.876  -5.590   0.037  0.00  0.00    -0.090 A 
ENDBRANCH  19  20
ENDBRANCH   7  19
TORSDOF 6
