REMARK  Name = ZINCpe00000K8TNF.0
REMARK                            x       y       z     vdW  Elec       q    Type
REMARK                         _______ _______ _______ _____ _____    ______ ____
ROOT
ATOM      1  C   LIG    1        1.887  -1.343   3.899  0.00  0.00    -0.070 A 
ATOM      2  C   LIG    1        0.506  -1.153   3.817  0.00  0.00    +0.080 A 
ATOM      3  C   LIG    1       -0.061  -0.745   2.627  0.00  0.00    +0.140 A 
ATOM      4  C   LIG    1        0.735  -0.524   1.518  0.00  0.00    -0.650 A 
ATOM      5  C   LIG    1        2.103  -0.715   1.591  0.00  0.00    +0.120 A 
ATOM      6  C   LIG    1        2.684  -1.118   2.776  0.00  0.00    +0.020 A 
ENDROOT
BRANCH   1   9
ATOM      7  N   LIG    1        3.834  -1.963   5.247  0.00  0.00    -0.540 N 
ATOM      8  H   LIG    1        4.391  -1.807   4.468  0.00  0.00    +0.420 HD
ATOM      9  C   LIG    1        2.501  -1.780   5.171  0.00  0.00    +0.560 C 
ATOM     10  O   LIG    1        1.804  -1.976   6.147  0.00  0.00    -0.500 OA
BRANCH   7  11
ATOM     11  N   LIG    1        4.417  -2.377   6.452  0.00  0.00    -0.470 N 
ATOM     12  H   LIG    1        3.861  -2.534   7.231  0.00  0.00    +0.460 HD
BRANCH  11  13
ATOM     13  C   LIG    1        5.750  -2.560   6.528  0.00  0.00    +0.560 C 
ATOM     14  S   LIG    1        6.462  -3.067   8.000  0.00  0.00    -0.580 S 
BRANCH  13  15
ATOM     15  N   LIG    1        6.523  -2.343   5.445  0.00  0.00    -0.680 N 
ATOM     16  H   LIG    1        6.120  -2.056   4.611  0.00  0.00    +0.390 HD
BRANCH  15  18
ATOM     17  C   LIG    1        8.608  -2.229   4.172  0.00  0.00    +0.040 C 
ATOM     18  C   LIG    1        7.972  -2.541   5.528  0.00  0.00    +0.300 C 
ENDBRANCH  15  18
ENDBRANCH  13  15
ENDBRANCH  11  13
ENDBRANCH   7  11
ENDBRANCH   1   9
BRANCH   4  19
ATOM     19  S   LIG    1        0.002  -0.004   0.002  0.00  0.00    +2.700 S 
ATOM     20  O   LIG    1        0.900  -0.388  -1.030  0.00  0.00    -0.940 OA
ATOM     21  O   LIG    1       -1.355  -0.424   0.048  0.00  0.00    -0.940 OA
BRANCH  19  22
ATOM     22  N   LIG    1       -0.020   1.652   0.011  0.00  0.00    -1.110 NA
ATOM     23  H   LIG    1       -0.867   2.125   0.018  0.00  0.00    +0.430 HD
BRANCH  22  24
ATOM     24  C   LIG    1        1.238   2.401   0.003  0.00  0.00    +0.400 C 
BRANCH  24  25
ATOM     25  C   LIG    1        0.964   3.840  -0.354  0.00  0.00    -0.040 A 
ATOM     26  C   LIG    1        0.681   4.826   0.515  0.00  0.00    -0.030 A 
ATOM     27  C   LIG    1        0.499   6.003  -0.246  0.00  0.00    -0.070 A 
ATOM     28  C   LIG    1        0.674   5.664  -1.536  0.00  0.00    +0.190 A 
ATOM     29  O   LIG    1        0.955   4.352  -1.595  0.00  0.00    -0.170 OA
ENDBRANCH  24  25
ENDBRANCH  22  24
ENDBRANCH  19  22
ENDBRANCH   4  19
TORSDOF 9
