REMARK  Name = ZINCpk00000kTg4A.0
REMARK                            x       y       z     vdW  Elec       q    Type
REMARK                         _______ _______ _______ _____ _____    ______ ____
ROOT
ATOM      1  C   LIG    1        1.848  -1.759  -0.025  0.00  0.00    +0.360 C 
ATOM      2  N   LIG    1        1.327  -0.390  -0.013  0.00  0.00    -0.440 N 
ATOM      3  C   LIG    1        0.002  -0.004   0.002  0.00  0.00    +0.120 A 
ATOM      4  N   LIG    1       -0.016   1.312   0.009  0.00  0.00    -0.220 NA
ATOM      5  N   LIG    1        1.188   1.761   0.000  0.00  0.00    -0.310 NA
ATOM      6  C   LIG    1        2.045   0.757  -0.013  0.00  0.00    +0.370 A 
ENDROOT
BRANCH   6   7
ATOM      7  N   LIG    1        3.419   0.858  -0.026  0.00  0.00    -0.430 N 
ATOM      8  C   LIG    1        3.849   2.280  -0.022  0.00  0.00    +0.230 C 
ATOM      9  C   LIG    1        5.303   2.250   0.491  0.00  0.00    -0.010 C 
ATOM     10  C   LIG    1        5.481   3.362   1.547  0.00  0.00    +0.220 C 
ATOM     11  O   LIG    1        6.210   2.738   2.625  0.00  0.00    -0.370 OA
ATOM     12  C   LIG    1        5.634   1.421   2.761  0.00  0.00    +0.210 C 
ATOM     13  C   LIG    1        5.407   0.935   1.314  0.00  0.00    -0.010 C 
ATOM     14  C   LIG    1        4.005   0.298   1.219  0.00  0.00    +0.200 C 
ENDBRANCH   6   7
BRANCH   3  15
ATOM     15  C   LIG    1       -1.167  -0.894   0.009  0.00  0.00    +0.620 C 
ATOM     16  N   LIG    1       -2.410  -0.373   0.023  0.00  0.00    -0.700 N 
ATOM     17  H   LIG    1       -2.533   0.589   0.029  0.00  0.00    +0.420 HD
ATOM     18  O   LIG    1       -1.013  -2.101   0.001  0.00  0.00    -0.530 OA
BRANCH  16  19
ATOM     19  C   LIG    1       -3.576  -1.261   0.030  0.00  0.00    +0.340 C 
BRANCH  19  20
ATOM     20  C   LIG    1       -4.836  -0.434   0.047  0.00  0.00    -0.110 A 
ATOM     21  C   LIG    1       -5.406  -0.066   1.251  0.00  0.00    +0.060 A 
ATOM     22  C   LIG    1       -6.559   0.696   1.267  0.00  0.00    +0.030 A 
ATOM     23  C   LIG    1       -7.149   1.081   0.076  0.00  0.00    -0.020 A 
ATOM     24  C   LIG    1       -6.582   0.708  -1.129  0.00  0.00    +0.030 A 
ATOM     25 CL   LIG    1       -8.602   2.031   0.095  0.00  0.00    -0.060 Cl
ATOM     26  C   LIG    1       -5.426  -0.050  -1.143  0.00  0.00    +0.060 A 
ENDBRANCH  19  20
ENDBRANCH  16  19
ENDBRANCH   3  15
TORSDOF 4
