REMARK  Name = ZINCpe000000XATL.0
REMARK                            x       y       z     vdW  Elec       q    Type
REMARK                         _______ _______ _______ _____ _____    ______ ____
ROOT
ATOM      1  N   LIG    1       -6.667   2.698  -6.065  0.00  0.00    -0.670 N 
ATOM      2  H   LIG    1       -6.416   1.858  -6.480  0.00  0.00    +0.420 HD
ATOM      3  C   LIG    1       -5.838   3.287  -5.180  0.00  0.00    +0.520 C 
ATOM      4  O   LIG    1       -6.104   4.385  -4.739  0.00  0.00    -0.510 OA
ENDROOT
BRANCH   1   7
ATOM      5  C   LIG    1       -7.853   2.080  -8.576  0.00  0.00    +0.130 C 
ATOM      6  C   LIG    1       -8.504   3.023  -7.599  0.00  0.00    -0.060 A 
ATOM      7  C   LIG    1       -7.891   3.298  -6.384  0.00  0.00    +0.150 A 
ATOM      8  C   LIG    1       -8.496   4.165  -5.483  0.00  0.00    +0.080 A 
ATOM      9  C   LIG    1       -9.701   4.759  -5.803  0.00  0.00    +0.050 A 
ATOM     10  C   LIG    1      -10.310   4.484  -7.014  0.00  0.00    +0.080 A 
ATOM     11  C   LIG    1       -9.712   3.617  -7.911  0.00  0.00    -0.020 A 
BRANCH  11  12
ATOM     12  N   LIG    1      -10.366   3.325  -9.206  0.00  0.00    +0.030 N 
ATOM     13  O   LIG    1      -10.138   2.276  -9.781  0.00  0.00    -0.150 OA
ATOM     14  O   LIG    1      -11.133   4.134  -9.696  0.00  0.00    -0.160 OA
ENDBRANCH  11  12
ENDBRANCH   1   7
BRANCH   3  15
ATOM     15  C   LIG    1       -4.582   2.581  -4.739  0.00  0.00    +0.070 C 
BRANCH  15  16
ATOM     16  C   LIG    1       -3.827   3.460  -3.741  0.00  0.00    +0.210 C 
BRANCH  16  17
ATOM     17  N   LIG    1       -2.602   2.772  -3.311  0.00  0.00    -0.540 NA
ATOM     18  C   LIG    1       -1.734   3.673  -2.541  0.00  0.00    +0.170 C 
ATOM     19  C   LIG    1       -0.396   2.979  -2.268  0.00  0.00    +0.310 C 
ATOM     20  N   LIG    1       -0.664   1.680  -1.632  0.00  0.00    -1.000 NA
ATOM     21  C   LIG    1       -1.626   0.774  -2.278  0.00  0.00    +0.300 C 
ATOM     22  C   LIG    1       -2.921   1.558  -2.548  0.00  0.00    +0.160 C 
BRANCH  20  23
ATOM     23  S   LIG    1        0.101   1.246  -0.229  0.00  0.00    +2.610 S 
ATOM     24  O   LIG    1        1.315   1.984  -0.250  0.00  0.00    -0.950 OA
ATOM     25  O   LIG    1        0.105  -0.174  -0.257  0.00  0.00    -0.950 OA
ATOM     26  C   LIG    1       -0.990   1.854   1.088  0.00  0.00    -0.280 C 
ENDBRANCH  20  23
ENDBRANCH  16  17
ENDBRANCH  15  16
ENDBRANCH   3  15
TORSDOF 6
