REMARK  Name = ZINCah0000001xHP.1
REMARK                            x       y       z     vdW  Elec       q    Type
REMARK                         _______ _______ _______ _____ _____    ______ ____
ROOT
ATOM      1  C   LIG    1       -1.223   1.743   0.017  0.00  0.00    -0.130 A 
ATOM      2  C   LIG    1       -1.231   3.129   0.031  0.00  0.00    +0.060 A 
ATOM      3  C   LIG    1       -0.015   3.796   0.023  0.00  0.00    -0.030 A 
ATOM      4  C   LIG    1        1.155   3.062   0.007  0.00  0.00    +0.260 A 
ATOM      5  N   LIG    1        1.125   1.743   0.001  0.00  0.00    -0.490 NA
ATOM      6  C   LIG    1       -0.013   1.076   0.008  0.00  0.00    +0.280 A 
ENDROOT
BRANCH   1   7
ATOM      7  C   LIG    1       -2.519   0.972   0.019  0.00  0.00    +0.240 C 
BRANCH   7   9
ATOM      8  C   LIG    1       -3.270   1.966   2.095  0.00  0.00    +0.190 C 
ATOM      9  N   LIG    1       -2.933   0.714   1.404  0.00  0.00    -0.540 NA
ATOM     10  C   LIG    1       -4.056  -0.232   1.450  0.00  0.00    +0.190 C 
ENDBRANCH   7   9
ENDBRANCH   1   7
TORSDOF 2
