REMARK  Name = ZINCkj00000dE5Y1.0
REMARK                            x       y       z     vdW  Elec       q    Type
REMARK                         _______ _______ _______ _____ _____    ______ ____
ROOT
ATOM      1  N   LIG    1        1.597   3.264   0.762  0.00  0.00    -0.500 N 
ATOM      2  H   LIG    1        1.402   3.148   1.745  0.00  0.00    +0.440 HD
ATOM      3  H   LIG    1        0.931   3.907   0.361  0.00  0.00    +0.420 HD
ENDROOT
BRANCH   1   4
ATOM      4  C   LIG    1        1.492   1.965   0.085  0.00  0.00    +0.030 C 
ATOM      5  C   LIG    1        0.110   1.330   0.346  0.00  0.00    +0.070 C 
ATOM      6  C   LIG    1        0.344  -0.182   0.507  0.00  0.00    +0.050 C 
ATOM      7  C   LIG    1        1.860  -0.414   0.338  0.00  0.00    +0.060 C 
ATOM      8  C   LIG    1        2.495   0.953   0.693  0.00  0.00    +0.090 C 
BRANCH   4  12
ATOM      9  N   LIG    1        1.238   3.190  -2.049  0.00  0.00    -0.850 N 
ATOM     10  H   LIG    1        1.329   3.254  -3.013  0.00  0.00    +0.430 HD
ATOM     11  H   LIG    1        0.794   3.897  -1.556  0.00  0.00    +0.400 HD
ATOM     12  C   LIG    1        1.730   2.119  -1.395  0.00  0.00    +0.520 C 
ATOM     13  O   LIG    1        2.363   1.279  -1.998  0.00  0.00    -0.470 OA
ENDBRANCH   4  12
ENDBRANCH   1   4
BRANCH   1  14
ATOM     14  C   LIG    1        2.956   3.796   0.591  0.00  0.00    +0.360 C 
BRANCH  14  15
ATOM     15  C   LIG    1        3.056   5.142   1.262  0.00  0.00    -0.250 A 
ATOM     16  C   LIG    1        2.774   6.306   0.564  0.00  0.00    +0.380 A 
ATOM     17  N   LIG    1        2.867   7.469   1.188  0.00  0.00    -0.470 NA
ATOM     18  C   LIG    1        3.233   7.530   2.452  0.00  0.00    +0.280 A 
ATOM     19  N   LIG    1        3.514   6.445   3.146  0.00  0.00    -0.470 NA
ATOM     20  C   LIG    1        3.438   5.246   2.590  0.00  0.00    +0.400 A 
BRANCH  18  21
ATOM     21  C   LIG    1        3.333   8.875   3.123  0.00  0.00    +0.540 C 
ATOM     22  F   LIG    1        3.395   8.702   4.510  0.00  0.00    -0.150 F 
ATOM     23  F   LIG    1        2.209   9.643   2.799  0.00  0.00    -0.150 F 
ATOM     24  F   LIG    1        4.488   9.531   2.683  0.00  0.00    -0.150 F 
ENDBRANCH  18  21
ENDBRANCH  14  15
ENDBRANCH   1  14
TORSDOF 5
