REMARK  Name = ZINCqH0000038dbW.0
REMARK                            x       y       z     vdW  Elec       q    Type
REMARK                         _______ _______ _______ _____ _____    ______ ____
ROOT
ATOM      1  C   LIG    1       -5.250   3.926  -0.518  0.00  0.00    +0.270 C 
ATOM      2  C   LIG    1       -5.104   5.231  -1.329  0.00  0.00    +0.050 C 
ATOM      3  C   LIG    1       -3.572   5.335  -1.550  0.00  0.00    +0.040 C 
ATOM      4  C   LIG    1       -3.180   3.845  -1.714  0.00  0.00    +0.250 C 
ATOM      5  N   LIG    1       -4.046   3.120  -0.766  0.00  0.00    -0.610 N 
ATOM      6  C   LIG    1       -3.780   1.917  -0.221  0.00  0.00    +0.540 C 
ATOM      7  O   LIG    1       -4.609   1.369   0.474  0.00  0.00    -0.490 OA
ENDROOT
BRANCH   6   8
ATOM      8  C   LIG    1       -2.453   1.250  -0.477  0.00  0.00    +0.190 C 
ATOM      9  C   LIG    1       -1.356   1.985   0.295  0.00  0.00    +0.110 C 
ATOM     10  C   LIG    1       -0.072   1.198   0.256  0.00  0.00    -0.040 A 
ATOM     11  C   LIG    1        1.132   1.833   0.487  0.00  0.00    +0.020 A 
ATOM     12  C   LIG    1        2.313   1.113   0.461  0.00  0.00    +0.050 A 
ATOM     13  C   LIG    1        2.300  -0.246   0.203  0.00  0.00    +0.010 A 
ATOM     14  C   LIG    1        1.104  -0.894  -0.032  0.00  0.00    +0.090 A 
ATOM     15  C   LIG    1       -0.087  -0.172  -0.008  0.00  0.00    -0.170 A 
ATOM     16  C   LIG    1       -1.379  -0.849  -0.267  0.00  0.00    +0.530 C 
ATOM     17  O   LIG    1       -1.425  -1.993  -0.672  0.00  0.00    -0.440 OA
ATOM     18  O   LIG    1       -2.510  -0.136  -0.031  0.00  0.00    -0.330 OA
ENDBRANCH   6   8
BRANCH   1  23
ATOM     19  C   LIG    1       -9.941   1.033  -2.257  0.00  0.00    +0.080 C 
ATOM     20  C   LIG    1       -8.718   1.788  -1.804  0.00  0.00    -0.080 A 
ATOM     21  C   LIG    1       -7.561   1.748  -2.560  0.00  0.00    +0.000 A 
ATOM     22  C   LIG    1       -6.439   2.440  -2.143  0.00  0.00    +0.010 A 
ATOM     23  C   LIG    1       -6.474   3.172  -0.971  0.00  0.00    -0.090 A 
ATOM     24  C   LIG    1       -7.629   3.207  -0.212  0.00  0.00    +0.020 A 
ATOM     25  C   LIG    1       -8.752   2.519  -0.631  0.00  0.00    -0.080 A 
ATOM     26  C   LIG    1      -10.013   2.563   0.193  0.00  0.00    +0.090 C 
ENDBRANCH   1  23
TORSDOF 2
