REMARK  Name = ZINCb80000003Wt5.0
REMARK                            x       y       z     vdW  Elec       q    Type
REMARK                         _______ _______ _______ _____ _____    ______ ____
ROOT
ATOM      1  N   LIG    1        2.275   3.951   0.002  0.00  0.00    -0.620 N 
ATOM      2  H   LIG    1        2.418   4.622   0.688  0.00  0.00    +0.410 HD
ENDROOT
BRANCH   1   3
ATOM      3  C   LIG    1        1.110   3.176   0.015  0.00  0.00    +0.070 A 
ATOM      4  C   LIG    1        1.165   1.813  -0.268  0.00  0.00    +0.120 A 
ATOM      5  C   LIG    1       -0.014   1.087  -0.242  0.00  0.00    -0.020 A 
ATOM      6  C   LIG    1       -1.199   1.735   0.055  0.00  0.00    +0.260 A 
ATOM      7  N   LIG    1       -1.217   3.026   0.324  0.00  0.00    -0.470 NA
ATOM      8  C   LIG    1       -0.118   3.753   0.310  0.00  0.00    +0.250 A 
ENDBRANCH   1   3
BRANCH   1   9
ATOM      9  C   LIG    1        3.196   3.767  -0.964  0.00  0.00    +0.570 C 
ATOM     10  S   LIG    1        2.881   2.686  -2.253  0.00  0.00    -0.600 S 
BRANCH   9  11
ATOM     11  N   LIG    1        4.367   4.434  -0.914  0.00  0.00    -0.520 N 
ATOM     12  H   LIG    1        5.030   4.301  -1.609  0.00  0.00    +0.440 HD
BRANCH  11  13
ATOM     13  N   LIG    1        4.619   5.296   0.115  0.00  0.00    -0.620 NA
ATOM     14  H   LIG    1        3.898   6.000   0.181  0.00  0.00    +0.350 HD
ATOM     15  H   LIG    1        5.529   5.719   0.017  0.00  0.00    +0.380 HD
ENDBRANCH  11  13
ENDBRANCH   9  11
ENDBRANCH   1   9
TORSDOF 4
