REMARK  Name = ZINCwl0000000lhm.0
REMARK                            x       y       z     vdW  Elec       q    Type
REMARK                         _______ _______ _______ _____ _____    ______ ____
ROOT
ATOM      1  C   LIG    1        3.349  -3.442   3.918  0.00  0.00    +0.600 C 
ATOM      2  N   LIG    1        2.947  -3.480   2.632  0.00  0.00    -0.620 N 
ATOM      3  C   LIG    1        3.385  -2.563   1.570  0.00  0.00    +0.260 C 
ATOM      4  C   LIG    1        2.687  -3.005   0.266  0.00  0.00    +0.260 C 
ATOM      5  C   LIG    1        2.336  -4.490   0.542  0.00  0.00    -0.080 C 
ATOM      6  C   LIG    1        3.539  -5.397   0.274  0.00  0.00    +0.060 C 
ATOM      7  C   LIG    1        1.125  -4.930  -0.284  0.00  0.00    +0.050 C 
ATOM      8  C   LIG    1        1.996  -4.449   2.057  0.00  0.00    +0.270 C 
ATOM      9  O   LIG    1        2.852  -4.195   4.733  0.00  0.00    -0.510 OA
ENDROOT
BRANCH   1  13
ATOM     10  C   LIG    1        4.655   1.106   5.189  0.00  0.00    +0.320 C 
ATOM     11  N   LIG    1        5.017  -0.292   4.945  0.00  0.00    -0.490 N 
ATOM     12  C   LIG    1        4.068  -1.167   4.563  0.00  0.00    +0.320 A 
ATOM     13  C   LIG    1        4.392  -2.487   4.336  0.00  0.00    -0.230 A 
ATOM     14  C   LIG    1        5.732  -2.927   4.512  0.00  0.00    +0.040 A 
ATOM     15  C   LIG    1        6.672  -2.028   4.882  0.00  0.00    -0.180 A 
ATOM     16  C   LIG    1        8.121  -2.392   5.067  0.00  0.00    +0.100 C 
ATOM     17  C   LIG    1        8.280  -3.904   5.219  0.00  0.00    +0.030 C 
ATOM     18  C   LIG    1        7.539  -4.586   4.063  0.00  0.00    +0.030 C 
ATOM     19  C   LIG    1        6.039  -4.379   4.266  0.00  0.00    +0.080 C 
ATOM     20  C   LIG    1        6.291  -0.685   5.106  0.00  0.00    +0.520 A 
ATOM     21  O   LIG    1        7.132   0.129   5.451  0.00  0.00    -0.530 OA
ENDBRANCH   1  13
BRANCH   4  22
ATOM     22  N   LIG    1        1.473  -2.219   0.036  0.00  0.00    -0.720 N 
ATOM     23  H   LIG    1        0.620  -2.532   0.377  0.00  0.00    +0.400 HD
ATOM     24  C   LIG    1        1.539  -1.060  -0.648  0.00  0.00    +0.510 C 
ATOM     25  O   LIG    1        2.605  -0.668  -1.075  0.00  0.00    -0.510 OA
BRANCH  24  26
ATOM     26  C   LIG    1        0.290  -0.251  -0.885  0.00  0.00    +0.010 C 
ATOM     27  C   LIG    1       -0.323   0.150   0.459  0.00  0.00    +0.270 C 
ATOM     28  N   LIG    1       -0.379   1.610   0.568  0.00  0.00    -0.370 N 
ATOM     29  C   LIG    1        0.967   2.183   0.511  0.00  0.00    +0.240 C 
ATOM     30  C   LIG    1        1.623   1.850  -0.831  0.00  0.00    +0.070 C 
ATOM     31  C   LIG    1       -1.225   2.174  -0.486  0.00  0.00    +0.250 C 
ATOM     32  C   LIG    1       -0.642   1.840  -1.861  0.00  0.00    +0.070 C 
ATOM     33  H   LIG    1       -0.790   1.847   1.458  0.00  0.00    +0.430 HD
ATOM     34  C   LIG    1        0.641   1.020  -1.669  0.00  0.00    +0.050 C 
ENDBRANCH  24  26
ENDBRANCH   4  22
TORSDOF 3
