REMARK  Name = ZINCpe000000ZBLK.0
REMARK                            x       y       z     vdW  Elec       q    Type
REMARK                         _______ _______ _______ _____ _____    ______ ____
ROOT
ATOM      1  C   LIG    1        0.028  -0.003  -0.010  0.00  0.00    +0.510 C 
ATOM      2  N   LIG    1       -0.004   1.344   0.004  0.00  0.00    -0.610 N 
ATOM      3  C   LIG    1       -1.315   2.023   0.022  0.00  0.00    +0.270 C 
ATOM      4  C   LIG    1       -1.306   3.221   0.993  0.00  0.00    +0.040 C 
ATOM      5  C   LIG    1       -0.532   2.861   2.242  0.00  0.00    +0.200 C 
ATOM      6  N   LIG    1        0.863   3.264   2.073  0.00  0.00    -0.500 N 
ATOM      7  C   LIG    1        1.716   2.324   1.448  0.00  0.00    +0.180 C 
ATOM      8  C   LIG    1        1.249   2.071  -0.006  0.00  0.00    +0.290 C 
ATOM      9  O   LIG    1       -1.008  -0.634  -0.002  0.00  0.00    -0.530 OA
ENDROOT
BRANCH   6  10
ATOM     10  C   LIG    1        1.407   3.707   3.283  0.00  0.00    +0.110 A 
ATOM     11  C   LIG    1        0.784   4.725   3.993  0.00  0.00    +0.030 A 
ATOM     12  C   LIG    1        1.321   5.158   5.190  0.00  0.00    +0.010 A 
ATOM     13  C   LIG    1        2.483   4.585   5.676  0.00  0.00    +0.070 A 
ATOM     14  C   LIG    1        3.108   3.574   4.967  0.00  0.00    +0.020 A 
ATOM     15  F   LIG    1        3.009   5.014   6.845  0.00  0.00    -0.140 F 
ATOM     16  C   LIG    1        2.573   3.134   3.772  0.00  0.00    -0.010 A 
ENDBRANCH   6  10
BRANCH   1  17
ATOM     17  C   LIG    1        1.350  -0.725  -0.035  0.00  0.00    +0.050 C 
BRANCH  17  18
ATOM     18  C   LIG    1        1.106  -2.236  -0.046  0.00  0.00    +0.080 C 
BRANCH  18  24
ATOM     19  O   LIG    1        3.812  -4.324   2.781  0.00  0.00    -0.540 OA
ATOM     20  C   LIG    1        3.279  -4.076   1.717  0.00  0.00    +0.700 C 
ATOM     21  N   LIG    1        2.768  -5.009   0.906  0.00  0.00    -0.680 N 
ATOM     22  H   LIG    1        2.778  -5.960   1.095  0.00  0.00    +0.440 HD
ATOM     23  C   LIG    1        2.238  -4.464  -0.207  0.00  0.00    +0.530 C 
ATOM     24  C   LIG    1        2.449  -2.969  -0.071  0.00  0.00    +0.220 C 
ATOM     25  O   LIG    1        1.703  -5.048  -1.125  0.00  0.00    -0.460 OA
ATOM     26  N   LIG    1        3.138  -2.833   1.223  0.00  0.00    -0.720 N 
ATOM     27  H   LIG    1        3.433  -2.007   1.639  0.00  0.00    +0.440 HD
ENDBRANCH  18  24
ENDBRANCH  17  18
ENDBRANCH   1  17
TORSDOF 4
