REMARK  Name = ZINCpe00000gzDdg.0
REMARK                            x       y       z     vdW  Elec       q    Type
REMARK                         _______ _______ _______ _____ _____    ______ ____
ROOT
ATOM      1  C   LIG    1       -0.013   1.086   0.008  0.00  0.00    +0.210 C 
ENDROOT
BRANCH   1   2
ATOM      2  N   LIG    1       -0.589   1.569   1.270  0.00  0.00    -0.520 NA
ATOM      3  C   LIG    1       -2.032   1.303   1.326  0.00  0.00    +0.170 C 
ATOM      4  C   LIG    1       -2.623   1.946   2.582  0.00  0.00    +0.030 C 
ATOM      5  C   LIG    1       -1.929   1.369   3.820  0.00  0.00    +0.270 C 
ATOM      6  C   LIG    1       -0.422   1.618   3.713  0.00  0.00    +0.030 C 
ATOM      7  C   LIG    1        0.105   0.984   2.424  0.00  0.00    +0.180 C 
BRANCH   5   8
ATOM      8  N   LIG    1       -2.450   2.023   5.022  0.00  0.00    -0.630 N 
ATOM      9  C   LIG    1       -3.127   1.344   6.137  0.00  0.00    +0.250 C 
ATOM     10  C   LIG    1       -3.457   2.485   7.119  0.00  0.00    +0.250 C 
ATOM     11  N   LIG    1       -2.938   3.687   6.450  0.00  0.00    -0.750 N 
ATOM     12  H   LIG    1       -2.986   4.590   6.800  0.00  0.00    +0.430 HD
ATOM     13  C   LIG    1       -2.390   3.337   5.279  0.00  0.00    +0.700 C 
ATOM     14  O   LIG    1       -1.883   4.138   4.518  0.00  0.00    -0.570 OA
ENDBRANCH   5   8
ENDBRANCH   1   2
BRANCH   1  17
ATOM     15  N   LIG    1        2.170   1.182  -1.152  0.00  0.00    -0.730 N 
ATOM     16  H   LIG    1        1.819   0.549  -1.798  0.00  0.00    +0.400 HD
ATOM     17  C   LIG    1        1.397   1.601  -0.131  0.00  0.00    +0.510 C 
ATOM     18  O   LIG    1        1.835   2.392   0.677  0.00  0.00    -0.510 OA
BRANCH  15  19
ATOM     19  C   LIG    1        3.540   1.683  -1.287  0.00  0.00    +0.320 C 
BRANCH  19  23
ATOM     20  C   LIG    1        5.366  -0.071  -4.730  0.00  0.00    +0.140 A 
ATOM     21  C   LIG    1        4.670   1.124  -4.845  0.00  0.00    -0.020 A 
ATOM     22  C   LIG    1        4.081   1.689  -3.730  0.00  0.00    +0.070 A 
ATOM     23  C   LIG    1        4.184   1.064  -2.501  0.00  0.00    -0.150 A 
ATOM     24  C   LIG    1        4.881  -0.123  -2.382  0.00  0.00    +0.070 A 
ATOM     25  C   LIG    1        5.468  -0.695  -3.495  0.00  0.00    -0.080 A 
BRANCH  20  27
ATOM     26  C   LIG    1        6.647  -1.859  -5.631  0.00  0.00    +0.250 C 
ATOM     27  O   LIG    1        5.947  -0.628  -5.824  0.00  0.00    -0.320 OA
ENDBRANCH  20  27
ENDBRANCH  19  23
ENDBRANCH  15  19
ENDBRANCH   1  17
TORSDOF 6
