REMARK  Name = ZINCqH0000006TT8.0
REMARK                            x       y       z     vdW  Elec       q    Type
REMARK                         _______ _______ _______ _____ _____    ______ ____
ROOT
ATOM      1  C   LIG    1       -2.456  -2.720   0.012  0.00  0.00    +0.520 C 
ATOM      2  N   LIG    1       -2.614  -4.059   0.006  0.00  0.00    -0.730 N 
ATOM      3  H   LIG    1       -1.837  -4.639  -0.004  0.00  0.00    +0.410 HD
ATOM      4  O   LIG    1       -3.428  -1.995   0.025  0.00  0.00    -0.510 OA
ENDROOT
BRANCH   2   5
ATOM      5  C   LIG    1       -3.960  -4.637   0.017  0.00  0.00    +0.350 C 
ATOM      6  C   LIG    1       -4.464  -4.731   1.458  0.00  0.00    +0.060 C 
BRANCH   5   7
ATOM      7  C   LIG    1       -3.920  -6.015  -0.592  0.00  0.00    +0.020 A 
ATOM      8  C   LIG    1       -4.854  -6.521  -1.408  0.00  0.00    -0.020 A 
ATOM      9  C   LIG    1       -4.405  -7.876  -1.753  0.00  0.00    -0.130 A 
ATOM     10  C   LIG    1       -4.919  -8.899  -2.548  0.00  0.00    +0.060 A 
ATOM     11  C   LIG    1       -4.229 -10.086  -2.658  0.00  0.00    +0.000 A 
ATOM     12  C   LIG    1       -3.031 -10.264  -1.983  0.00  0.00    +0.050 A 
ATOM     13  C   LIG    1       -2.512  -9.260  -1.193  0.00  0.00    +0.020 A 
ATOM     14  C   LIG    1       -3.192  -8.055  -1.069  0.00  0.00    +0.060 A 
ATOM     15  O   LIG    1       -2.943  -6.917  -0.389  0.00  0.00    -0.190 OA
ENDBRANCH   5   7
ENDBRANCH   2   5
BRANCH   1  16
ATOM     16  C   LIG    1       -1.071  -2.125   0.001  0.00  0.00    +0.240 C 
BRANCH  16  17
ATOM     17  O   LIG    1       -1.165  -0.700   0.010  0.00  0.00    -0.280 OA
BRANCH  17  22
ATOM     18  C   LIG    1        2.404   0.029  -0.022  0.00  0.00    +0.200 A 
ATOM     19  C   LIG    1        2.385   1.415  -0.015  0.00  0.00    -0.190 A 
ATOM     20  C   LIG    1        1.175   2.092   0.002  0.00  0.00    +0.210 A 
ATOM     21  C   LIG    1       -0.017   1.383   0.010  0.00  0.00    -0.080 A 
ATOM     22  C   LIG    1        0.002  -0.004   0.002  0.00  0.00    +0.200 A 
ATOM     23  C   LIG    1        1.212  -0.681  -0.013  0.00  0.00    -0.140 A 
BRANCH  18  25
ATOM     24  C   LIG    1        4.777   0.160  -0.045  0.00  0.00    +0.250 C 
ATOM     25  O   LIG    1        3.590  -0.635  -0.037  0.00  0.00    -0.310 OA
ENDBRANCH  18  25
BRANCH  20  26
ATOM     26  O   LIG    1        1.156   3.451   0.009  0.00  0.00    -0.310 OA
ATOM     27  C   LIG    1        2.421   4.117   0.001  0.00  0.00    +0.250 C 
ENDBRANCH  20  26
ENDBRANCH  17  22
ENDBRANCH  16  17
ENDBRANCH   1  16
TORSDOF 7
