REMARK  Name = ZINCvU0000000F56.0
REMARK                            x       y       z     vdW  Elec       q    Type
REMARK                         _______ _______ _______ _____ _____    ______ ____
ROOT
ATOM      1  C   LIG    1       -2.134  -2.565  -3.237  0.00  0.00    -0.070 C 
ATOM      2  C   LIG    1       -1.686  -1.607  -4.342  0.00  0.00    +0.030 C 
ATOM      3  C   LIG    1       -2.375  -1.986  -5.655  0.00  0.00    +0.000 C 
ATOM      4  C   LIG    1       -1.994  -3.418  -6.036  0.00  0.00    +0.010 C 
ATOM      5  C   LIG    1       -2.442  -4.376  -4.931  0.00  0.00    -0.010 C 
ATOM      6  C   LIG    1       -3.959  -4.281  -4.757  0.00  0.00    +0.040 C 
ATOM      7  C   LIG    1       -4.340  -2.849  -4.375  0.00  0.00    -0.000 C 
ATOM      8  C   LIG    1       -3.892  -1.891  -5.481  0.00  0.00    +0.030 C 
ATOM      9  C   LIG    1       -3.651  -2.470  -3.063  0.00  0.00    +0.050 C 
ATOM     10  C   LIG    1       -1.753  -3.997  -3.618  0.00  0.00    +0.050 C 
ENDROOT
BRANCH   7  11
ATOM     11  C   LIG    1       -5.834  -2.756  -4.204  0.00  0.00    -0.110 A 
ATOM     12  C   LIG    1       -6.366  -2.377  -2.985  0.00  0.00    +0.050 A 
ATOM     13  C   LIG    1       -7.736  -2.285  -2.827  0.00  0.00    -0.080 A 
ATOM     14  C   LIG    1       -8.577  -2.584  -3.889  0.00  0.00    +0.120 A 
ATOM     15  C   LIG    1       -8.040  -2.968  -5.109  0.00  0.00    -0.020 A 
ATOM     16  C   LIG    1       -6.670  -3.053  -5.264  0.00  0.00    +0.060 A 
BRANCH  14  17
ATOM     17  O   LIG    1       -9.924  -2.499  -3.734  0.00  0.00    -0.320 OA
ATOM     18  C   LIG    1      -10.406  -2.097  -2.450  0.00  0.00    +0.250 C 
ENDBRANCH  14  17
ENDBRANCH   7  11
BRANCH   1  20
ATOM     19  N   LIG    1       -1.558  -0.936  -1.467  0.00  0.00    -0.610 N 
ATOM     20  C   LIG    1       -1.455  -2.192  -1.944  0.00  0.00    +0.530 C 
ATOM     21  O   LIG    1       -0.817  -3.023  -1.333  0.00  0.00    -0.530 OA
ATOM     22  C   LIG    1       -2.232   0.095  -2.259  0.00  0.00    +0.280 C 
BRANCH  19  23
ATOM     23  C   LIG    1       -0.995  -0.602  -0.156  0.00  0.00    +0.330 C 
BRANCH  23  27
ATOM     24  C   LIG    1        3.056   0.672  -0.627  0.00  0.00    +0.130 A 
ATOM     25  C   LIG    1        2.026   1.599  -0.680  0.00  0.00    -0.080 A 
ATOM     26  C   LIG    1        0.717   1.185  -0.528  0.00  0.00    +0.050 A 
ATOM     27  C   LIG    1        0.433  -0.153  -0.322  0.00  0.00    -0.150 A 
ATOM     28  C   LIG    1        1.459  -1.079  -0.269  0.00  0.00    +0.090 A 
ATOM     29  C   LIG    1        2.769  -0.669  -0.421  0.00  0.00    -0.020 A 
BRANCH  24  31
ATOM     30  C   LIG    1        4.566   2.474  -0.987  0.00  0.00    +0.250 C 
ATOM     31  O   LIG    1        4.345   1.077  -0.777  0.00  0.00    -0.320 OA
ENDBRANCH  24  31
ENDBRANCH  23  27
ENDBRANCH  19  23
ENDBRANCH   1  20
TORSDOF 6
