REMARK  Name = ZINCrH000004vB3Q.0
REMARK                            x       y       z     vdW  Elec       q    Type
REMARK                         _______ _______ _______ _____ _____    ______ ____
ROOT
ATOM      1  O   LIG    1       -4.075   5.824  -3.012  0.00  0.00    -0.520 OA
ATOM      2  C   LIG    1       -4.835   5.504  -2.119  0.00  0.00    +0.560 C 
ATOM      3  N   LIG    1       -4.410   4.691  -1.131  0.00  0.00    -0.610 N 
ATOM      4  C   LIG    1       -5.271   4.393   0.023  0.00  0.00    +0.230 C 
ATOM      5  C   LIG    1       -4.474   4.657   1.305  0.00  0.00    +0.220 C 
ATOM      6  N   LIG    1       -3.214   3.905   1.259  0.00  0.00    -0.680 NA
ATOM      7  H   LIG    1       -3.386   2.913   1.201  0.00  0.00    +0.340 HD
ATOM      8  C   LIG    1       -2.363   4.358   0.150  0.00  0.00    +0.220 C 
ATOM      9  C   LIG    1       -3.073   4.080  -1.179  0.00  0.00    +0.250 C 
ENDROOT
BRANCH   8  10
ATOM     10  C   LIG    1       -1.053   3.614   0.185  0.00  0.00    -0.090 A 
ATOM     11  C   LIG    1       -1.033   2.265   0.486  0.00  0.00    +0.030 A 
ATOM     12  C   LIG    1        0.168   1.582   0.524  0.00  0.00    -0.010 A 
ATOM     13  C   LIG    1        1.352   2.249   0.248  0.00  0.00    +0.110 A 
ATOM     14  C   LIG    1        1.329   3.602  -0.059  0.00  0.00    -0.010 A 
ATOM     15  C   LIG    1        0.127   4.282  -0.089  0.00  0.00    +0.040 A 
BRANCH  13  16
ATOM     16  O   LIG    1        2.534   1.579   0.279  0.00  0.00    -0.500 OA
ATOM     17  H   LIG    1        2.787   1.188  -0.568  0.00  0.00    +0.390 HD
ENDBRANCH  13  16
ENDBRANCH   8  10
BRANCH   2  18
ATOM     18  C   LIG    1       -6.226   6.005  -2.117  0.00  0.00    -0.110 A 
ATOM     19  C   LIG    1       -7.272   5.168  -1.725  0.00  0.00    +0.050 A 
ATOM     20  C   LIG    1       -8.568   5.643  -1.721  0.00  0.00    +0.050 A 
ATOM     21  C   LIG    1       -8.832   6.943  -2.114  0.00  0.00    -0.130 A 
ATOM     22  C   LIG    1       -7.800   7.777  -2.507  0.00  0.00    +0.060 A 
ATOM     23  C   LIG    1       -6.500   7.316  -2.511  0.00  0.00    +0.070 A 
BRANCH  21  24
ATOM     24  C   LIG    1      -10.250   7.454  -2.113  0.00  0.00    +0.250 C 
ATOM     25  F   LIG    1      -11.051   6.606  -2.885  0.00  0.00    -0.170 F 
BRANCH  24  26
ATOM     26  C   LIG    1      -10.779   7.487  -0.677  0.00  0.00    +0.440 C 
ATOM     27  F   LIG    1      -10.747   6.197  -0.139  0.00  0.00    -0.170 F 
ATOM     28  F   LIG    1      -12.095   7.961  -0.677  0.00  0.00    -0.170 F 
ATOM     29  F   LIG    1       -9.978   8.335   0.095  0.00  0.00    -0.170 F 
ENDBRANCH  24  26
ENDBRANCH  21  24
ENDBRANCH   2  18
TORSDOF 5
