REMARK  Name = ZINCqH0000006K4d.0
REMARK                            x       y       z     vdW  Elec       q    Type
REMARK                         _______ _______ _______ _____ _____    ______ ____
ROOT
ATOM      1  N   LIG    1       -6.187   6.460   1.219  0.00  0.00    -0.740 N 
ATOM      2  H   LIG    1       -6.687   5.630   1.207  0.00  0.00    +0.400 HD
ATOM      3  C   LIG    1       -4.840   6.436   1.172  0.00  0.00    +0.730 C 
ATOM      4  N   LIG    1       -4.189   5.258   1.106  0.00  0.00    -0.650 N 
ATOM      5  C   LIG    1       -4.773   3.897   1.076  0.00  0.00    +0.290 C 
ATOM      6  C   LIG    1       -3.903   3.121   0.065  0.00  0.00    -0.040 C 
ATOM      7  C   LIG    1       -3.442   3.851  -1.199  0.00  0.00    +0.090 C 
ATOM      8  C   LIG    1       -2.553   3.869   0.045  0.00  0.00    -0.110 C 
ATOM      9  C   LIG    1       -2.700   5.050   1.028  0.00  0.00    +0.340 C 
ATOM     10  O   LIG    1       -4.213   7.478   1.188  0.00  0.00    -0.580 OA
ENDROOT
BRANCH   8  11
ATOM     11  C   LIG    1       -1.238   3.133   0.029  0.00  0.00    -0.040 A 
ATOM     12  C   LIG    1       -1.219   1.751   0.017  0.00  0.00    +0.010 A 
ATOM     13  C   LIG    1       -0.013   1.076   0.008  0.00  0.00    +0.000 A 
ATOM     14  C   LIG    1        1.175   1.783   0.000  0.00  0.00    -0.090 A 
ATOM     15  C   LIG    1        1.156   3.165   0.008  0.00  0.00    +0.000 A 
ATOM     16  C   LIG    1        2.490   1.048  -0.016  0.00  0.00    +0.090 C 
ATOM     17  C   LIG    1       -0.050   3.840   0.022  0.00  0.00    +0.010 A 
ENDBRANCH   8  11
BRANCH   1  18
ATOM     18  C   LIG    1       -6.895   7.741   1.291  0.00  0.00    +0.340 C 
BRANCH  18  23
ATOM     19  C   LIG    1      -10.387   7.105   2.587  0.00  0.00    +0.130 A 
ATOM     20  C   LIG    1      -11.110   7.035   1.405  0.00  0.00    -0.070 A 
ATOM     21  C   LIG    1      -10.466   7.193   0.193  0.00  0.00    -0.050 A 
ATOM     22  C   LIG    1       -9.104   7.427   0.157  0.00  0.00    -0.010 A 
ATOM     23  C   LIG    1       -8.380   7.492   1.333  0.00  0.00    -0.070 A 
ATOM     24  C   LIG    1      -11.251   7.117  -1.092  0.00  0.00    +0.090 C 
ATOM     25  C   LIG    1       -9.019   7.335   2.548  0.00  0.00    -0.010 A 
BRANCH  19  27
ATOM     26  C   LIG    1      -12.427   6.718   3.744  0.00  0.00    +0.250 C 
ATOM     27  O   LIG    1      -11.018   6.951   3.780  0.00  0.00    -0.320 OA
ENDBRANCH  19  27
ENDBRANCH  18  23
ENDBRANCH   1  18
TORSDOF 4
