REMARK  Name = ZINCrg000000pmvY.0
REMARK                            x       y       z     vdW  Elec       q    Type
REMARK                         _______ _______ _______ _____ _____    ______ ____
ROOT
ATOM      1  C   LIG    1       -0.024   3.925  -0.705  0.00  0.00    +0.600 C 
ATOM      2  N   LIG    1       -1.092   3.549   0.027  0.00  0.00    -0.660 N 
ATOM      3  H   LIG    1       -1.091   2.693   0.482  0.00  0.00    +0.420 HD
ATOM      4  O   LIG    1       -0.063   4.954  -1.354  0.00  0.00    -0.480 OA
ENDROOT
BRANCH   2   5
ATOM      5  C   LIG    1       -2.202   4.394   0.129  0.00  0.00    +0.120 A 
ATOM      6  C   LIG    1       -3.481   3.849   0.233  0.00  0.00    +0.050 A 
ATOM      7  C   LIG    1       -4.580   4.653   0.334  0.00  0.00    +0.060 A 
ATOM      8  C   LIG    1       -4.430   6.042   0.334  0.00  0.00    +0.160 A 
ATOM      9  N   LIG    1       -5.493   6.874   0.430  0.00  0.00    -0.520 NA
ATOM     10  C   LIG    1       -5.369   8.174   0.430  0.00  0.00    +0.390 A 
ATOM     11  C   LIG    1       -6.467   9.221   0.526  0.00  0.00    +0.150 C 
ATOM     12  C   LIG    1       -5.796  10.526   0.046  0.00  0.00    +0.070 C 
ATOM     13  C   LIG    1       -4.312  10.257   0.369  0.00  0.00    +0.280 C 
ATOM     14  N   LIG    1       -4.160   8.792   0.337  0.00  0.00    -0.560 N 
ATOM     15  C   LIG    1       -3.018   8.063   0.234  0.00  0.00    +0.560 A 
ATOM     16  O   LIG    1       -1.932   8.606   0.148  0.00  0.00    -0.500 OA
ATOM     17  C   LIG    1       -3.136   6.599   0.230  0.00  0.00    -0.180 A 
ATOM     18  C   LIG    1       -2.023   5.768   0.134  0.00  0.00    +0.110 A 
ENDBRANCH   2   5
BRANCH   1  22
ATOM     19  C   LIG    1        2.586   1.461  -0.292  0.00  0.00    -0.550 A 
ATOM     20  C   LIG    1        3.220   2.307  -1.134  0.00  0.00    +0.090 A 
ATOM     21  C   LIG    1        2.330   3.356  -1.414  0.00  0.00    +0.050 A 
ATOM     22  C   LIG    1        1.183   3.094  -0.720  0.00  0.00    -0.030 A 
ATOM     23  O   LIG    1        1.359   1.939  -0.045  0.00  0.00    -0.110 OA
BRANCH  19  24
ATOM     24  S   LIG    1        3.262  -0.024   0.371  0.00  0.00    +2.720 S 
ATOM     25  O   LIG    1        4.287  -0.434  -0.525  0.00  0.00    -0.930 OA
ATOM     26  O   LIG    1        2.158  -0.848   0.717  0.00  0.00    -0.930 OA
BRANCH  24  28
ATOM     27  C   LIG    1        3.228   0.868   2.924  0.00  0.00    +0.300 C 
ATOM     28  N   LIG    1        4.015   0.371   1.792  0.00  0.00    -1.110 NA
ATOM     29  H   LIG    1        4.976   0.273   1.875  0.00  0.00    +0.420 HD
ENDBRANCH  24  28
ENDBRANCH  19  24
ENDBRANCH   1  22
TORSDOF 4
