REMARK  Name = ZINCqH0000004z85.0
REMARK                            x       y       z     vdW  Elec       q    Type
REMARK                         _______ _______ _______ _____ _____    ______ ____
ROOT
ATOM      1  C   LIG    1       -1.180  -0.871   0.009  0.00  0.00    +0.600 C 
ATOM      2  N   LIG    1       -2.410  -0.327  -0.077  0.00  0.00    -0.610 N 
ATOM      3  C   LIG    1       -2.579   1.130  -0.174  0.00  0.00    +0.300 C 
ATOM      4  C   LIG    1       -3.538   1.593   0.922  0.00  0.00    +0.020 C 
ATOM      5  C   LIG    1       -4.843   0.800   0.823  0.00  0.00    +0.250 C 
ATOM      6  C   LIG    1       -4.555  -0.689   1.028  0.00  0.00    +0.030 C 
ATOM      7  C   LIG    1       -3.607  -1.178  -0.071  0.00  0.00    +0.280 C 
ATOM      8  O   LIG    1       -0.204  -0.153   0.122  0.00  0.00    -0.520 OA
ENDROOT
BRANCH   1  12
ATOM      9  C   LIG    1       -0.116  -4.389   0.388  0.00  0.00    -0.120 A 
ATOM     10  C   LIG    1       -1.137  -4.782  -0.382  0.00  0.00    -0.200 A 
ATOM     11  S   LIG    1       -2.063  -3.445  -0.898  0.00  0.00    +0.210 S 
ATOM     12  C   LIG    1       -1.018  -2.327  -0.032  0.00  0.00    -0.280 A 
ATOM     13  C   LIG    1       -1.430  -6.215  -0.746  0.00  0.00    +0.140 C 
ATOM     14  C   LIG    1       -0.031  -3.033   0.596  0.00  0.00    +0.110 A 
BRANCH   9  16
ATOM     15  C   LIG    1        1.970  -5.661  -0.035  0.00  0.00    +0.020 C 
ATOM     16  C   LIG    1        0.869  -5.362   0.984  0.00  0.00    +0.080 C 
ENDBRANCH   9  16
ENDBRANCH   1  12
BRANCH   5  17
ATOM     17  N   LIG    1       -5.776   1.263   1.854  0.00  0.00    -0.720 N 
ATOM     18  H   LIG    1       -5.829   0.799   2.703  0.00  0.00    +0.400 HD
ATOM     19  C   LIG    1       -6.558   2.336   1.621  0.00  0.00    +0.560 C 
ATOM     20  O   LIG    1       -6.491   2.918   0.557  0.00  0.00    -0.530 OA
BRANCH  19  21
ATOM     21  C   LIG    1       -7.498   2.803   2.661  0.00  0.00    -0.150 A 
ATOM     22  C   LIG    1       -7.582   2.132   3.883  0.00  0.00    +0.080 A 
ATOM     23  C   LIG    1       -8.457   2.575   4.851  0.00  0.00    -0.020 A 
ATOM     24  C   LIG    1       -9.261   3.679   4.610  0.00  0.00    +0.130 A 
ATOM     25  C   LIG    1       -9.186   4.345   3.396  0.00  0.00    -0.010 A 
ATOM     26  F   LIG    1      -10.121   4.106   5.560  0.00  0.00    -0.130 F 
ATOM     27  C   LIG    1       -8.310   3.914   2.423  0.00  0.00    +0.120 A 
ENDBRANCH  19  21
ENDBRANCH   5  17
TORSDOF 4
