REMARK  Name = ZINCvU0000000CIt.0
REMARK                            x       y       z     vdW  Elec       q    Type
REMARK                         _______ _______ _______ _____ _____    ______ ____
ROOT
ATOM      1  C   LIG    1        1.160   3.565   0.005  0.00  0.00    +0.260 C 
ENDROOT
BRANCH   1   2
ATOM      2  C   LIG    1        1.169   2.058  -0.016  0.00  0.00    -0.100 A 
ATOM      3  C   LIG    1       -0.024   1.360  -0.009  0.00  0.00    +0.010 A 
ATOM      4  C   LIG    1       -0.015  -0.022  -0.029  0.00  0.00    +0.000 A 
ATOM      5  C   LIG    1        1.186  -0.706  -0.055  0.00  0.00    +0.010 A 
ATOM      6  C   LIG    1        2.378  -0.007  -0.062  0.00  0.00    +0.000 A 
ATOM      7  C   LIG    1        2.370   1.375  -0.043  0.00  0.00    +0.030 A 
ENDBRANCH   1   2
BRANCH   1   9
ATOM      8  O   LIG    1        2.507   4.511   1.698  0.00  0.00    -0.460 OA
ATOM      9  C   LIG    1        1.422   4.050   1.408  0.00  0.00    +0.430 C 
BRANCH   9  10
ATOM     10  C   LIG    1        0.403   3.967   2.389  0.00  0.00    -0.270 A 
ATOM     11  C   LIG    1       -0.872   3.471   2.218  0.00  0.00    +0.320 A 
ATOM     12  N   LIG    1       -1.551   3.558   3.378  0.00  0.00    -0.560 N 
ATOM     13  H   LIG    1       -2.469   3.270   3.503  0.00  0.00    +0.420 HD
ATOM     14  C   LIG    1       -0.761   4.112   4.365  0.00  0.00    +0.070 A 
ATOM     15  C   LIG    1       -0.985   4.409   5.705  0.00  0.00    +0.000 A 
ATOM     16  C   LIG    1        0.019   4.973   6.462  0.00  0.00    +0.030 A 
ATOM     17  C   LIG    1        1.256   5.250   5.901  0.00  0.00    +0.000 A 
ATOM     18  C   LIG    1        1.498   4.963   4.574  0.00  0.00    +0.060 A 
ATOM     19  C   LIG    1        0.495   4.387   3.801  0.00  0.00    -0.060 A 
ENDBRANCH   9  10
ENDBRANCH   1   9
BRANCH   1  20
ATOM     20  N   LIG    1        2.203   4.072  -0.890  0.00  0.00    -0.730 N 
ATOM     21  H   LIG    1        3.076   4.303  -0.535  0.00  0.00    +0.410 HD
BRANCH  20  22
ATOM     22  C   LIG    1        1.940   4.223  -2.253  0.00  0.00    +0.250 A 
ATOM     23  C   LIG    1        0.690   3.892  -2.762  0.00  0.00    -0.100 A 
ATOM     24  C   LIG    1        0.430   4.042  -4.110  0.00  0.00    +0.070 A 
ATOM     25  C   LIG    1        1.410   4.520  -4.957  0.00  0.00    -0.090 A 
ATOM     26  C   LIG    1        2.663   4.853  -4.455  0.00  0.00    +0.210 A 
ATOM     27  C   LIG    1        2.926   4.709  -3.101  0.00  0.00    -0.080 A 
BRANCH  26  28
ATOM     28  N   LIG    1        3.655   5.338  -5.314  0.00  0.00    -0.560 N 
ATOM     29  C   LIG    1        3.522   5.415  -6.774  0.00  0.00    +0.270 C 
ATOM     30  C   LIG    1        4.631   6.390  -7.236  0.00  0.00    +0.060 C 
ATOM     31  C   LIG    1        5.669   6.243  -6.100  0.00  0.00    +0.070 C 
ATOM     32  C   LIG    1        4.855   5.788  -4.909  0.00  0.00    +0.510 C 
ATOM     33  O   LIG    1        5.230   5.824  -3.756  0.00  0.00    -0.510 OA
ENDBRANCH  26  28
ENDBRANCH  20  22
ENDBRANCH   1  20
TORSDOF 6
