REMARK  Name = ZINCrH000004rv0d.0
REMARK                            x       y       z     vdW  Elec       q    Type
REMARK                         _______ _______ _______ _____ _____    ______ ____
ROOT
ATOM      1  N   LIG    1        4.525   4.705   3.038  0.00  0.00    -0.990 NA
ATOM      2  C   LIG    1        3.153   4.178   3.037  0.00  0.00    +0.300 C 
ATOM      3  C   LIG    1        3.116   2.902   2.189  0.00  0.00    +0.030 C 
ATOM      4  C   LIG    1        3.675   3.203   0.797  0.00  0.00    +0.170 C 
ATOM      5  C   LIG    1        5.131   3.660   0.918  0.00  0.00    +0.000 C 
ATOM      6  C   LIG    1        5.191   4.944   1.750  0.00  0.00    +0.300 C 
ENDROOT
BRANCH   4   7
ATOM      7  N   LIG    1        3.611   1.989  -0.029  0.00  0.00    -0.470 N 
ATOM      8  C   LIG    1        4.724   1.170   0.195  0.00  0.00    +0.110 A 
ATOM      9  C   LIG    1        5.386   0.864   1.382  0.00  0.00    -0.020 A 
ATOM     10  C   LIG    1        6.473   0.014   1.372  0.00  0.00    +0.020 A 
ATOM     11  C   LIG    1        6.912  -0.540   0.184  0.00  0.00    -0.020 A 
ATOM     12  C   LIG    1        6.261  -0.240  -0.999  0.00  0.00    +0.040 A 
ATOM     13  C   LIG    1        5.177   0.611  -0.995  0.00  0.00    -0.140 A 
ATOM     14  C   LIG    1        4.294   1.121  -2.116  0.00  0.00    +0.090 C 
ATOM     15  C   LIG    1        3.579   2.329  -1.468  0.00  0.00    +0.170 C 
ATOM     16  C   LIG    1        4.347   3.624  -1.738  0.00  0.00    +0.020 C 
ENDBRANCH   4   7
BRANCH   1  17
ATOM     17  S   LIG    1        5.305   5.022   4.463  0.00  0.00    +2.690 S 
ATOM     18  O   LIG    1        4.292   5.228   5.438  0.00  0.00    -0.940 OA
ATOM     19  O   LIG    1        6.306   5.986   4.167  0.00  0.00    -0.950 OA
BRANCH  17  24
ATOM     20  C   LIG    1        8.217  -0.015   6.066  0.00  0.00    +0.120 C 
ATOM     21  C   LIG    1        7.489   1.242   5.667  0.00  0.00    +0.000 A 
ATOM     22  C   LIG    1        8.203   2.381   5.345  0.00  0.00    -0.010 A 
ATOM     23  C   LIG    1        7.536   3.535   4.978  0.00  0.00    +0.160 A 
ATOM     24  C   LIG    1        6.155   3.551   4.932  0.00  0.00    -0.720 A 
ATOM     25  C   LIG    1        5.439   2.412   5.259  0.00  0.00    +0.200 A 
ATOM     26  F   LIG    1        4.088   2.428   5.220  0.00  0.00    -0.120 F 
ATOM     27  C   LIG    1        6.107   1.256   5.622  0.00  0.00    -0.020 A 
ENDBRANCH  17  24
ENDBRANCH   1  17
TORSDOF 3
