REMARK  Name = ZINCvU0000000J16.0
REMARK                            x       y       z     vdW  Elec       q    Type
REMARK                         _______ _______ _______ _____ _____    ______ ____
ROOT
ATOM      1  N   LIG    1        4.346  -1.063  -1.626  0.00  0.00    -0.960 NA
ENDROOT
BRANCH   1   3
ATOM      2  O   LIG    1        4.899   0.060   0.500  0.00  0.00    -0.930 OA
ATOM      3  S   LIG    1        3.934  -0.832  -0.039  0.00  0.00    +2.690 S 
ATOM      4  O   LIG    1        3.678  -2.121   0.501  0.00  0.00    -0.930 OA
BRANCH   3   5
ATOM      5  C   LIG    1        2.396   0.029  -0.021  0.00  0.00    -0.680 A 
ATOM      6  C   LIG    1        1.209  -0.679  -0.013  0.00  0.00    +0.190 A 
ATOM      7  C   LIG    1        0.002  -0.004   0.002  0.00  0.00    +0.030 A 
ATOM      8  C   LIG    1       -0.017   1.379   0.010  0.00  0.00    +0.060 A 
ATOM      9  C   LIG    1        1.173   2.087   0.002  0.00  0.00    -0.200 A 
ATOM     10 CL   LIG    1       -1.532   2.227   0.021  0.00  0.00    -0.020 Cl
ATOM     11  C   LIG    1        2.378   1.411  -0.013  0.00  0.00    +0.200 A 
BRANCH   9  12
ATOM     12  C   LIG    1        1.153   3.594   0.011  0.00  0.00    +0.510 C 
ATOM     13  F   LIG    1        0.499   4.045   1.162  0.00  0.00    -0.170 F 
ATOM     14  F   LIG    1        0.476   4.058  -1.122  0.00  0.00    -0.170 F 
ATOM     15  F   LIG    1        2.466   4.077   0.001  0.00  0.00    -0.170 F 
ENDBRANCH   9  12
ENDBRANCH   3   5
ENDBRANCH   1   3
BRANCH   1  16
ATOM     16  C   LIG    1        3.909  -2.273  -2.328  0.00  0.00    +0.210 C 
ATOM     17  C   LIG    1        4.486  -2.528  -3.722  0.00  0.00    +0.060 C 
ATOM     18  C   LIG    1        3.028  -2.092  -3.566  0.00  0.00    +0.020 C 
ENDBRANCH   1  16
BRANCH   1  19
ATOM     19  C   LIG    1        5.149  -0.058  -2.328  0.00  0.00    +0.480 C 
BRANCH  19  20
ATOM     20  C   LIG    1        6.604  -0.445  -2.267  0.00  0.00    +0.140 A 
ATOM     21  N   LIG    1        7.240  -1.189  -3.129  0.00  0.00    -0.260 NA
ATOM     22  N   LIG    1        8.469  -1.311  -2.768  0.00  0.00    -0.270 NA
ATOM     23  C   LIG    1        8.658  -0.652  -1.649  0.00  0.00    +0.220 A 
ATOM     24  O   LIG    1        7.480  -0.091  -1.311  0.00  0.00    -0.200 OA
BRANCH  23  25
ATOM     25  C   LIG    1        9.928  -0.545  -0.899  0.00  0.00    -0.030 A 
ATOM     26  C   LIG    1        9.983   0.199   0.281  0.00  0.00    +0.080 A 
ATOM     27  C   LIG    1       11.169   0.291   0.979  0.00  0.00    +0.040 A 
ATOM     28  C   LIG    1       12.306  -0.344   0.506  0.00  0.00    -0.010 A 
ATOM     29  C   LIG    1       12.258  -1.078  -0.667  0.00  0.00    +0.040 A 
ATOM     30 CL   LIG    1       13.796  -0.217   1.387  0.00  0.00    -0.050 Cl
ATOM     31  C   LIG    1       11.076  -1.182  -1.371  0.00  0.00    +0.100 A 
ENDBRANCH  23  25
ENDBRANCH  19  20
ENDBRANCH   1  19
TORSDOF 7
