REMARK  Name = ZINCpe00000c2q4v.0
REMARK                            x       y       z     vdW  Elec       q    Type
REMARK                         _______ _______ _______ _____ _____    ______ ____
ROOT
ATOM      1  C   LIG    1        0.002  -0.004   0.002  0.00  0.00    +0.600 C 
ATOM      2  N   LIG    1       -0.006   1.308   0.310  0.00  0.00    -0.610 N 
ATOM      3  C   LIG    1        1.246   2.014   0.613  0.00  0.00    +0.260 C 
ATOM      4  C   LIG    1        1.350   3.245  -0.293  0.00  0.00    +0.020 C 
ATOM      5  C   LIG    1        0.091   4.100  -0.131  0.00  0.00    -0.010 C 
ATOM      6  C   LIG    1       -1.136   3.291  -0.555  0.00  0.00    -0.020 C 
ATOM      7  C   LIG    1       -2.390   4.158  -0.424  0.00  0.00    +0.030 C 
ATOM      8  C   LIG    1       -1.267   2.061   0.342  0.00  0.00    +0.290 C 
ATOM      9  O   LIG    1       -1.047  -0.595  -0.170  0.00  0.00    -0.530 OA
ENDROOT
BRANCH   1  16
ATOM     10  C   LIG    1        0.867  -1.839  -2.439  0.00  0.00    +0.170 C 
ATOM     11  C   LIG    1        1.681  -1.543  -1.205  0.00  0.00    +0.130 A 
ATOM     12  N   LIG    1        2.876  -1.998  -0.948  0.00  0.00    -0.290 NA
ATOM     13  N   LIG    1        3.294  -1.498   0.291  0.00  0.00    -0.460 N 
ATOM     14  H   LIG    1        4.145  -1.683   0.718  0.00  0.00    +0.450 HD
ATOM     15  C   LIG    1        2.320  -0.717   0.785  0.00  0.00    +0.290 A 
ATOM     16  C   LIG    1        1.283  -0.723  -0.125  0.00  0.00    -0.280 A 
ENDBRANCH   1  16
BRANCH   5  17
ATOM     17  C   LIG    1        0.207   5.348  -1.008  0.00  0.00    +0.260 C 
BRANCH  17  18
ATOM     18  N   LIG    1        1.309   6.185  -0.526  0.00  0.00    -0.730 N 
ATOM     19  H   LIG    1        1.830   5.904   0.243  0.00  0.00    +0.400 HD
ATOM     20  C   LIG    1        1.598   7.344  -1.149  0.00  0.00    +0.510 C 
ATOM     21  O   LIG    1        0.947   7.694  -2.111  0.00  0.00    -0.530 OA
BRANCH  20  22
ATOM     22  C   LIG    1        2.732   8.204  -0.653  0.00  0.00    +0.140 C 
BRANCH  22  23
ATOM     23  C   LIG    1        2.845   9.433  -1.517  0.00  0.00    -0.230 A 
ATOM     24  C   LIG    1        3.601   9.555  -2.633  0.00  0.00    +0.240 A 
ATOM     25  N   LIG    1        3.426  10.803  -3.114  0.00  0.00    -0.480 N 
ATOM     26  H   LIG    1        3.843  11.172  -3.909  0.00  0.00    +0.440 HD
ATOM     27  N   LIG    1        2.540  11.474  -2.261  0.00  0.00    -0.290 NA
ATOM     28  C   LIG    1        2.193  10.652  -1.305  0.00  0.00    +0.250 A 
ENDBRANCH  22  23
ENDBRANCH  20  22
ENDBRANCH  17  18
ENDBRANCH   5  17
TORSDOF 5
