REMARK  Name = ZINCrD00000F5LlO.0
REMARK                            x       y       z     vdW  Elec       q    Type
REMARK                         _______ _______ _______ _____ _____    ______ ____
ROOT
ATOM      1  C   LIG    1        7.010   4.352   0.572  0.00  0.00    +0.550 C 
ATOM      2  N   LIG    1        6.008   3.468   0.748  0.00  0.00    -0.720 N 
ATOM      3  H   LIG    1        5.319   3.641   1.408  0.00  0.00    +0.410 HD
ATOM      4  O   LIG    1        7.875   4.134  -0.256  0.00  0.00    -0.540 OA
ENDROOT
BRANCH   1   6
ATOM      5  C   LIG    1        8.060   6.459   1.199  0.00  0.00    +0.120 C 
ATOM      6  C   LIG    1        7.057   5.573   1.376  0.00  0.00    -0.070 C 
BRANCH   5   9
ATOM      7  C   LIG    1        9.187   9.757   2.587  0.00  0.00    +0.120 A 
ATOM      8  C   LIG    1        9.147   8.606   1.826  0.00  0.00    -0.020 A 
ATOM      9  C   LIG    1        8.108   7.686   2.007  0.00  0.00    -0.030 A 
ATOM     10  C   LIG    1        7.111   7.941   2.955  0.00  0.00    +0.030 A 
ATOM     11  C   LIG    1        7.161   9.091   3.715  0.00  0.00    -0.020 A 
ATOM     12 CL   LIG    1        5.927   9.403   4.895  0.00  0.00    -0.040 Cl
ATOM     13  C   LIG    1        8.193  10.002   3.534  0.00  0.00    +0.080 A 
BRANCH   7  15
ATOM     14  C   LIG    1       11.180  10.337   1.427  0.00  0.00    +0.250 C 
ATOM     15  O   LIG    1       10.196  10.652   2.413  0.00  0.00    -0.300 OA
ENDBRANCH   7  15
BRANCH  13  16
ATOM     16  O   LIG    1        8.234  11.136   4.281  0.00  0.00    -0.320 OA
ATOM     17  C   LIG    1        7.564  12.284   3.757  0.00  0.00    +0.230 C 
ENDBRANCH  13  16
ENDBRANCH   5   9
ENDBRANCH   1   6
BRANCH   2  18
ATOM     18  C   LIG    1        5.961   2.245  -0.057  0.00  0.00    +0.320 C 
BRANCH  18  19
ATOM     19  C   LIG    1        4.733   1.421   0.338  0.00  0.00    +0.130 C 
ATOM     20  C   LIG    1        4.745   0.082  -0.411  0.00  0.00    +0.240 C 
ATOM     21  O   LIG    1        3.579  -0.656  -0.029  0.00  0.00    -0.300 OA
ATOM     22  C   LIG    1        2.401   0.025  -0.019  0.00  0.00    +0.050 A 
ATOM     23  C   LIG    1        1.207  -0.681  -0.012  0.00  0.00    +0.030 A 
ATOM     24  C   LIG    1        0.002  -0.004   0.002  0.00  0.00    +0.020 A 
ATOM     25  C   LIG    1       -0.017   1.378   0.010  0.00  0.00    +0.020 A 
ATOM     26  C   LIG    1        1.170   2.088   0.002  0.00  0.00    +0.020 A 
ATOM     27  C   LIG    1        2.382   1.415  -0.013  0.00  0.00    +0.050 A 
ATOM     28  O   LIG    1        3.542   2.127  -0.024  0.00  0.00    -0.300 OA
ENDBRANCH  18  19
ENDBRANCH   2  18
TORSDOF 6
