REMARK  Name = ZINCvU00000006Di.0
REMARK                            x       y       z     vdW  Elec       q    Type
REMARK                         _______ _______ _______ _____ _____    ______ ____
ROOT
ATOM      1  C   LIG    1        3.639   7.783  -3.653  0.00  0.00    +0.470 C 
ATOM      2  O   LIG    1        4.657   7.225  -3.987  0.00  0.00    -0.510 OA
ENDROOT
BRANCH   1   3
ATOM      3  O   LIG    1        2.783   7.173  -2.819  0.00  0.00    -0.330 OA
BRANCH   3   4
ATOM      4  C   LIG    1        3.144   5.845  -2.358  0.00  0.00    +0.250 C 
BRANCH   4   7
ATOM      5  N   LIG    1        2.193   4.100  -0.885  0.00  0.00    -0.720 N 
ATOM      6  H   LIG    1        2.972   3.555  -1.080  0.00  0.00    +0.400 HD
ATOM      7  C   LIG    1        2.071   5.323  -1.437  0.00  0.00    +0.520 C 
ATOM      8  O   LIG    1        1.098   6.004  -1.193  0.00  0.00    -0.510 OA
BRANCH   5  10
ATOM      9  C   LIG    1        1.407   4.098   1.431  0.00  0.00    +0.040 C 
ATOM     10  C   LIG    1        1.151   3.592   0.010  0.00  0.00    +0.290 C 
BRANCH  10  11
ATOM     11  C   LIG    1        1.171   2.086   0.002  0.00  0.00    -0.100 A 
ATOM     12  C   LIG    1       -0.017   1.378   0.010  0.00  0.00    +0.020 A 
ATOM     13  C   LIG    1        0.002  -0.004   0.002  0.00  0.00    +0.020 A 
ATOM     14  C   LIG    1        1.208  -0.679  -0.013  0.00  0.00    +0.000 A 
ATOM     15  C   LIG    1        2.396   0.029  -0.021  0.00  0.00    +0.000 A 
ATOM     16  C   LIG    1        2.377   1.411  -0.015  0.00  0.00    +0.000 A 
ENDBRANCH  10  11
ENDBRANCH   5  10
ENDBRANCH   4   7
ENDBRANCH   3   4
ENDBRANCH   1   3
BRANCH   1  17
ATOM     17  C   LIG    1        3.331   9.164  -4.173  0.00  0.00    +0.090 C 
BRANCH  17  18
ATOM     18  C   LIG    1        4.460   9.625  -5.096  0.00  0.00    +0.320 C 
BRANCH  18  19
ATOM     19  N   LIG    1        4.160  10.967  -5.602  0.00  0.00    -0.580 N 
ATOM     20  C   LIG    1        3.444  11.105  -6.796  0.00  0.00    +0.190 A 
ATOM     21  C   LIG    1        3.656  10.232  -7.847  0.00  0.00    -0.020 A 
ATOM     22  C   LIG    1        2.942  10.377  -9.024  0.00  0.00    +0.050 A 
ATOM     23  C   LIG    1        2.010  11.388  -9.155  0.00  0.00    +0.000 A 
ATOM     24  C   LIG    1        1.783  12.265  -8.107  0.00  0.00    +0.070 A 
ATOM     25  C   LIG    1        2.493  12.124  -6.929  0.00  0.00    -0.150 A 
ATOM     26  S   LIG    1        2.221  13.227  -5.579  0.00  0.00    +0.010 S 
ATOM     27  C   LIG    1        3.799  13.223  -4.788  0.00  0.00    -0.150 A 
ATOM     28  C   LIG    1        4.236  14.329  -4.083  0.00  0.00    +0.070 A 
ATOM     29  C   LIG    1        5.476  14.305  -3.466  0.00  0.00    +0.000 A 
ATOM     30  C   LIG    1        6.272  13.179  -3.555  0.00  0.00    +0.050 A 
ATOM     31  C   LIG    1        5.840  12.069  -4.261  0.00  0.00    -0.020 A 
ATOM     32  C   LIG    1        4.602  12.084  -4.883  0.00  0.00    +0.190 A 
ENDBRANCH  18  19
ENDBRANCH  17  18
ENDBRANCH   1  17
TORSDOF 8
