REMARK  Name = ZINCrD00000iBmSG.0
REMARK                            x       y       z     vdW  Elec       q    Type
REMARK                         _______ _______ _______ _____ _____    ______ ____
ROOT
ATOM      1  C   LIG    1       -1.674  -2.929  -1.331  0.00  0.00    +0.580 C 
ATOM      2  N   LIG    1       -1.246  -1.869  -0.616  0.00  0.00    -0.610 N 
ATOM      3  C   LIG    1       -0.293  -0.815  -1.038  0.00  0.00    +0.270 C 
ATOM      4  C   LIG    1        0.561  -0.533   0.220  0.00  0.00    +0.040 C 
ATOM      5  C   LIG    1       -0.319  -0.977   1.394  0.00  0.00    -0.090 C 
ATOM      6  C   LIG    1       -0.484   0.042   2.521  0.00  0.00    +0.040 C 
ATOM      7  C   LIG    1       -0.438  -1.153   3.491  0.00  0.00    +0.010 C 
ATOM      8  C   LIG    1        0.347  -1.911   2.404  0.00  0.00    +0.030 C 
ATOM      9  C   LIG    1       -1.625  -1.494   0.768  0.00  0.00    +0.300 C 
ATOM     10  O   LIG    1       -2.388  -3.764  -0.811  0.00  0.00    -0.520 OA
ENDROOT
BRANCH   1  18
ATOM     11  O   LIG    1        0.050  -5.960  -6.303  0.00  0.00    -0.520 OA
ATOM     12  C   LIG    1       -0.282  -5.806  -5.142  0.00  0.00    +0.530 A 
ATOM     13  N   LIG    1       -0.375  -6.862  -4.307  0.00  0.00    -0.540 N 
ATOM     14  H   LIG    1       -0.173  -7.749  -4.644  0.00  0.00    +0.440 HD
ATOM     15  N   LIG    1       -0.754  -6.711  -2.973  0.00  0.00    -0.230 NA
ATOM     16  C   LIG    1       -1.040  -5.555  -2.452  0.00  0.00    +0.330 A 
ATOM     17  C   LIG    1       -0.966  -4.346  -3.268  0.00  0.00    -0.020 A 
ATOM     18  C   LIG    1       -1.274  -3.076  -2.743  0.00  0.00    -0.110 A 
ATOM     19  C   LIG    1       -1.192  -1.959  -3.572  0.00  0.00    +0.080 A 
ATOM     20  C   LIG    1       -0.817  -2.092  -4.898  0.00  0.00    +0.030 A 
ATOM     21  C   LIG    1       -0.517  -3.330  -5.428  0.00  0.00    +0.120 A 
ATOM     22  C   LIG    1       -0.591  -4.467  -4.624  0.00  0.00    -0.130 A 
ENDBRANCH   1  18
BRANCH   4  23
ATOM     23  C   LIG    1        0.874   0.938   0.324  0.00  0.00    -0.070 A 
ATOM     24  C   LIG    1       -0.153   1.863   0.352  0.00  0.00    +0.010 A 
ATOM     25  C   LIG    1        0.134   3.211   0.452  0.00  0.00    +0.000 A 
ATOM     26  C   LIG    1        1.448   3.635   0.515  0.00  0.00    +0.000 A 
ATOM     27  C   LIG    1        2.475   2.711   0.481  0.00  0.00    +0.000 A 
ATOM     28  C   LIG    1        2.188   1.362   0.386  0.00  0.00    +0.010 A 
ENDBRANCH   4  23
TORSDOF 2
