REMARK  Name = ZINCah0000002B7U.0
REMARK                            x       y       z     vdW  Elec       q    Type
REMARK                         _______ _______ _______ _____ _____    ______ ____
ROOT
ATOM      1  C   LIG    1       -1.232   1.649   0.017  0.00  0.00    +0.180 A 
ATOM      2  C   LIG    1       -1.232   3.011   0.030  0.00  0.00    -0.040 A 
ATOM      3  C   LIG    1       -2.461   3.706   0.034  0.00  0.00    -0.160 A 
ATOM      4  C   LIG    1       -2.824   5.039   0.043  0.00  0.00    +0.230 A 
ATOM      5  N   LIG    1       -4.164   5.101   0.050  0.00  0.00    -0.430 N 
ATOM      6  H   LIG    1       -4.684   5.921   0.057  0.00  0.00    +0.440 HD
ATOM      7  N   LIG    1       -4.702   3.809   0.045  0.00  0.00    -0.300 NA
ATOM      8  C   LIG    1       -3.712   2.933   0.036  0.00  0.00    +0.070 A 
ATOM      9  C   LIG    1       -3.638   1.523   0.028  0.00  0.00    +0.070 A 
ATOM     10  C   LIG    1       -2.427   0.915   0.018  0.00  0.00    +0.010 A 
ENDROOT
BRANCH   1  11
ATOM     11  N   LIG    1       -0.011   0.966   0.007  0.00  0.00    -0.880 N 
ATOM     12  H   LIG    1        0.822   1.462   0.002  0.00  0.00    +0.400 HD
ATOM     13  H   LIG    1        0.002  -0.004   0.002  0.00  0.00    +0.400 HD
ENDBRANCH   1  11
TORSDOF 1
