REMARK  Name = ZINCqH0000008JiC.0
REMARK                            x       y       z     vdW  Elec       q    Type
REMARK                         _______ _______ _______ _____ _____    ______ ____
ROOT
ATOM      1  C   LIG    1       -4.951   3.887  -3.949  0.00  0.00    +0.060 C 
ATOM      2  C   LIG    1       -6.039   3.462  -2.960  0.00  0.00    +0.190 C 
ATOM      3  C   LIG    1       -7.272   4.356  -3.134  0.00  0.00    +0.220 C 
ATOM      4  O   LIG    1       -8.207   4.077  -2.089  0.00  0.00    -0.370 OA
ATOM      5  C   LIG    1       -7.719   4.364  -0.776  0.00  0.00    +0.200 C 
ATOM      6  C   LIG    1       -6.507   3.465  -0.481  0.00  0.00    +0.260 C 
ATOM      7  N   LIG    1       -5.544   3.618  -1.583  0.00  0.00    -0.620 N 
ATOM      8  C   LIG    1       -4.246   3.886  -1.338  0.00  0.00    +0.520 C 
ATOM      9  O   LIG    1       -3.448   3.903  -2.251  0.00  0.00    -0.510 OA
ENDROOT
BRANCH   5  10
ATOM     10  C   LIG    1       -8.804   4.093   0.234  0.00  0.00    -0.080 A 
ATOM     11  C   LIG    1       -8.980   4.949   1.305  0.00  0.00    +0.030 A 
ATOM     12  C   LIG    1       -9.975   4.700   2.232  0.00  0.00    +0.030 A 
ATOM     13  C   LIG    1      -10.794   3.596   2.089  0.00  0.00    +0.040 A 
ATOM     14  C   LIG    1      -10.618   2.740   1.017  0.00  0.00    -0.040 A 
ATOM     15 CL   LIG    1      -11.647   1.353   0.836  0.00  0.00    -0.070 Cl
ATOM     16  C   LIG    1       -9.626   2.991   0.087  0.00  0.00    +0.060 A 
ENDBRANCH   5  10
BRANCH   8  17
ATOM     17  C   LIG    1       -3.787   4.164   0.070  0.00  0.00    +0.130 C 
BRANCH  17  18
ATOM     18  C   LIG    1       -2.304   4.431   0.071  0.00  0.00    -0.200 A 
ATOM     19  C   LIG    1       -1.695   5.646   0.020  0.00  0.00    +0.240 A 
ATOM     20  N   LIG    1       -0.370   5.489   0.040  0.00  0.00    -0.540 NA
ATOM     21  C   LIG    1       -0.052   4.207   0.103  0.00  0.00    +0.250 A 
ATOM     22  N   LIG    1        1.139   3.528   0.147  0.00  0.00    -0.490 N 
ATOM     23  H   LIG    1        1.973   4.022   0.132  0.00  0.00    +0.420 HD
ATOM     24  C   LIG    1        1.161   2.187   0.211  0.00  0.00    +0.330 A 
ATOM     25  C   LIG    1        0.015   1.452   0.234  0.00  0.00    -0.080 A 
ATOM     26  C   LIG    1       -1.224   2.079   0.187  0.00  0.00    +0.170 A 
ATOM     27  C   LIG    1       -1.270   3.470   0.127  0.00  0.00    -0.150 A 
ENDBRANCH  17  18
ENDBRANCH   8  17
TORSDOF 3
