REMARK  Name = ZINCpe000000Xnj9.0
REMARK                            x       y       z     vdW  Elec       q    Type
REMARK                         _______ _______ _______ _____ _____    ______ ____
ROOT
ATOM      1  C   LIG    1        1.921   0.586  -1.992  0.00  0.00    -0.780 A 
ATOM      2  C   LIG    1        2.282  -0.739  -2.168  0.00  0.00    +0.470 A 
ATOM      3  N   LIG    1        2.436  -1.259  -3.370  0.00  0.00    -0.520 NA
ATOM      4  C   LIG    1        2.263  -0.536  -4.463  0.00  0.00    +0.450 A 
ATOM      5  C   LIG    1        1.901   0.820  -4.361  0.00  0.00    -0.270 A 
ATOM      6  C   LIG    1        1.719   1.594  -5.601  0.00  0.00    +0.570 A 
ATOM      7  N   LIG    1        1.909   0.963  -6.781  0.00  0.00    -0.660 N 
ATOM      8  H   LIG    1        1.793   1.456  -7.609  0.00  0.00    +0.440 HD
ATOM      9  C   LIG    1        2.253  -0.333  -6.826  0.00  0.00    +0.710 A 
ATOM     10  O   LIG    1        2.412  -0.854  -7.913  0.00  0.00    -0.520 OA
ATOM     11  O   LIG    1        1.405   2.768  -5.563  0.00  0.00    -0.480 OA
ATOM     12  N   LIG    1        2.432  -1.081  -5.724  0.00  0.00    -0.530 N 
ATOM     13  C   LIG    1        2.809  -2.490  -5.859  0.00  0.00    +0.360 C 
ATOM     14  C   LIG    1        1.727   1.392  -3.102  0.00  0.00    +0.310 A 
ENDROOT
BRANCH   1  15
ATOM     15  S   LIG    1        1.716   1.243  -0.370  0.00  0.00    +2.710 S 
ATOM     16  O   LIG    1        2.649   0.564   0.459  0.00  0.00    -0.950 OA
ATOM     17  O   LIG    1        1.688   2.657  -0.511  0.00  0.00    -0.940 OA
BRANCH  15  18
ATOM     18  N   LIG    1        0.211   0.795   0.154  0.00  0.00    -1.100 NA
ATOM     19  H   LIG    1        0.120   0.142   0.866  0.00  0.00    +0.420 HD
BRANCH  18  26
ATOM     20  C   LIG    1       -1.904  -0.909  -0.852  0.00  0.00    +0.030 C 
ATOM     21  C   LIG    1       -2.181   0.459  -0.224  0.00  0.00    +0.000 C 
ATOM     22  C   LIG    1       -2.410   0.293   1.279  0.00  0.00    +0.010 C 
ATOM     23  C   LIG    1       -2.688   1.661   1.907  0.00  0.00    +0.000 C 
ATOM     24  C   LIG    1       -1.489   2.582   1.672  0.00  0.00    +0.010 C 
ATOM     25  C   LIG    1       -1.261   2.748   0.168  0.00  0.00    +0.030 C 
ATOM     26  C   LIG    1       -0.983   1.381  -0.460  0.00  0.00    +0.190 C 
ATOM     27  C   LIG    1       -0.754   1.546  -1.963  0.00  0.00    +0.030 C 
ENDBRANCH  18  26
ENDBRANCH  15  18
ENDBRANCH   1  15
TORSDOF 3
