REMARK  Name = ZINCDN0000000dNd.0
REMARK                            x       y       z     vdW  Elec       q    Type
REMARK                         _______ _______ _______ _____ _____    ______ ____
ROOT
ATOM      1  C   LIG    1        2.606   1.131   0.195  0.00  0.00    +0.570 C 
ATOM      2  N   LIG    1        2.588  -0.217   0.195  0.00  0.00    -0.700 N 
ATOM      3  H   LIG    1        1.742  -0.691   0.161  0.00  0.00    +0.410 HD
ATOM      4  O   LIG    1        3.666   1.725   0.166  0.00  0.00    -0.470 OA
ENDROOT
BRANCH   1  10
ATOM      5  C   LIG    1        1.353   3.283   0.353  0.00  0.00    +0.340 A 
ATOM      6  C   LIG    1        0.153   3.982   0.384  0.00  0.00    -0.170 A 
ATOM      7  C   LIG    1       -1.045   3.303   0.293  0.00  0.00    +0.070 A 
ATOM      8  C   LIG    1       -1.062   1.923   0.164  0.00  0.00    -0.120 A 
ATOM      9  C   LIG    1        0.118   1.212   0.138  0.00  0.00    +0.070 A 
ATOM     10  C   LIG    1        1.339   1.884   0.229  0.00  0.00    -0.220 A 
BRANCH   5  11
ATOM     11  N   LIG    1        2.560   3.964   0.445  0.00  0.00    -1.030 NA
BRANCH  11  12
ATOM     12  S   LIG    1        2.571   5.613   0.592  0.00  0.00    +2.600 S 
ATOM     13  O   LIG    1        1.996   5.907   1.858  0.00  0.00    -1.030 OA
ATOM     14  O   LIG    1        2.062   6.128  -0.631  0.00  0.00    -1.030 OA
BRANCH  12  18
ATOM     15  C   LIG    1        6.903   6.910   0.821  0.00  0.00    +0.160 A 
ATOM     16  C   LIG    1        6.270   6.817  -0.409  0.00  0.00    -0.050 A 
ATOM     17  C   LIG    1        4.949   6.421  -0.477  0.00  0.00    +0.160 A 
ATOM     18  C   LIG    1        4.257   6.118   0.681  0.00  0.00    -0.650 A 
ATOM     19  C   LIG    1        4.884   6.215   1.909  0.00  0.00    +0.160 A 
ATOM     20  C   LIG    1        6.207   6.605   1.982  0.00  0.00    -0.100 A 
BRANCH  15  21
ATOM     21  O   LIG    1        8.203   7.300   0.890  0.00  0.00    -0.320 OA
BRANCH  21  23
ATOM     22  C   LIG    1       10.247   7.827   2.068  0.00  0.00    +0.070 C 
ATOM     23  C   LIG    1        8.790   7.374   2.191  0.00  0.00    +0.170 C 
ENDBRANCH  21  23
ENDBRANCH  15  21
ENDBRANCH  12  18
ENDBRANCH  11  12
ENDBRANCH   5  11
ENDBRANCH   1  10
BRANCH   2  24
ATOM     24  C   LIG    1        3.790  -0.933   0.246  0.00  0.00    +0.240 A 
ATOM     25  C   LIG    1        4.958  -0.366  -0.246  0.00  0.00    +0.050 A 
ATOM     26  C   LIG    1        6.143  -1.073  -0.196  0.00  0.00    +0.010 A 
ATOM     27  C   LIG    1        6.167  -2.349   0.346  0.00  0.00    +0.070 A 
ATOM     28  C   LIG    1        5.001  -2.917   0.839  0.00  0.00    +0.110 A 
ATOM     29  C   LIG    1        3.816  -2.209   0.794  0.00  0.00    -0.690 A 
BRANCH  29  30
ATOM     30  S   LIG    1        2.336  -2.927   1.427  0.00  0.00    +2.700 S 
ATOM     31  O   LIG    1        2.686  -4.224   1.889  0.00  0.00    -0.950 OA
ATOM     32  O   LIG    1        1.329  -2.695   0.451  0.00  0.00    -0.960 OA
BRANCH  30  33
ATOM     33  N   LIG    1        1.901  -2.054   2.765  0.00  0.00    -0.990 NA
ATOM     34  C   LIG    1        2.492  -2.351   4.077  0.00  0.00    +0.290 C 
ATOM     35  C   LIG    1        3.083  -1.055   4.651  0.00  0.00    +0.000 C 
ATOM     36  C   LIG    1        1.998   0.024   4.680  0.00  0.00    +0.010 C 
ATOM     37  C   LIG    1        1.517   0.305   3.255  0.00  0.00    +0.010 C 
ATOM     38  C   LIG    1        0.912  -0.973   2.664  0.00  0.00    +0.290 C 
ENDBRANCH  30  33
ENDBRANCH  29  30
BRANCH  27  39
ATOM     39  O   LIG    1        7.335  -3.045   0.396  0.00  0.00    -0.320 OA
ATOM     40  C   LIG    1        8.497  -2.399  -0.128  0.00  0.00    +0.230 C 
ENDBRANCH  27  39
ENDBRANCH   2  24
TORSDOF 10
