REMARK  Name = ZINCpe00000yIfge.0
REMARK                            x       y       z     vdW  Elec       q    Type
REMARK                         _______ _______ _______ _____ _____    ______ ____
ROOT
ATOM      1  N   LIG    1       -4.748   0.889   1.593  0.00  0.00    -0.990 NA
ATOM      2  C   LIG    1       -5.241  -0.498   1.513  0.00  0.00    +0.290 C 
ATOM      3  C   LIG    1       -6.609  -0.392   0.793  0.00  0.00    +0.170 C 
ATOM      4  C   LIG    1       -7.164   0.935   1.374  0.00  0.00    +0.090 C 
ATOM      5  C   LIG    1       -5.898   1.802   1.533  0.00  0.00    +0.380 C 
ENDROOT
BRANCH   5   6
ATOM      6  C   LIG    1       -5.759   2.724   0.349  0.00  0.00    +0.120 A 
ATOM      7  N   LIG    1       -5.412   2.381  -0.859  0.00  0.00    -0.270 NA
ATOM      8  N   LIG    1       -5.398   3.424  -1.612  0.00  0.00    -0.290 NA
ATOM      9  C   LIG    1       -5.735   4.469  -0.910  0.00  0.00    +0.180 A 
ATOM     10  C   LIG    1       -5.840   5.885  -1.413  0.00  0.00    +0.250 C 
ATOM     11  O   LIG    1       -5.976   4.050   0.344  0.00  0.00    -0.210 OA
ENDBRANCH   5   6
BRANCH   1  12
ATOM     12  S   LIG    1       -3.161   1.342   1.733  0.00  0.00    +2.620 S 
ATOM     13  O   LIG    1       -3.214   2.609   2.373  0.00  0.00    -0.930 OA
ATOM     14  O   LIG    1       -2.533   0.231   2.358  0.00  0.00    -0.930 OA
BRANCH  12  15
ATOM     15  C   LIG    1       -2.587   1.516   0.021  0.00  0.00    -0.230 C 
BRANCH  15  18
ATOM     16  C   LIG    1        1.043   1.924   0.002  0.00  0.00    -0.030 A 
ATOM     17  C   LIG    1       -0.013   1.076   0.008  0.00  0.00    +0.000 A 
ATOM     18  C   LIG    1       -1.138   1.931   0.017  0.00  0.00    +0.000 A 
ATOM     19  N   LIG    1       -0.675   3.148   0.024  0.00  0.00    -0.330 NA
ATOM     20  O   LIG    1        0.534   3.164   0.013  0.00  0.00    +0.130 OA
BRANCH  16  21
ATOM     21  C   LIG    1        2.503   1.549  -0.013  0.00  0.00    +0.310 C 
BRANCH  21  23
ATOM     22  C   LIG    1        4.330   1.082  -1.492  0.00  0.00    +0.220 C 
ATOM     23  O   LIG    1        2.951   1.436  -1.365  0.00  0.00    -0.390 OA
ENDBRANCH  21  23
ENDBRANCH  16  21
ENDBRANCH  15  18
ENDBRANCH  12  15
ENDBRANCH   1  12
BRANCH   3  24
ATOM     24  O   LIG    1       -7.453  -1.494   1.132  0.00  0.00    -0.370 OA
ATOM     25  C   LIG    1       -7.342  -2.606   0.242  0.00  0.00    +0.220 C 
ENDBRANCH   3  24
TORSDOF 7
