REMARK  Name = ZINCpe000000YvTA.0
REMARK                            x       y       z     vdW  Elec       q    Type
REMARK                         _______ _______ _______ _____ _____    ______ ____
ROOT
ATOM      1  N   LIG    1        0.706  -0.479  -1.196  0.00  0.00    -0.480 N 
ATOM      2  C   LIG    1        0.002  -0.004   0.002  0.00  0.00    +0.220 C 
ATOM      3  C   LIG    1       -0.019   1.526   0.010  0.00  0.00    +0.060 C 
ATOM      4  C   LIG    1        1.420   2.051  -0.001  0.00  0.00    -0.010 C 
ATOM      5  C   LIG    1        2.145   1.503  -1.232  0.00  0.00    +0.050 C 
ATOM      6  C   LIG    1        2.103  -0.026  -1.205  0.00  0.00    +0.210 C 
ENDROOT
BRANCH   1  10
ATOM      7  C   LIG    1        0.468  -4.569  -1.490  0.00  0.00    -0.110 A 
ATOM      8  C   LIG    1        1.164  -3.862  -2.481  0.00  0.00    +0.150 A 
ATOM      9  C   LIG    1        1.241  -2.498  -2.379  0.00  0.00    -0.040 A 
ATOM     10  C   LIG    1        0.631  -1.858  -1.303  0.00  0.00    +0.340 A 
ATOM     11  N   LIG    1       -0.018  -2.551  -0.376  0.00  0.00    -0.520 NA
ATOM     12  C   LIG    1       -0.120  -3.862  -0.439  0.00  0.00    +0.360 A 
BRANCH   7  14
ATOM     13  N   LIG    1        0.277  -7.128  -1.607  0.00  0.00    -0.410 NA
ATOM     14  C   LIG    1        0.361  -5.996  -1.555  0.00  0.00    +0.260 C 
ENDBRANCH   7  14
ENDBRANCH   1  10
BRANCH   4  15
ATOM     15  C   LIG    1        1.405   3.557  -0.053  0.00  0.00    +0.520 C 
ATOM     16  N   LIG    1        2.566   4.242  -0.071  0.00  0.00    -0.730 N 
ATOM     17  H   LIG    1        3.411   3.765  -0.050  0.00  0.00    +0.400 HD
ATOM     18  O   LIG    1        0.349   4.153  -0.079  0.00  0.00    -0.530 OA
BRANCH  16  19
ATOM     19  C   LIG    1        2.553   5.706  -0.121  0.00  0.00    +0.270 C 
BRANCH  19  20
ATOM     20  C   LIG    1        3.990   6.229  -0.132  0.00  0.00    +0.270 C 
BRANCH  20  21
ATOM     21  N   LIG    1        3.976   7.694  -0.183  0.00  0.00    -0.730 N 
ATOM     22  H   LIG    1        3.132   8.170  -0.204  0.00  0.00    +0.410 HD
ATOM     23  C   LIG    1        5.137   8.378  -0.201  0.00  0.00    +0.550 C 
ATOM     24  O   LIG    1        6.193   7.782  -0.175  0.00  0.00    -0.540 OA
BRANCH  23  25
ATOM     25  C   LIG    1        5.123   9.884  -0.253  0.00  0.00    -0.070 C 
ATOM     26  C   LIG    1        5.617  10.551  -1.538  0.00  0.00    +0.060 C 
ATOM     27  C   LIG    1        6.473  10.603  -0.271  0.00  0.00    +0.070 C 
ENDBRANCH  23  25
ENDBRANCH  20  21
ENDBRANCH  19  20
ENDBRANCH  16  19
ENDBRANCH   4  15
TORSDOF 7
