REMARK  Name = ZINCrD00000F5Lw2.0
REMARK                            x       y       z     vdW  Elec       q    Type
REMARK                         _______ _______ _______ _____ _____    ______ ____
ROOT
ATOM      1  C   LIG    1        0.196   5.483   3.836  0.00  0.00    -0.070 A 
ATOM      2  C   LIG    1        1.410   5.748   3.229  0.00  0.00    -0.020 A 
ATOM      3  C   LIG    1        1.939   7.025   3.265  0.00  0.00    +0.050 A 
ATOM      4  C   LIG    1        1.260   8.037   3.915  0.00  0.00    -0.070 A 
ATOM      5  C   LIG    1        0.044   7.772   4.529  0.00  0.00    +0.130 A 
ATOM      6  C   LIG    1       -0.487   6.492   4.487  0.00  0.00    +0.020 A 
ENDROOT
BRANCH   1   7
ATOM      7  C   LIG    1       -0.380   4.091   3.791  0.00  0.00    +0.340 C 
BRANCH   7   8
ATOM      8  N   LIG    1       -1.226   3.951   2.603  0.00  0.00    -0.600 N 
ATOM      9  C   LIG    1       -2.539   4.248   2.673  0.00  0.00    +0.560 C 
ATOM     10  O   LIG    1       -3.021   4.633   3.721  0.00  0.00    -0.540 OA
BRANCH   9  11
ATOM     11  C   LIG    1       -3.389   4.107   1.481  0.00  0.00    -0.090 C 
ATOM     12  C   LIG    1       -4.684   4.401   1.549  0.00  0.00    +0.140 C 
ENDBRANCH   9  11
BRANCH   8  13
ATOM     13  C   LIG    1       -0.646   3.487   1.341  0.00  0.00    +0.260 C 
BRANCH  13  14
ATOM     14  C   LIG    1       -0.734   1.961   1.269  0.00  0.00    +0.200 C 
BRANCH  14  15
ATOM     15  O   LIG    1       -2.106   1.565   1.223  0.00  0.00    -0.550 OA
ATOM     16  H   LIG    1       -2.591   1.915   0.463  0.00  0.00    +0.370 HD
ENDBRANCH  14  15
BRANCH  14  17
ATOM     17  C   LIG    1       -0.018   1.468   0.010  0.00  0.00    +0.150 C 
BRANCH  17  19
ATOM     18  C   LIG    1        0.018  -1.178  -0.004  0.00  0.00    +0.030 C 
ATOM     19  C   LIG    1        0.002  -0.004   0.002  0.00  0.00    -0.190 C 
ENDBRANCH  17  19
ENDBRANCH  14  17
ENDBRANCH  13  14
ENDBRANCH   8  13
ENDBRANCH   7   8
ENDBRANCH   1   7
BRANCH   5  20
ATOM     20  O   LIG    1       -0.626   8.766   5.170  0.00  0.00    -0.310 OA
BRANCH  20  21
ATOM     21  C   LIG    1       -0.019  10.060   5.172  0.00  0.00    +0.270 C 
BRANCH  21  22
ATOM     22  C   LIG    1       -0.899  11.026   5.923  0.00  0.00    -0.130 A 
ATOM     23  C   LIG    1       -2.088  10.591   6.477  0.00  0.00    +0.070 A 
ATOM     24  C   LIG    1       -2.895  11.476   7.166  0.00  0.00    +0.000 A 
ATOM     25  C   LIG    1       -2.515  12.798   7.302  0.00  0.00    +0.050 A 
ATOM     26  C   LIG    1       -1.326  13.236   6.750  0.00  0.00    -0.010 A 
ATOM     27  C   LIG    1       -0.514  12.348   6.064  0.00  0.00    +0.100 A 
ATOM     28  F   LIG    1        0.651  12.774   5.529  0.00  0.00    -0.140 F 
ENDBRANCH  21  22
ENDBRANCH  20  21
ENDBRANCH   5  20
TORSDOF 11
