REMARK  Name = ZINCpe00000OR9bw.0
REMARK                            x       y       z     vdW  Elec       q    Type
REMARK                         _______ _______ _______ _____ _____    ______ ____
ROOT
ATOM      1  C   LIG    1        3.687   1.296  -0.077  0.00  0.00    +0.520 C 
ATOM      2  N   LIG    1        2.378   0.974  -0.077  0.00  0.00    -0.590 N 
ATOM      3  C   LIG    1        1.548   1.310   1.081  0.00  0.00    +0.260 C 
ATOM      4  C   LIG    1        0.569   0.208   1.520  0.00  0.00    +0.100 C 
ATOM      5  S   LIG    1        1.359  -1.409   1.495  0.00  0.00    -0.210 S 
ATOM      6  C   LIG    1        1.197  -1.926  -0.245  0.00  0.00    +0.130 C 
ATOM      7  C   LIG    1        2.106  -1.209  -1.131  0.00  0.00    +0.030 C 
ATOM      8  C   LIG    1        1.805   0.299  -1.221  0.00  0.00    +0.330 C 
ATOM      9  O   LIG    1        4.401   0.930  -0.986  0.00  0.00    -0.500 OA
ENDROOT
BRANCH   1  15
ATOM     10  C   LIG    1        4.005   3.645   0.840  0.00  0.00    -0.140 C 
ATOM     11  C   LIG    1        5.029   4.102  -0.244  0.00  0.00    +0.080 C 
ATOM     12  C   LIG    1        6.022   3.526   0.806  0.00  0.00    +0.080 C 
ATOM     13  O   LIG    1        5.717   2.114   1.019  0.00  0.00    -0.310 OA
ATOM     14  C   LIG    1        7.495   3.932   0.732  0.00  0.00    +0.120 C 
ATOM     15  C   LIG    1        4.262   2.112   1.051  0.00  0.00    +0.200 C 
ATOM     16  C   LIG    1        5.073   4.264   1.782  0.00  0.00    +0.070 C 
BRANCH  10  17
ATOM     17  C   LIG    1        2.584   4.146   0.831  0.00  0.00    +0.500 C 
ATOM     18  O   LIG    1        2.183   4.843   1.733  0.00  0.00    -0.490 OA
BRANCH  17  19
ATOM     19  O   LIG    1        1.763   3.817  -0.179  0.00  0.00    -0.340 OA
BRANCH  19  21
ATOM     20  C   LIG    1       -0.375   3.862  -1.344  0.00  0.00    +0.060 C 
ATOM     21  C   LIG    1        0.442   4.421  -0.178  0.00  0.00    +0.200 C 
ENDBRANCH  19  21
ENDBRANCH  17  19
ENDBRANCH  10  17
ENDBRANCH   1  15
BRANCH   7  22
ATOM     22  C   LIG    1        2.008  -1.805  -2.511  0.00  0.00    +0.470 C 
ATOM     23  O   LIG    1        1.663  -1.118  -3.443  0.00  0.00    -0.500 OA
BRANCH  22  24
ATOM     24  O   LIG    1        2.303  -3.100  -2.705  0.00  0.00    -0.360 OA
ATOM     25  C   LIG    1        2.186  -3.607  -4.061  0.00  0.00    +0.260 C 
ENDBRANCH  22  24
ENDBRANCH   7  22
TORSDOF 6
