REMARK  Name = ZINCvU0000000AvH.0
REMARK                            x       y       z     vdW  Elec       q    Type
REMARK                         _______ _______ _______ _____ _____    ______ ____
ROOT
ATOM      1  C   LIG    1        1.172   1.784   0.000  0.00  0.00    +0.130 A 
ATOM      2  C   LIG    1       -0.013   1.076   0.008  0.00  0.00    -0.010 A 
ATOM      3  C   LIG    1       -1.234   1.761   0.018  0.00  0.00    -0.040 A 
ATOM      4  C   LIG    1       -1.246   3.161   0.031  0.00  0.00    +0.050 A 
ATOM      5  C   LIG    1       -0.058   3.860   0.023  0.00  0.00    -0.080 A 
ATOM      6 BR   LIG    1       -0.076   5.751   0.035  0.00  0.00    -0.020 Br
ATOM      7  C   LIG    1        1.152   3.179   0.008  0.00  0.00    +0.100 A 
ENDROOT
BRANCH   3   8
ATOM      8  C   LIG    1       -2.498   1.014   0.019  0.00  0.00    +0.130 C 
ATOM      9  C   LIG    1       -3.677   1.678   0.028  0.00  0.00    -0.090 C 
BRANCH   9  10
ATOM     10  C   LIG    1       -4.897   0.956   0.029  0.00  0.00    +0.430 C 
ATOM     11  O   LIG    1       -4.884  -0.262   0.022  0.00  0.00    -0.460 OA
BRANCH  10  12
ATOM     12  C   LIG    1       -6.185   1.682   0.039  0.00  0.00    -0.160 A 
ATOM     13  C   LIG    1       -7.374   0.971   0.041  0.00  0.00    +0.110 A 
ATOM     14  C   LIG    1       -8.593   1.667   0.050  0.00  0.00    -0.070 A 
ATOM     15  C   LIG    1       -9.821   0.981   0.052  0.00  0.00    +0.030 A 
ATOM     16  C   LIG    1      -10.985   1.686   0.062  0.00  0.00    +0.010 A 
ATOM     17  C   LIG    1      -10.980   3.079   0.069  0.00  0.00    +0.030 A 
ATOM     18  C   LIG    1       -9.810   3.776   0.068  0.00  0.00    +0.020 A 
ATOM     19  C   LIG    1       -8.588   3.085   0.058  0.00  0.00    -0.030 A 
ATOM     20  C   LIG    1       -7.362   3.777   0.057  0.00  0.00    +0.020 A 
ATOM     21  C   LIG    1       -6.193   3.088   0.053  0.00  0.00    +0.050 A 
ENDBRANCH  10  12
ENDBRANCH   9  10
ENDBRANCH   3   8
BRANCH   1  22
ATOM     22  O   LIG    1        2.360   1.121  -0.015  0.00  0.00    -0.300 OA
BRANCH  22  24
ATOM     23  C   LIG    1        3.728  -0.871  -0.040  0.00  0.00    +0.070 C 
ATOM     24  C   LIG    1        2.306  -0.307  -0.023  0.00  0.00    +0.190 C 
ENDBRANCH  22  24
ENDBRANCH   1  22
BRANCH   7  25
ATOM     25  O   LIG    1        2.320   3.872   0.001  0.00  0.00    -0.290 OA
BRANCH  25  26
ATOM     26  C   LIG    1        2.866   4.211  -1.275  0.00  0.00    +0.230 C 
BRANCH  26  27
ATOM     27  C   LIG    1        4.152   4.973  -1.085  0.00  0.00    +0.520 C 
ATOM     28  N   LIG    1        4.848   5.398  -2.159  0.00  0.00    -0.620 N 
ATOM     29  C   LIG    1        4.354   5.120  -3.509  0.00  0.00    +0.270 C 
ATOM     30  C   LIG    1        6.098   6.139  -1.974  0.00  0.00    +0.300 C 
ATOM     31  O   LIG    1        4.561   5.204   0.033  0.00  0.00    -0.510 OA
ENDBRANCH  26  27
ENDBRANCH  25  26
ENDBRANCH   7  25
TORSDOF 8
