REMARK  Name = ZINCtV000002KkoJ.0
REMARK                            x       y       z     vdW  Elec       q    Type
REMARK                         _______ _______ _______ _____ _____    ______ ____
ROOT
ATOM      1  C   LIG    1       -7.910  -2.716  -2.256  0.00  0.00    +0.180 C 
ATOM      2  C   LIG    1       -8.170  -2.943  -0.789  0.00  0.00    +0.120 A 
ATOM      3  N   LIG    1       -9.218  -3.528  -0.278  0.00  0.00    -0.250 NA
ATOM      4  N   LIG    1       -9.094  -3.546   1.116  0.00  0.00    -0.340 N 
ATOM      5  C   LIG    1       -7.933  -2.959   1.448  0.00  0.00    +0.170 A 
ATOM      6 CL   LIG    1       -7.315  -2.738   3.056  0.00  0.00    +0.010 Cl
ATOM      7  C   LIG    1       -7.322  -2.558   0.274  0.00  0.00    -0.260 A 
ENDROOT
BRANCH   7   8
ATOM      8  C   LIG    1       -6.027  -1.867   0.154  0.00  0.00    +0.600 C 
ATOM      9  N   LIG    1       -4.890  -2.581   0.037  0.00  0.00    -0.660 N 
ATOM     10  H   LIG    1       -4.930  -3.547  -0.045  0.00  0.00    +0.410 HD
ATOM     11  O   LIG    1       -5.984  -0.651   0.160  0.00  0.00    -0.500 OA
BRANCH   9  12
ATOM     12  C   LIG    1       -3.650  -1.929   0.033  0.00  0.00    +0.120 A 
ATOM     13  C   LIG    1       -2.602  -2.433  -0.725  0.00  0.00    +0.030 A 
ATOM     14  C   LIG    1       -1.380  -1.790  -0.727  0.00  0.00    +0.030 A 
ATOM     15  C   LIG    1       -1.200  -0.640   0.027  0.00  0.00    +0.090 A 
ATOM     16  C   LIG    1       -2.245  -0.138   0.789  0.00  0.00    -0.030 A 
ATOM     17  C   LIG    1       -3.469  -0.778   0.788  0.00  0.00    +0.060 A 
BRANCH  15  18
ATOM     18  O   LIG    1        0.004  -0.007   0.025  0.00  0.00    -0.320 OA
BRANCH  18  19
ATOM     19  C   LIG    1        0.119   1.172   0.824  0.00  0.00    +0.590 C 
ATOM     20  F   LIG    1       -0.136   0.854   2.163  0.00  0.00    -0.200 F 
ATOM     21  F   LIG    1       -0.808   2.124   0.387  0.00  0.00    -0.200 F 
ENDBRANCH  18  19
ENDBRANCH  15  18
ENDBRANCH   9  12
ENDBRANCH   7   8
BRANCH   4  22
ATOM     22  C   LIG    1      -10.064  -4.117   2.053  0.00  0.00    +0.390 C 
BRANCH  22  23
ATOM     23  C   LIG    1       -9.733  -5.566   2.299  0.00  0.00    -0.120 A 
ATOM     24  C   LIG    1       -9.053  -5.935   3.444  0.00  0.00    +0.070 A 
ATOM     25  C   LIG    1       -8.750  -7.265   3.670  0.00  0.00    +0.040 A 
ATOM     26  C   LIG    1       -9.127  -8.227   2.750  0.00  0.00    -0.010 A 
ATOM     27  C   LIG    1       -9.807  -7.858   1.604  0.00  0.00    +0.040 A 
ATOM     28 CL   LIG    1       -8.745  -9.896   3.034  0.00  0.00    -0.050 Cl
ATOM     29  C   LIG    1      -10.116  -6.528   1.381  0.00  0.00    +0.000 A 
ATOM     30 CL   LIG    1      -10.976  -6.066  -0.054  0.00  0.00    -0.030 Cl
ENDBRANCH  22  23
ENDBRANCH   4  22
TORSDOF 6
