REMARK  Name = ZINCpe000000UpRr.0
REMARK                            x       y       z     vdW  Elec       q    Type
REMARK                         _______ _______ _______ _____ _____    ______ ____
ROOT
ATOM      1  N   LIG    1       -1.903  -2.942  -5.518  0.00  0.00    -0.680 N 
ATOM      2  H   LIG    1       -2.817  -2.775  -5.238  0.00  0.00    +0.410 HD
ATOM      3  C   LIG    1       -0.912  -2.962  -4.605  0.00  0.00    +0.520 C 
ATOM      4  O   LIG    1        0.215  -3.260  -4.940  0.00  0.00    -0.490 OA
ENDROOT
BRANCH   1   8
ATOM      5  C   LIG    1       -1.043  -3.596  -9.541  0.00  0.00    -0.150 A 
ATOM      6  C   LIG    1       -2.291  -3.956  -9.024  0.00  0.00    +0.100 A 
ATOM      7  C   LIG    1       -2.571  -3.739  -7.694  0.00  0.00    -0.030 A 
ATOM      8  C   LIG    1       -1.615  -3.161  -6.865  0.00  0.00    +0.180 A 
ATOM      9  C   LIG    1       -0.374  -2.797  -7.377  0.00  0.00    +0.020 A 
ATOM     10  C   LIG    1       -0.085  -3.016  -8.705  0.00  0.00    +0.060 A 
BRANCH   5  13
ATOM     11  C   LIG    1        0.810  -4.427 -12.749  0.00  0.00    +0.290 C 
ATOM     12  N   LIG    1        0.474  -4.291 -11.330  0.00  0.00    -0.620 N 
ATOM     13  C   LIG    1       -0.739  -3.827 -10.967  0.00  0.00    +0.560 C 
ATOM     14  O   LIG    1       -1.582  -3.600 -11.813  0.00  0.00    -0.530 OA
ATOM     15  C   LIG    1        1.455  -4.658 -10.306  0.00  0.00    +0.280 C 
ENDBRANCH   5  13
ENDBRANCH   1   8
BRANCH   3  16
ATOM     16  C   LIG    1       -1.204  -2.615  -3.168  0.00  0.00    +0.210 C 
BRANCH  16  17
ATOM     17  N   LIG    1        0.032  -2.710  -2.380  0.00  0.00    -0.470 NA
ATOM     18  C   LIG    1        0.403  -4.129  -2.141  0.00  0.00    +0.180 C 
ATOM     19  C   LIG    1        1.337  -4.085  -0.912  0.00  0.00    +0.040 C 
ATOM     20  C   LIG    1        0.967  -2.782  -0.174  0.00  0.00    +0.050 C 
ATOM     21  C   LIG    1       -0.159  -2.148  -1.018  0.00  0.00    +0.120 C 
BRANCH  21  22
ATOM     22  C   LIG    1       -0.017  -0.648  -1.044  0.00  0.00    +0.520 C 
ATOM     23  N   LIG    1       -0.353   0.079   0.040  0.00  0.00    -0.630 N 
ATOM     24  C   LIG    1       -0.736  -0.593   1.283  0.00  0.00    +0.280 C 
ATOM     25  C   LIG    1       -0.336   1.543  -0.027  0.00  0.00    +0.300 C 
ATOM     26  O   LIG    1        0.401  -0.096  -2.040  0.00  0.00    -0.510 OA
ENDBRANCH  21  22
ENDBRANCH  16  17
ENDBRANCH   3  16
TORSDOF 5
