REMARK  Name = ZINCrD0000071zSF.0
REMARK                            x       y       z     vdW  Elec       q    Type
REMARK                         _______ _______ _______ _____ _____    ______ ____
ROOT
ATOM      1  C   LIG    1       -0.009   1.200   0.030  0.00  0.00    +0.400 C 
ATOM      2  O   LIG    1        0.006  -0.003   0.185  0.00  0.00    -0.420 OA
ENDROOT
BRANCH   1   6
ATOM      3  C   LIG    1        3.626   3.374  -0.010  0.00  0.00    +0.190 A 
ATOM      4  C   LIG    1        3.645   1.994   0.169  0.00  0.00    +0.000 A 
ATOM      5  C   LIG    1        2.471   1.286   0.183  0.00  0.00    +0.110 A 
ATOM      6  C   LIG    1        1.251   1.954   0.017  0.00  0.00    -0.190 A 
ATOM      7  C   LIG    1        1.237   3.342  -0.168  0.00  0.00    +0.090 A 
ATOM      8  C   LIG    1        2.416   4.042  -0.175  0.00  0.00    -0.020 A 
BRANCH   3  10
ATOM      9  C   LIG    1        5.937   3.528  -0.531  0.00  0.00    +0.510 C 
ATOM     10  N   LIG    1        4.822   4.089  -0.024  0.00  0.00    -0.680 N 
ATOM     11  H   LIG    1        4.851   4.991   0.332  0.00  0.00    +0.420 HD
ATOM     12  O   LIG    1        5.880   2.439  -1.062  0.00  0.00    -0.510 OA
BRANCH   9  13
ATOM     13  C   LIG    1        7.255   4.253  -0.439  0.00  0.00    +0.060 C 
BRANCH  13  15
ATOM     14  C   LIG    1        9.688   4.140  -0.992  0.00  0.00    +0.030 C 
ATOM     15  C   LIG    1        8.350   3.404  -1.086  0.00  0.00    +0.030 C 
ENDBRANCH  13  15
ENDBRANCH   9  13
ENDBRANCH   3  10
ENDBRANCH   1   6
BRANCH   1  16
ATOM     16  C   LIG    1       -1.320   1.920  -0.155  0.00  0.00    +0.240 C 
BRANCH  16  17
ATOM     17  O   LIG    1       -2.409   0.961  -0.109  0.00  0.00    -0.320 OA
BRANCH  17  18
ATOM     18  C   LIG    1       -3.658   1.446  -0.260  0.00  0.00    +0.560 C 
ATOM     19  O   LIG    1       -3.831   2.638  -0.425  0.00  0.00    -0.490 OA
BRANCH  18  20
ATOM     20  C   LIG    1       -4.812   0.532  -0.224  0.00  0.00    +0.000 A 
ATOM     21  N   LIG    1       -4.780  -0.772  -0.054  0.00  0.00    -0.160 NA
ATOM     22  N   LIG    1       -5.956  -1.288  -0.072  0.00  0.00    -0.400 N 
ATOM     23  H   LIG    1       -6.140  -2.234   0.037  0.00  0.00    +0.450 HD
ATOM     24  C   LIG    1       -6.916  -0.329  -0.263  0.00  0.00    +0.060 A 
ATOM     25  C   LIG    1       -8.303  -0.339  -0.360  0.00  0.00    +0.010 A 
ATOM     26  C   LIG    1       -8.983   0.844  -0.545  0.00  0.00    +0.060 A 
ATOM     27  C   LIG    1       -8.298   2.047  -0.648  0.00  0.00    +0.000 A 
ATOM     28  C   LIG    1       -6.934   2.080  -0.560  0.00  0.00    +0.090 A 
ATOM     29  C   LIG    1       -6.228   0.897  -0.365  0.00  0.00    -0.100 A 
ENDBRANCH  18  20
ENDBRANCH  17  18
ENDBRANCH  16  17
ENDBRANCH   1  16
TORSDOF 8
