REMARK  Name = ZINCnE000001GCjb.2
REMARK                            x       y       z     vdW  Elec       q    Type
REMARK                         _______ _______ _______ _____ _____    ______ ____
ROOT
ATOM      1  C   UNK    1       -8.687   0.898   2.065  0.00  0.00    +0.150 C 
ATOM      2  C   UNK    1       -7.871   1.712   1.046  0.00  0.00    +0.010 C 
ATOM      3  C   UNK    1       -6.699   0.760   1.341  0.00  0.00    +0.150 C 
ATOM      4  C   UNK    1       -7.348   0.511   2.708  0.00  0.00    -0.050 C 
ATOM      5  C   UNK    1       -6.885   1.487   3.788  0.00  0.00    +0.050 C 
ATOM      6  C   UNK    1       -5.465   1.118   4.227  0.00  0.00    +0.020 C 
ATOM      7  C   UNK    1       -5.448  -0.325   4.735  0.00  0.00    +0.000 C 
ATOM      8  C   UNK    1       -5.856  -1.274   3.606  0.00  0.00    +0.000 C 
ATOM      9  C   UNK    1       -7.283  -0.947   3.157  0.00  0.00    +0.010 C 
ENDROOT
BRANCH   3  10
ATOM     10  N   UNK    1       -5.397   1.436   1.420  0.00  0.00    -0.510 NA
ATOM     11  C   UNK    1       -5.366   2.622   0.554  0.00  0.00    +0.180 C 
BRANCH  10  12
ATOM     12  C   UNK    1       -4.303   0.513   1.089  0.00  0.00    +0.290 C 
BRANCH  12  13
ATOM     13  C   UNK    1       -2.993   1.102   1.544  0.00  0.00    +0.010 A 
ATOM     14  N   UNK    1       -2.473   0.915   2.704  0.00  0.00    -0.390 NA
ATOM     15  C   UNK    1       -1.302   1.522   2.923  0.00  0.00    +0.020 A 
ATOM     16  C   UNK    1       -0.861   2.251   1.856  0.00  0.00    -0.070 A 
ATOM     17  S   UNK    1       -1.999   2.108   0.588  0.00  0.00    +0.100 S 
BRANCH  15  18
ATOM     18  C   UNK    1       -0.565   1.420   4.189  0.00  0.00    +0.550 C 
ATOM     19  O   UNK    1        0.506   1.998   4.322  0.00  0.00    -0.680 OA
ATOM     20  O   UNK    1       -1.020   0.754   5.109  0.00  0.00    -0.660 OA
ENDBRANCH  15  18
ENDBRANCH  12  13
ENDBRANCH  10  12
ENDBRANCH   3  10
BRANCH   1  21
ATOM     21  O   UNK    1       -9.518   1.702   2.906  0.00  0.00    -0.360 OA
BRANCH  21  23
ATOM     22  C   UNK    1      -11.703   2.472   3.593  0.00  0.00    +0.040 C 
ATOM     23  C   UNK    1      -10.915   1.572   2.638  0.00  0.00    +0.140 C 
ENDBRANCH  21  23
ENDBRANCH   1  21
TORSDOF 6
