REMARK  Name = ZINCpe00000bP5Lv.0
REMARK                            x       y       z     vdW  Elec       q    Type
REMARK                         _______ _______ _______ _____ _____    ______ ____
ROOT
ATOM      1  C   LIG    1        4.119  -4.402   0.552  0.00  0.00    -0.020 C 
ATOM      2  C   LIG    1        4.878  -3.182  -0.033  0.00  0.00    +0.040 C 
ATOM      3  C   LIG    1        3.801  -2.077  -0.045  0.00  0.00    +0.280 C 
ATOM      4  N   LIG    1        2.491  -2.745  -0.037  0.00  0.00    -0.600 N 
ATOM      5  C   LIG    1        1.294  -2.126  -0.022  0.00  0.00    +0.580 C 
ATOM      6  O   LIG    1        0.271  -2.781  -0.016  0.00  0.00    -0.520 OA
ATOM      7  C   LIG    1        2.704  -4.204  -0.041  0.00  0.00    +0.260 C 
ENDROOT
BRANCH   5   8
ATOM      8  C   LIG    1        1.225  -0.642  -0.013  0.00  0.00    +0.130 A 
ATOM      9  C   LIG    1        0.002  -0.004   0.002  0.00  0.00    -0.040 A 
ATOM     10  C   LIG    1       -0.017   1.412   0.010  0.00  0.00    +0.520 A 
ATOM     11  N   LIG    1        1.159   2.074   0.002  0.00  0.00    -0.630 N 
ATOM     12  H   LIG    1        1.169   3.043   0.007  0.00  0.00    +0.420 HD
ATOM     13  C   LIG    1        2.321   1.391  -0.013  0.00  0.00    +0.600 A 
ATOM     14  O   LIG    1       -1.074   2.020   0.018  0.00  0.00    -0.520 OA
ATOM     15  N   LIG    1        2.353   0.087  -0.020  0.00  0.00    -0.530 NA
ENDBRANCH   5   8
BRANCH   1  17
ATOM     16  C   LIG    1        6.199  -5.785   0.521  0.00  0.00    +0.030 C 
ATOM     17  C   LIG    1        4.738  -5.716   0.071  0.00  0.00    +0.250 C 
BRANCH  17  18
ATOM     18  N   LIG    1        3.997  -6.843   0.642  0.00  0.00    -0.730 N 
ATOM     19  H   LIG    1        3.506  -6.730   1.470  0.00  0.00    +0.400 HD
ATOM     20  C   LIG    1        3.998  -8.037   0.016  0.00  0.00    +0.600 C 
ATOM     21  O   LIG    1        4.615  -8.178  -1.023  0.00  0.00    -0.550 OA
BRANCH  20  22
ATOM     22  C   LIG    1        3.253  -9.170   0.590  0.00  0.00    -0.240 A 
ATOM     23  C   LIG    1        3.158 -10.434   0.078  0.00  0.00    +0.250 A 
ATOM     24  N   LIG    1        2.386 -11.169   0.901  0.00  0.00    -0.450 N 
ATOM     25  C   LIG    1        1.966 -10.413   1.956  0.00  0.00    +0.150 A 
ATOM     26  C   LIG    1        2.047 -12.579   0.695  0.00  0.00    +0.330 C 
ATOM     27  C   LIG    1        2.469  -9.172   1.829  0.00  0.00    -0.030 A 
ENDBRANCH  20  22
ENDBRANCH  17  18
ENDBRANCH   1  17
TORSDOF 4
