REMARK  Name = ZINCrH000004r4Fc.0
REMARK                            x       y       z     vdW  Elec       q    Type
REMARK                         _______ _______ _______ _____ _____    ______ ____
ROOT
ATOM      1  C   LIG    1       -0.129   0.955   0.449  0.00  0.00    +0.110 C 
ATOM      2  C   LIG    1       -0.982   1.506   1.562  0.00  0.00    +0.050 A 
ATOM      3  C   LIG    1       -0.455   1.637   2.834  0.00  0.00    -0.010 A 
ATOM      4  C   LIG    1       -1.231   2.142   3.858  0.00  0.00    +0.100 A 
ATOM      5  C   LIG    1       -2.550   2.520   3.607  0.00  0.00    -0.160 A 
ATOM      6  C   LIG    1       -3.077   2.385   2.321  0.00  0.00    +0.200 A 
ATOM      7  C   LIG    1       -2.288   1.884   1.306  0.00  0.00    -0.690 A 
ENDROOT
BRANCH   5   8
ATOM      8  C   LIG    1       -3.388   3.061   4.699  0.00  0.00    +0.560 C 
ATOM      9  N   LIG    1       -2.877   3.190   5.939  0.00  0.00    -0.730 N 
ATOM     10  H   LIG    1       -1.960   2.927   6.116  0.00  0.00    +0.400 HD
ATOM     11  O   LIG    1       -4.537   3.389   4.478  0.00  0.00    -0.530 OA
BRANCH   9  12
ATOM     12  C   LIG    1       -3.707   3.726   7.021  0.00  0.00    +0.260 C 
BRANCH  12  13
ATOM     13  C   LIG    1       -2.893   3.767   8.316  0.00  0.00    +0.050 C 
BRANCH  13  14
ATOM     14  C   LIG    1       -3.746   4.318   9.429  0.00  0.00    -0.120 C 
ATOM     15  C   LIG    1       -4.368   3.477  10.191  0.00  0.00    -0.050 C 
ATOM     16  C   LIG    1       -5.256   3.874  11.334  0.00  0.00    +0.050 C 
ATOM     17  C   LIG    1       -4.998   5.331  11.722  0.00  0.00    +0.010 C 
ATOM     18  C   LIG    1       -5.031   6.186  10.448  0.00  0.00    +0.020 C 
ATOM     19  C   LIG    1       -3.827   5.809   9.581  0.00  0.00    +0.060 C 
ENDBRANCH  13  14
ENDBRANCH  12  13
ENDBRANCH   9  12
ENDBRANCH   5   8
BRANCH   7  20
ATOM     20  S   LIG    1       -2.948   1.720  -0.320  0.00  0.00    +2.690 S 
ATOM     21  O   LIG    1       -1.958   2.221  -1.207  0.00  0.00    -0.950 OA
ATOM     22  O   LIG    1       -4.275   2.227  -0.267  0.00  0.00    -0.950 OA
BRANCH  20  23
ATOM     23  N   LIG    1       -3.080   0.099  -0.633  0.00  0.00    -0.990 NA
ATOM     24  C   LIG    1       -2.001  -0.619  -1.325  0.00  0.00    +0.290 C 
ATOM     25  C   LIG    1       -1.595  -1.831  -0.473  0.00  0.00    +0.010 C 
ATOM     26  C   LIG    1       -2.834  -2.683  -0.186  0.00  0.00    +0.020 C 
ATOM     27  C   LIG    1       -3.851  -1.857   0.605  0.00  0.00    +0.010 C 
ATOM     28  C   LIG    1       -4.280  -0.647  -0.231  0.00  0.00    +0.290 C 
ENDBRANCH  20  23
ENDBRANCH   7  20
TORSDOF 6
