REMARK  Name = ZINCnE00000feTrL.0
REMARK                            x       y       z     vdW  Elec       q    Type
REMARK                         _______ _______ _______ _____ _____    ______ ____
ROOT
ATOM      1  C   LIG    1        1.348  -2.662   3.225  0.00  0.00    +0.110 C 
ATOM      2  C   LIG    1        0.091  -2.824   2.411  0.00  0.00    -0.010 C 
ATOM      3  C   LIG    1       -0.902  -3.622   2.854  0.00  0.00    -0.070 C 
ENDROOT
BRANCH   2   4
ATOM      4  C   LIG    1       -0.054  -2.111   1.131  0.00  0.00    -0.050 A 
ATOM      5  C   LIG    1       -0.138  -2.828  -0.067  0.00  0.00    +0.070 A 
ATOM      6  C   LIG    1       -0.275  -2.153  -1.262  0.00  0.00    +0.020 A 
ATOM      7  C   LIG    1       -0.334  -0.771  -1.277  0.00  0.00    +0.070 A 
ATOM      8  C   LIG    1       -0.246  -0.054  -0.096  0.00  0.00    -0.180 A 
ATOM      9  C   LIG    1       -0.110  -0.714   1.107  0.00  0.00    +0.090 A 
BRANCH   8  10
ATOM     10  C   LIG    1       -0.306   1.452  -0.124  0.00  0.00    +0.510 C 
ATOM     11  F   LIG    1       -0.876   1.918   1.065  0.00  0.00    -0.170 F 
ATOM     12  F   LIG    1       -1.085   1.867  -1.210  0.00  0.00    -0.180 F 
ATOM     13  F   LIG    1        0.988   1.967  -0.255  0.00  0.00    -0.180 F 
ENDBRANCH   8  10
ENDBRANCH   2   4
BRANCH   3  14
ATOM     14  C   LIG    1       -0.812  -4.231   4.182  0.00  0.00    +0.540 C 
ATOM     15  N   LIG    1       -1.747  -5.116   4.582  0.00  0.00    -0.610 N 
ATOM     16  C   LIG    1       -2.853  -5.468   3.688  0.00  0.00    +0.270 C 
ATOM     17  O   LIG    1        0.106  -3.939   4.926  0.00  0.00    -0.530 OA
BRANCH  15  18
ATOM     18  C   LIG    1       -1.658  -5.726   5.911  0.00  0.00    +0.260 C 
BRANCH  18  19
ATOM     19  C   LIG    1       -2.413  -4.860   6.921  0.00  0.00    +0.020 C 
BRANCH  19  20
ATOM     20  C   LIG    1       -2.320  -5.497   8.309  0.00  0.00    -0.060 C 
BRANCH  20  21
ATOM     21  C   LIG    1       -3.063  -4.645   9.305  0.00  0.00    +0.490 C 
ATOM     22  O   LIG    1       -3.111  -4.977  10.477  0.00  0.00    -0.710 OA
ATOM     23  O   LIG    1       -3.616  -3.622   8.938  0.00  0.00    -0.700 OA
ENDBRANCH  20  21
ENDBRANCH  19  20
ENDBRANCH  18  19
ENDBRANCH  15  18
ENDBRANCH   3  14
TORSDOF 7
