REMARK  Name = ZINCrD00000l00E7.0
REMARK                            x       y       z     vdW  Elec       q    Type
REMARK                         _______ _______ _______ _____ _____    ______ ____
ROOT
ATOM      1  C   LIG    1       -4.197   0.734   2.531  0.00  0.00    +0.370 C 
ENDROOT
BRANCH   1   2
ATOM      2  N   LIG    1       -4.821   1.248   3.753  0.00  0.00    -0.720 N 
ATOM      3  H   LIG    1       -4.336   1.865   4.322  0.00  0.00    +0.410 HD
ATOM      4  C   LIG    1       -6.069   0.862   4.086  0.00  0.00    +0.570 C 
ATOM      5  O   LIG    1       -6.677   0.088   3.373  0.00  0.00    -0.510 OA
BRANCH   4   6
ATOM      6  C   LIG    1       -6.697   1.381   5.319  0.00  0.00    -0.130 A 
ATOM      7  C   LIG    1       -6.002   2.270   6.140  0.00  0.00    +0.140 A 
ATOM      8  C   LIG    1       -6.594   2.750   7.289  0.00  0.00    +0.060 A 
ATOM      9  C   LIG    1       -7.876   2.353   7.629  0.00  0.00    +0.040 A 
ATOM     10  C   LIG    1       -8.572   1.471   6.818  0.00  0.00    -0.050 A 
ATOM     11 CL   LIG    1       -8.616   2.963   9.076  0.00  0.00    +0.010 Cl
ATOM     12  C   LIG    1       -7.992   0.988   5.664  0.00  0.00    +0.200 A 
BRANCH  10  13
ATOM     13  N   LIG    1       -9.942   1.051   7.188  0.00  0.00    +0.020 N 
ATOM     14  O   LIG    1      -10.457   1.481   8.205  0.00  0.00    -0.130 OA
ATOM     15  O   LIG    1      -10.555   0.275   6.476  0.00  0.00    -0.150 OA
ENDBRANCH  10  13
ENDBRANCH   4   6
ENDBRANCH   1   2
BRANCH   1  17
ATOM     16  O   LIG    1       -2.392   2.079   3.225  0.00  0.00    -0.500 OA
ATOM     17  C   LIG    1       -2.814   1.314   2.390  0.00  0.00    +0.460 C 
BRANCH  17  18
ATOM     18  O   LIG    1       -2.050   0.982   1.337  0.00  0.00    -0.340 OA
BRANCH  18  19
ATOM     19  C   LIG    1       -0.729   1.579   1.267  0.00  0.00    +0.260 C 
BRANCH  19  20
ATOM     20  C   LIG    1       -0.013   1.086   0.008  0.00  0.00    +0.230 C 
BRANCH  20  21
ATOM     21  O   LIG    1       -0.704   1.559  -1.150  0.00  0.00    -0.310 OA
BRANCH  21  22
ATOM     22  C   LIG    1       -0.194   1.208  -2.359  0.00  0.00    +0.140 A 
ATOM     23  C   LIG    1        0.951   0.428  -2.430  0.00  0.00    -0.070 A 
ATOM     24  C   LIG    1        1.464   0.066  -3.661  0.00  0.00    +0.070 A 
ATOM     25  C   LIG    1        0.845   0.490  -4.822  0.00  0.00    +0.010 A 
ATOM     26  C   LIG    1       -0.294   1.274  -4.754  0.00  0.00    -0.050 A 
ATOM     27 BR   LIG    1       -1.139   1.852  -6.344  0.00  0.00    -0.040 Br
ATOM     28  C   LIG    1       -0.815   1.633  -3.525  0.00  0.00    +0.020 A 
ENDBRANCH  21  22
ENDBRANCH  20  21
ENDBRANCH  19  20
ENDBRANCH  18  19
ENDBRANCH  17  18
ENDBRANCH   1  17
TORSDOF 9
