REMARK  Name = ZINC650000006luE.0
REMARK                            x       y       z     vdW  Elec       q    Type
REMARK                         _______ _______ _______ _____ _____    ______ ____
ROOT
ATOM      1  C   LIG    1        0.002  -0.004   0.002  0.00  0.00    +0.320 A 
ATOM      2  N   LIG    1       -0.016   1.302   0.009  0.00  0.00    -0.360 NA
ATOM      3  O   LIG    1        1.328   1.750  -0.001  0.00  0.00    +0.020 OA
ATOM      4  N   LIG    1        2.160   0.604  -0.015  0.00  0.00    -0.260 NA
ATOM      5  C   LIG    1        1.395  -0.445  -0.014  0.00  0.00    +0.250 A 
ENDROOT
BRANCH   1   6
ATOM      6  N   LIG    1       -1.115  -0.833   0.009  0.00  0.00    -0.820 N 
ATOM      7  H   LIG    1       -1.003  -1.797   0.003  0.00  0.00    +0.420 HD
ATOM      8  H   LIG    1       -2.005  -0.448   0.019  0.00  0.00    +0.420 HD
ENDBRANCH   1   6
TORSDOF 1
