REMARK  Name = ZINCrH000004nh6o.0
REMARK                            x       y       z     vdW  Elec       q    Type
REMARK                         _______ _______ _______ _____ _____    ______ ____
ROOT
ATOM      1  C   LIG    1        2.299   1.401   0.027  0.00  0.00    +0.380 A 
ATOM      2  N   LIG    1        2.374   0.084  -0.018  0.00  0.00    -0.500 NA
ATOM      3  C   LIG    1        1.259  -0.658  -0.053  0.00  0.00    +0.170 A 
ATOM      4  C   LIG    1        1.302  -2.058  -0.104  0.00  0.00    +0.030 A 
ATOM      5  C   LIG    1        0.137  -2.767  -0.138  0.00  0.00    +0.070 A 
ATOM      6  C   LIG    1       -1.095  -2.121  -0.124  0.00  0.00    +0.000 A 
ATOM      7  C   LIG    1       -1.173  -0.760  -0.076  0.00  0.00    +0.080 A 
ATOM      8  C   LIG    1        0.002  -0.003  -0.040  0.00  0.00    -0.140 A 
ATOM      9  C   LIG    1       -0.017   1.413   0.010  0.00  0.00    +0.400 A 
ATOM     10  N   LIG    1        1.140   2.057   0.042  0.00  0.00    -0.540 NA
ENDROOT
BRANCH   9  11
ATOM     11  N   LIG    1       -1.210   2.104   0.019  0.00  0.00    -0.500 N 
ATOM     12  C   LIG    1       -1.357   2.913  -1.191  0.00  0.00    +0.200 C 
ATOM     13  C   LIG    1       -2.676   3.685  -1.215  0.00  0.00    +0.060 C 
ATOM     14  C   LIG    1       -2.732   4.515   0.052  0.00  0.00    -0.040 C 
ATOM     15  C   LIG    1       -4.024   5.273   0.359  0.00  0.00    +0.220 C 
ATOM     16  O   LIG    1       -3.993   5.428   1.801  0.00  0.00    -0.390 OA
ATOM     17  C   LIG    1       -3.177   4.387   2.385  0.00  0.00    +0.210 C 
ATOM     18  C   LIG    1       -2.746   3.494   1.231  0.00  0.00    -0.030 C 
ATOM     19  C   LIG    1       -1.371   2.868   1.275  0.00  0.00    +0.220 C 
ENDBRANCH   9  11
BRANCH   1  24
ATOM     20  C   LIG    1        5.961   2.265   0.089  0.00  0.00    +0.120 A 
ATOM     21  C   LIG    1        5.909   3.651   0.137  0.00  0.00    -0.060 A 
ATOM     22  C   LIG    1        4.689   4.301   0.150  0.00  0.00    +0.040 A 
ATOM     23  C   LIG    1        3.515   3.576   0.114  0.00  0.00    +0.030 A 
ATOM     24  C   LIG    1        3.558   2.183   0.065  0.00  0.00    -0.010 A 
ATOM     25  C   LIG    1        4.788   1.528   0.058  0.00  0.00    +0.050 A 
BRANCH  20  27
ATOM     26  C   LIG    1        8.331   2.452   0.117  0.00  0.00    +0.250 C 
ATOM     27  O   LIG    1        7.162   1.630   0.078  0.00  0.00    -0.320 OA
ENDBRANCH  20  27
ENDBRANCH   1  24
TORSDOF 3
