REMARK  Name = ZINCqH0000003cQ7.1
REMARK                            x       y       z     vdW  Elec       q    Type
REMARK                         _______ _______ _______ _____ _____    ______ ____
ROOT
ATOM      1  N   LIG    1       -2.572   7.246   2.537  0.00  0.00    -0.670 N 
ATOM      2  H   LIG    1       -2.461   8.191   2.348  0.00  0.00    +0.410 HD
ATOM      3  C   LIG    1       -1.754   6.343   1.961  0.00  0.00    +0.590 C 
ATOM      4  O   LIG    1       -1.830   5.169   2.271  0.00  0.00    -0.510 OA
ENDROOT
BRANCH   1   9
ATOM      5  C   LIG    1       -5.218   5.186   4.066  0.00  0.00    -0.120 A 
ATOM      6  C   LIG    1       -5.581   5.992   5.146  0.00  0.00    +0.030 A 
ATOM      7  C   LIG    1       -4.946   7.201   5.349  0.00  0.00    +0.030 A 
ATOM      8  C   LIG    1       -3.946   7.614   4.489  0.00  0.00    +0.010 A 
ATOM      9  C   LIG    1       -3.581   6.821   3.408  0.00  0.00    +0.150 A 
ATOM     10  C   LIG    1       -4.213   5.606   3.195  0.00  0.00    +0.090 A 
BRANCH   5  13
ATOM     11  N   LIG    1       -6.869   3.488   4.689  0.00  0.00    -0.730 N 
ATOM     12  H   LIG    1       -7.122   4.047   5.440  0.00  0.00    +0.400 HD
ATOM     13  C   LIG    1       -5.898   3.891   3.846  0.00  0.00    +0.560 C 
ATOM     14  O   LIG    1       -5.580   3.191   2.905  0.00  0.00    -0.530 OA
BRANCH  11  16
ATOM     15  C   LIG    1       -8.594   1.989   5.561  0.00  0.00    +0.030 C 
ATOM     16  C   LIG    1       -7.542   2.205   4.471  0.00  0.00    +0.250 C 
ENDBRANCH  11  16
ENDBRANCH   5  13
ENDBRANCH   1   9
BRANCH   3  17
ATOM     17  C   LIG    1       -0.769   6.777   0.958  0.00  0.00    -0.290 A 
ATOM     18  C   LIG    1        0.139   5.963   0.281  0.00  0.00    +0.210 A 
ATOM     19  N   LIG    1        0.846   6.763  -0.548  0.00  0.00    -0.450 N 
ATOM     20  H   LIG    1        1.550   6.475  -1.150  0.00  0.00    +0.450 HD
ATOM     21  N   LIG    1        0.391   8.076  -0.389  0.00  0.00    -0.280 NA
ATOM     22  C   LIG    1       -0.562   8.096   0.501  0.00  0.00    +0.280 A 
BRANCH  18  23
ATOM     23  C   LIG    1        0.293   4.502   0.435  0.00  0.00    -0.060 A 
ATOM     24  C   LIG    1        1.566   3.939   0.539  0.00  0.00    +0.050 A 
ATOM     25  C   LIG    1        1.704   2.575   0.684  0.00  0.00    +0.020 A 
ATOM     26  C   LIG    1        0.582   1.763   0.726  0.00  0.00    -0.010 A 
ATOM     27  C   LIG    1       -0.683   2.315   0.618  0.00  0.00    +0.030 A 
ATOM     28 CL   LIG    1        0.764   0.046   0.908  0.00  0.00    -0.060 Cl
ATOM     29  C   LIG    1       -0.834   3.679   0.478  0.00  0.00    +0.120 A 
ENDBRANCH  18  23
ENDBRANCH   3  17
TORSDOF 5
