REMARK  Name = ZINCqH0000003cQ7.0
REMARK                            x       y       z     vdW  Elec       q    Type
REMARK                         _______ _______ _______ _____ _____    ______ ____
ROOT
ATOM      1  N   LIG    1        3.184   3.404  -0.010  0.00  0.00    -0.670 N 
ATOM      2  H   LIG    1        3.813   2.667  -0.069  0.00  0.00    +0.410 HD
ATOM      3  C   LIG    1        1.872   3.158   0.172  0.00  0.00    +0.590 C 
ATOM      4  O   LIG    1        1.098   4.080   0.342  0.00  0.00    -0.500 OA
ENDROOT
BRANCH   1   9
ATOM      5  C   LIG    1        3.303   7.002  -0.804  0.00  0.00    -0.120 A 
ATOM      6  C   LIG    1        4.564   7.334  -0.307  0.00  0.00    +0.030 A 
ATOM      7  C   LIG    1        5.351   6.365   0.281  0.00  0.00    +0.020 A 
ATOM      8  C   LIG    1        4.893   5.065   0.385  0.00  0.00    +0.010 A 
ATOM      9  C   LIG    1        3.641   4.723  -0.112  0.00  0.00    +0.140 A 
ATOM     10  C   LIG    1        2.843   5.689  -0.704  0.00  0.00    +0.090 A 
BRANCH   5  13
ATOM     11  N   LIG    1        2.904   9.306  -1.530  0.00  0.00    -0.730 N 
ATOM     12  H   LIG    1        3.780   9.539  -1.184  0.00  0.00    +0.400 HD
ATOM     13  C   LIG    1        2.457   8.038  -1.434  0.00  0.00    +0.560 C 
ATOM     14  O   LIG    1        1.359   7.746  -1.867  0.00  0.00    -0.530 OA
BRANCH  11  16
ATOM     15  C   LIG    1        2.803  11.674  -2.134  0.00  0.00    +0.030 C 
ATOM     16  C   LIG    1        2.066  10.333  -2.154  0.00  0.00    +0.250 C 
ENDBRANCH  11  16
ENDBRANCH   5  13
ENDBRANCH   1   9
BRANCH   3  17
ATOM     17  C   LIG    1        1.375   1.772   0.163  0.00  0.00    -0.290 A 
ATOM     18  C   LIG    1        2.123   0.626  -0.016  0.00  0.00    +0.310 A 
ATOM     19  N   LIG    1        1.290  -0.424   0.046  0.00  0.00    -0.460 N 
ATOM     20  H   LIG    1        1.554  -1.352  -0.049  0.00  0.00    +0.450 HD
ATOM     21  N   LIG    1       -0.015   0.024   0.267  0.00  0.00    -0.280 NA
ATOM     22  C   LIG    1       -0.013   1.335   0.344  0.00  0.00    +0.180 A 
BRANCH  22  23
ATOM     23  C   LIG    1       -1.191   2.208   0.566  0.00  0.00    -0.030 A 
ATOM     24  C   LIG    1       -1.065   3.373   1.322  0.00  0.00    +0.110 A 
ATOM     25  C   LIG    1       -2.163   4.185   1.520  0.00  0.00    +0.020 A 
ATOM     26  C   LIG    1       -3.390   3.839   0.981  0.00  0.00    -0.020 A 
ATOM     27  C   LIG    1       -3.521   2.680   0.235  0.00  0.00    +0.020 A 
ATOM     28 CL   LIG    1       -4.769   4.861   1.240  0.00  0.00    -0.070 Cl
ATOM     29  C   LIG    1       -2.428   1.864   0.025  0.00  0.00    +0.060 A 
ENDBRANCH  22  23
ENDBRANCH   3  17
TORSDOF 5
