REMARK  Name = ZINCtV00000tRQAT.0
REMARK                            x       y       z     vdW  Elec       q    Type
REMARK                         _______ _______ _______ _____ _____    ______ ____
ROOT
ATOM      1  C   LIG    1       -3.664   1.638   0.086  0.00  0.00    +0.400 A 
ATOM      2  C   LIG    1       -4.789   0.847   0.161  0.00  0.00    -0.150 A 
ATOM      3  C   LIG    1       -6.054   1.413   0.234  0.00  0.00    +0.060 A 
ATOM      4  C   LIG    1       -6.185   2.801   0.221  0.00  0.00    -0.040 A 
ATOM      5  C   LIG    1       -4.973   3.624   0.136  0.00  0.00    +0.330 A 
ATOM      6  N   LIG    1       -4.803   4.933   0.106  0.00  0.00    -0.490 NA
ATOM      7  C   LIG    1       -3.482   5.219   0.022  0.00  0.00    +0.100 A 
ATOM      8  C   LIG    1       -2.764   6.418  -0.039  0.00  0.00    +0.060 A 
ATOM      9  C   LIG    1       -1.391   6.389  -0.121  0.00  0.00    +0.030 A 
ATOM     10  C   LIG    1       -0.712   5.179  -0.144  0.00  0.00    +0.010 A 
ATOM     11  C   LIG    1       -1.405   3.987  -0.085  0.00  0.00    +0.050 A 
ATOM     12  C   LIG    1       -2.789   3.996  -0.002  0.00  0.00    +0.020 A 
ATOM     13  C   LIG    1       -7.275   0.535   0.322  0.00  0.00    +0.120 C 
ATOM     14  N   LIG    1       -3.750   3.002   0.071  0.00  0.00    -0.400 N 
ENDROOT
BRANCH   1  15
ATOM     15  N   LIG    1       -2.427   1.042   0.020  0.00  0.00    -0.690 N 
ATOM     16  H   LIG    1       -2.195   0.488  -0.743  0.00  0.00    +0.420 HD
BRANCH  15  20
ATOM     17  C   LIG    1        0.329   1.618   3.089  0.00  0.00    -0.110 A 
ATOM     18  C   LIG    1        0.710   0.961   1.934  0.00  0.00    +0.060 A 
ATOM     19  C   LIG    1       -0.202   0.765   0.915  0.00  0.00    -0.040 A 
ATOM     20  C   LIG    1       -1.502   1.234   1.050  0.00  0.00    +0.180 A 
ATOM     21  C   LIG    1       -1.884   1.889   2.215  0.00  0.00    -0.050 A 
ATOM     22  C   LIG    1       -0.967   2.081   3.229  0.00  0.00    +0.050 A 
BRANCH  17  23
ATOM     23  C   LIG    1        1.326   1.829   4.199  0.00  0.00    +0.060 C 
BRANCH  23  24
ATOM     24  C   LIG    1        2.051   3.159   3.986  0.00  0.00    +0.010 C 
BRANCH  24  26
ATOM     25  C   LIG    1        3.790   4.704   4.899  0.00  0.00    +0.000 C 
ATOM     26  C   LIG    1        3.064   3.374   5.112  0.00  0.00    -0.010 C 
ENDBRANCH  24  26
ENDBRANCH  23  24
ENDBRANCH  17  23
ENDBRANCH  15  20
ENDBRANCH   1  15
BRANCH   4  27
ATOM     27  C   LIG    1       -7.479   3.413   0.290  0.00  0.00    +0.270 C 
ATOM     28  N   LIG    1       -8.505   3.898   0.344  0.00  0.00    -0.400 NA
ENDBRANCH   4  27
BRANCH   2  29
ATOM     29  C   LIG    1       -4.644  -0.653   0.169  0.00  0.00    +0.100 C 
ATOM     30  C   LIG    1       -4.635  -1.157   1.613  0.00  0.00    +0.030 C 
ENDBRANCH   2  29
TORSDOF 7
