REMARK  Name = ZINCvU000000070P.0
REMARK                            x       y       z     vdW  Elec       q    Type
REMARK                         _______ _______ _______ _____ _____    ______ ____
ROOT
ATOM      1  N   LIG    1        0.565   2.986   1.778  0.00  0.00    -0.390 N 
ATOM      2  C   LIG    1        1.004   1.717   1.523  0.00  0.00    +0.020 A 
ATOM      3  C   LIG    1       -0.053   0.927   1.271  0.00  0.00    +0.000 A 
ATOM      4  C   LIG    1       -1.244   1.782   1.373  0.00  0.00    -0.260 A 
ATOM      5  C   LIG    1        2.445   1.275   1.525  0.00  0.00    +0.130 C 
ATOM      6  C   LIG    1       -0.778   3.043   1.697  0.00  0.00    +0.130 A 
ATOM      7  C   LIG    1       -1.626   4.270   1.913  0.00  0.00    +0.150 C 
ENDROOT
BRANCH   1  11
ATOM      8  C   LIG    1        3.034   6.225   2.681  0.00  0.00    +0.150 A 
ATOM      9  C   LIG    1        3.105   5.625   1.432  0.00  0.00    +0.000 A 
ATOM     10  C   LIG    1        2.288   4.553   1.133  0.00  0.00    +0.080 A 
ATOM     11  C   LIG    1        1.395   4.075   2.082  0.00  0.00    +0.060 A 
ATOM     12  C   LIG    1        1.320   4.679   3.330  0.00  0.00    +0.070 A 
ATOM     13  C   LIG    1        2.142   5.747   3.630  0.00  0.00    -0.060 A 
BRANCH   8  14
ATOM     14  O   LIG    1        3.838   7.280   2.975  0.00  0.00    -0.310 OA
BRANCH  14  16
ATOM     15  C   LIG    1        4.689   9.017   4.425  0.00  0.00    +0.070 C 
ATOM     16  C   LIG    1        3.711   7.849   4.280  0.00  0.00    +0.190 C 
ENDBRANCH  14  16
ENDBRANCH   8  14
ENDBRANCH   1  11
BRANCH   4  17
ATOM     17  C   LIG    1       -2.638   1.379   1.177  0.00  0.00    +0.450 C 
ATOM     18  O   LIG    1       -3.527   2.197   1.293  0.00  0.00    -0.460 OA
BRANCH  17  19
ATOM     19  C   LIG    1       -2.968  -0.049   0.830  0.00  0.00    +0.080 C 
BRANCH  19  20
ATOM     20  S   LIG    1       -4.760  -0.229   0.653  0.00  0.00    +0.070 S 
BRANCH  20  21
ATOM     21  C   LIG    1       -4.859  -1.943   0.260  0.00  0.00    +0.140 A 
ATOM     22  N   LIG    1       -3.852  -2.778   0.149  0.00  0.00    -0.290 NA
ATOM     23  N   LIG    1       -4.287  -3.950  -0.148  0.00  0.00    -0.280 NA
ATOM     24  C   LIG    1       -5.586  -3.934  -0.244  0.00  0.00    +0.220 A 
ATOM     25  N   LIG    1       -5.998  -2.657   0.018  0.00  0.00    -0.430 N 
BRANCH  24  26
ATOM     26  C   LIG    1       -6.472  -5.107  -0.576  0.00  0.00    +0.030 C 
ATOM     27  C   LIG    1       -5.821  -6.491  -0.628  0.00  0.00    +0.070 C 
ATOM     28  C   LIG    1       -6.253  -5.799  -1.923  0.00  0.00    +0.050 C 
ENDBRANCH  24  26
BRANCH  25  29
ATOM     29  C   LIG    1       -7.375  -2.156   0.033  0.00  0.00    +0.200 C 
ATOM     30  C   LIG    1       -7.577  -0.642  -0.043  0.00  0.00    +0.070 C 
ATOM     31  C   LIG    1       -7.832  -1.383   1.272  0.00  0.00    +0.060 C 
ENDBRANCH  25  29
ENDBRANCH  20  21
ENDBRANCH  19  20
ENDBRANCH  17  19
ENDBRANCH   4  17
TORSDOF 9
