REMARK  Name = ZINCpe000000Xryt.0
REMARK                            x       y       z     vdW  Elec       q    Type
REMARK                         _______ _______ _______ _____ _____    ______ ____
ROOT
ATOM      1  N   LIG    1        0.810  -3.973   2.380  0.00  0.00    -1.010 NA
ATOM      2  C   LIG    1       -0.141  -4.678   1.510  0.00  0.00    +0.280 C 
ATOM      3  C   LIG    1        0.363  -4.583   0.060  0.00  0.00    +0.270 C 
ATOM      4  N   LIG    1        1.778  -4.978   0.029  0.00  0.00    -0.610 N 
ATOM      5  C   LIG    1        2.729  -4.277   0.903  0.00  0.00    +0.280 C 
ATOM      6  C   LIG    1        2.196  -5.967  -0.786  0.00  0.00    +0.520 C 
ATOM      7  O   LIG    1        3.379  -6.221  -0.873  0.00  0.00    -0.530 OA
ATOM      8  C   LIG    1        2.225  -4.368   2.349  0.00  0.00    +0.290 C 
ENDROOT
BRANCH   6   9
ATOM      9  C   LIG    1        1.194  -6.756  -1.588  0.00  0.00    -0.010 C 
ATOM     10  C   LIG    1        0.892  -6.024  -2.897  0.00  0.00    +0.080 C 
ATOM     11  C   LIG    1        0.109  -6.913  -3.819  0.00  0.00    -0.050 C 
ATOM     12  C   LIG    1        0.020  -8.197  -3.684  0.00  0.00    -0.040 C 
ATOM     13  C   LIG    1        0.679  -8.976  -2.583  0.00  0.00    +0.070 C 
ATOM     14  C   LIG    1        1.776  -8.135  -1.927  0.00  0.00    +0.050 C 
ENDBRANCH   6   9
BRANCH   1  15
ATOM     15  S   LIG    1        0.296  -2.758   3.381  0.00  0.00    +2.780 S 
ATOM     16  O   LIG    1       -1.090  -2.979   3.601  0.00  0.00    -0.970 OA
ATOM     17  O   LIG    1        1.247  -2.677   4.434  0.00  0.00    -0.970 OA
BRANCH  15  21
ATOM     18  C   LIG    1       -2.001   1.218   1.146  0.00  0.00    +0.070 C 
ATOM     19  C   LIG    1       -0.968   0.619   2.102  0.00  0.00    +0.140 C 
ATOM     20  C   LIG    1       -0.710  -0.845   1.725  0.00  0.00    +0.270 C 
ATOM     21  N   LIG    1        0.415  -1.341   2.533  0.00  0.00    -1.010 NA
ATOM     22  C   LIG    1        1.649  -0.539   2.567  0.00  0.00    +0.270 C 
ATOM     23  C   LIG    1        1.276   0.909   2.902  0.00  0.00    +0.140 C 
ATOM     24  C   LIG    1        2.510   1.802   2.755  0.00  0.00    +0.070 C 
ATOM     25  O   LIG    1        0.255   1.352   2.005  0.00  0.00    -0.370 OA
ENDBRANCH  15  21
ENDBRANCH   1  15
TORSDOF 3
