REMARK  Name = ZINCrD000001YLMN.0
REMARK                            x       y       z     vdW  Elec       q    Type
REMARK                         _______ _______ _______ _____ _____    ______ ____
ROOT
ATOM      1  C   LIG    1       -1.188   1.640   0.052  0.00  0.00    +0.560 C 
ATOM      2  N   LIG    1       -0.009   0.986   0.052  0.00  0.00    -0.720 N 
ATOM      3  H   LIG    1        0.007   0.016   0.049  0.00  0.00    +0.400 HD
ATOM      4  O   LIG    1       -1.208   2.856   0.056  0.00  0.00    -0.530 OA
ENDROOT
BRANCH   1   7
ATOM      5  C   LIG    1       -4.859   0.841   0.040  0.00  0.00    +0.120 A 
ATOM      6  C   LIG    1       -3.676   1.557   0.045  0.00  0.00    +0.110 A 
ATOM      7  C   LIG    1       -2.453   0.880   0.046  0.00  0.00    -0.120 A 
ATOM      8  C   LIG    1       -2.431  -0.516   0.035  0.00  0.00    +0.040 A 
ATOM      9  C   LIG    1       -3.613  -1.225   0.035  0.00  0.00    +0.010 A 
ATOM     10  C   LIG    1       -4.828  -0.555   0.035  0.00  0.00    +0.100 A 
BRANCH   5  12
ATOM     11  C   LIG    1       -6.166   2.770  -0.446  0.00  0.00    +0.540 C 
ATOM     12  N   LIG    1       -6.086   1.515   0.040  0.00  0.00    -0.660 N 
ATOM     13  H   LIG    1       -6.879   1.079   0.389  0.00  0.00    +0.420 HD
ATOM     14  O   LIG    1       -5.197   3.280  -0.976  0.00  0.00    -0.520 OA
BRANCH  11  16
ATOM     15  C   LIG    1       -7.503   4.761  -0.815  0.00  0.00    +0.160 C 
ATOM     16  C   LIG    1       -7.424   3.523  -0.336  0.00  0.00    -0.090 C 
ENDBRANCH  11  16
ENDBRANCH   5  12
BRANCH  10  17
ATOM     17  O   LIG    1       -5.990  -1.258   0.030  0.00  0.00    -0.490 OA
ATOM     18  H   LIG    1       -6.324  -1.458  -0.855  0.00  0.00    +0.390 HD
ENDBRANCH  10  17
ENDBRANCH   1   7
BRANCH   2  19
ATOM     19  C   LIG    1        1.247   1.740   0.052  0.00  0.00    +0.330 C 
BRANCH  19  20
ATOM     20  C   LIG    1        2.409   0.780   0.046  0.00  0.00    -0.140 A 
ATOM     21  C   LIG    1        2.950   0.339   1.239  0.00  0.00    +0.070 A 
ATOM     22  C   LIG    1        4.008  -0.547   1.239  0.00  0.00    -0.010 A 
ATOM     23  C   LIG    1        4.547  -0.995   0.036  0.00  0.00    +0.120 A 
ATOM     24  O   LIG    1        5.569  -1.866  -0.192  0.00  0.00    -0.300 OA
ATOM     25  C   LIG    1        6.050  -1.688  -1.535  0.00  0.00    +0.170 C 
ATOM     26  C   LIG    1        4.799  -1.167  -2.281  0.00  0.00    +0.020 C 
ATOM     27  C   LIG    1        4.023  -2.321  -2.918  0.00  0.00    +0.050 C 
ATOM     28  C   LIG    1        6.522  -3.019  -2.123  0.00  0.00    +0.070 C 
ATOM     29  C   LIG    1        4.003  -0.534  -1.156  0.00  0.00    -0.170 A 
ATOM     30  C   LIG    1        2.941   0.342  -1.154  0.00  0.00    +0.080 A 
ENDBRANCH  19  20
ENDBRANCH   2  19
TORSDOF 6
