REMARK  Name = ZINCpe000000XpLh.0
REMARK                            x       y       z     vdW  Elec       q    Type
REMARK                         _______ _______ _______ _____ _____    ______ ____
ROOT
ATOM      1  C   LIG    1        7.640  -0.781  -1.338  0.00  0.00    +0.040 C 
ATOM      2  C   LIG    1        6.123  -0.953  -1.436  0.00  0.00    -0.020 C 
ATOM      3  C   LIG    1        5.414  -0.035  -0.423  0.00  0.00    +0.260 C 
ATOM      4  N   LIG    1        4.537   0.866  -1.195  0.00  0.00    -0.620 N 
ATOM      5  C   LIG    1        5.134   0.954  -2.548  0.00  0.00    +0.270 C 
ATOM      6  C   LIG    1        3.419   1.480  -0.760  0.00  0.00    +0.510 C 
ATOM      7  O   LIG    1        2.791   2.198  -1.509  0.00  0.00    -0.520 OA
ATOM      8  C   LIG    1        5.616  -0.489  -2.821  0.00  0.00    +0.130 C 
ENDROOT
BRANCH   8   9
ATOM      9  N   LIG    1        6.708  -0.498  -3.804  0.00  0.00    -0.520 NA
ATOM     10  C   LIG    1        6.354   0.293  -4.992  0.00  0.00    +0.150 C 
ATOM     11  C   LIG    1        7.539   0.306  -5.961  0.00  0.00    +0.220 C 
ATOM     12  O   LIG    1        7.893  -1.039  -6.292  0.00  0.00    -0.380 OA
ATOM     13  C   LIG    1        8.244  -1.838  -5.159  0.00  0.00    +0.220 C 
ATOM     14  C   LIG    1        7.066  -1.873  -4.182  0.00  0.00    +0.140 C 
ENDBRANCH   8   9
BRANCH   6  15
ATOM     15  C   LIG    1        2.948   1.273   0.656  0.00  0.00    +0.370 C 
BRANCH  15  16
ATOM     16  N   LIG    1        1.721   2.041   0.881  0.00  0.00    -0.600 N 
ATOM     17  C   LIG    1        1.656   3.425   1.364  0.00  0.00    +0.340 C 
ATOM     18  C   LIG    1        0.191   3.779   1.435  0.00  0.00    -0.080 A 
ATOM     19  C   LIG    1       -0.486   4.915   1.809  0.00  0.00    +0.030 A 
ATOM     20  C   LIG    1       -1.870   4.946   1.752  0.00  0.00    +0.040 A 
ATOM     21  C   LIG    1       -2.574   3.831   1.332  0.00  0.00    +0.000 A 
ATOM     22  C   LIG    1       -1.904   2.684   0.959  0.00  0.00    +0.090 A 
ATOM     23  C   LIG    1       -0.509   2.649   1.006  0.00  0.00    -0.160 A 
ATOM     24  C   LIG    1        0.470   1.595   0.678  0.00  0.00    +0.570 C 
ATOM     25  O   LIG    1        0.185   0.483   0.276  0.00  0.00    -0.520 OA
ENDBRANCH  15  16
ENDBRANCH   6  15
TORSDOF 3
