REMARK  Name = ZINCpe00000yKaDl.0
REMARK                            x       y       z     vdW  Elec       q    Type
REMARK                         _______ _______ _______ _____ _____    ______ ____
ROOT
ATOM      1  C   LIG    1       -1.282  -4.038   0.545  0.00  0.00    +0.170 C 
ATOM      2  C   LIG    1       -0.080  -5.003   0.368  0.00  0.00    +0.080 C 
ATOM      3  C   LIG    1        1.075  -4.053  -0.014  0.00  0.00    +0.220 C 
ATOM      4  N   LIG    1        0.470  -2.824  -0.549  0.00  0.00    -0.610 N 
ATOM      5  C   LIG    1        1.144  -1.738  -0.975  0.00  0.00    +0.610 C 
ATOM      6  O   LIG    1        2.361  -1.730  -0.954  0.00  0.00    -0.520 OA
ATOM      7  C   LIG    1       -0.996  -2.980  -0.549  0.00  0.00    +0.230 C 
ENDROOT
BRANCH   5   8
ATOM      8  C   LIG    1        0.412  -0.564  -1.463  0.00  0.00    -0.040 A 
ATOM      9  C   LIG    1        0.957   0.661  -1.783  0.00  0.00    +0.070 A 
ATOM     10  C   LIG    1       -0.096   1.482  -2.203  0.00  0.00    -0.130 A 
ATOM     11  C   LIG    1       -1.240   0.759  -2.133  0.00  0.00    +0.220 A 
ATOM     12 CL   LIG    1        0.040   3.133  -2.722  0.00  0.00    -0.040 Cl
ATOM     13  N   LIG    1       -0.944  -0.487  -1.685  0.00  0.00    -0.540 N 
ATOM     14  H   LIG    1       -1.583  -1.203  -1.543  0.00  0.00    +0.420 HD
ENDBRANCH   5   8
BRANCH   1  16
ATOM     15  C   LIG    1       -2.560  -2.994   2.284  0.00  0.00    +0.210 C 
ATOM     16  O   LIG    1       -1.277  -3.445   1.846  0.00  0.00    -0.370 OA
ENDBRANCH   1  16
BRANCH   3  17
ATOM     17  C   LIG    1        1.958  -4.705  -1.080  0.00  0.00    +0.260 C 
BRANCH  17  18
ATOM     18  N   LIG    1        3.211  -3.956  -1.200  0.00  0.00    -0.720 N 
ATOM     19  H   LIG    1        3.413  -3.244  -0.573  0.00  0.00    +0.410 HD
ATOM     20  C   LIG    1        4.084  -4.257  -2.182  0.00  0.00    +0.520 C 
ATOM     21  O   LIG    1        3.832  -5.147  -2.966  0.00  0.00    -0.540 OA
BRANCH  20  22
ATOM     22  C   LIG    1        5.374  -3.487  -2.305  0.00  0.00    +0.210 C 
BRANCH  22  23
ATOM     23  N   LIG    1        6.144  -4.002  -3.445  0.00  0.00    -0.490 NA
ATOM     24  C   LIG    1        5.350  -3.941  -4.695  0.00  0.00    +0.210 C 
ATOM     25  C   LIG    1        6.345  -3.621  -5.786  0.00  0.00    -0.030 C 
ATOM     26  C   LIG    1        7.447  -3.158  -5.250  0.00  0.00    -0.030 C 
ATOM     27  C   LIG    1        7.299  -3.123  -3.747  0.00  0.00    +0.200 C 
ENDBRANCH  22  23
ENDBRANCH  20  22
ENDBRANCH  17  18
ENDBRANCH   3  17
TORSDOF 6
