REMARK  Name = ZINCpk00000jUrF9.0
REMARK                            x       y       z     vdW  Elec       q    Type
REMARK                         _______ _______ _______ _____ _____    ______ ____
ROOT
ATOM      1  C   LIG    1        2.003   4.975   1.176  0.00  0.00    +0.200 C 
ATOM      2  C   LIG    1        1.637   3.472   1.091  0.00  0.00    +0.170 C 
ATOM      3  N   LIG    1        2.034   2.950   2.424  0.00  0.00    -0.490 NA
ATOM      4  C   LIG    1        1.656   3.998   3.396  0.00  0.00    +0.180 C 
ATOM      5  C   LIG    1        1.643   5.337   2.635  0.00  0.00    +0.180 C 
ENDROOT
BRANCH   5   6
ATOM      6  O   LIG    1        2.618   6.228   3.180  0.00  0.00    -0.560 OA
ATOM      7  H   LIG    1        2.467   6.455   4.108  0.00  0.00    +0.390 HD
ENDBRANCH   5   6
BRANCH   1   8
ATOM      8  O   LIG    1        1.222   5.742   0.257  0.00  0.00    -0.290 OA
BRANCH   8  11
ATOM      9  N   LIG    1        2.109   6.799  -2.973  0.00  0.00    -0.360 N 
ATOM     10  C   LIG    1        1.216   6.740  -1.950  0.00  0.00    +0.200 A 
ATOM     11  C   LIG    1        1.789   6.029  -0.948  0.00  0.00    -0.030 A 
ATOM     12  C   LIG    1        3.071   5.648  -1.367  0.00  0.00    +0.180 A 
ATOM     13  N   LIG    1        3.259   6.103  -2.580  0.00  0.00    -0.260 NA
BRANCH   9  15
ATOM     14  C   LIG    1        3.040   8.469  -4.498  0.00  0.00    +0.040 C 
ATOM     15  C   LIG    1        1.905   7.471  -4.258  0.00  0.00    +0.330 C 
ENDBRANCH   9  15
ENDBRANCH   8  11
ENDBRANCH   1   8
BRANCH   3  16
ATOM     16  C   LIG    1        1.347   1.685   2.720  0.00  0.00    +0.340 C 
BRANCH  16  17
ATOM     17  C   LIG    1       -0.122   1.828   2.416  0.00  0.00    +0.240 A 
ATOM     18  N   LIG    1       -1.023   2.228   3.264  0.00  0.00    -0.480 NA
ATOM     19  C   LIG    1       -2.241   2.242   2.664  0.00  0.00    +0.040 A 
ATOM     20  C   LIG    1       -3.526   2.579   3.098  0.00  0.00    +0.070 A 
ATOM     21  C   LIG    1       -4.579   2.502   2.232  0.00  0.00    +0.000 A 
ATOM     22  C   LIG    1       -4.390   2.079   0.924  0.00  0.00    +0.030 A 
ATOM     23  C   LIG    1       -3.132   1.738   0.474  0.00  0.00    +0.010 A 
ATOM     24  C   LIG    1       -2.049   1.818   1.338  0.00  0.00    +0.050 A 
ATOM     25  N   LIG    1       -0.698   1.558   1.213  0.00  0.00    -0.490 N 
ATOM     26  C   LIG    1       -0.013   1.086   0.008  0.00  0.00    +0.330 C 
ENDBRANCH  16  17
ENDBRANCH   3  16
TORSDOF 6
