REMARK  Name = ZINCpk00000KfKxl.0
REMARK                            x       y       z     vdW  Elec       q    Type
REMARK                         _______ _______ _______ _____ _____    ______ ____
ROOT
ATOM      1  C   LIG    1       -2.184   1.107   1.276  0.00  0.00    +0.010 C 
ATOM      2  C   LIG    1       -2.225  -0.419   1.393  0.00  0.00    +0.040 C 
ATOM      3  C   LIG    1       -3.682  -0.888   1.342  0.00  0.00    +0.040 C 
ATOM      4  C   LIG    1       -4.323  -0.404   0.039  0.00  0.00    +0.160 C 
ATOM      5  N   LIG    1       -4.259   1.061  -0.025  0.00  0.00    -0.530 NA
ATOM      6  C   LIG    1       -2.868   1.533  -0.025  0.00  0.00    +0.190 C 
ENDROOT
BRANCH   1  12
ATOM      7  C   LIG    1        1.122   2.231   4.421  0.00  0.00    +0.340 C 
ATOM      8  N   LIG    1        0.383   2.224   3.156  0.00  0.00    -0.580 N 
ATOM      9  C   LIG    1        0.010   3.327   2.497  0.00  0.00    +0.700 C 
ATOM     10  N   LIG    1       -0.657   3.047   1.362  0.00  0.00    -0.720 N 
ATOM     11  H   LIG    1       -1.019   3.688   0.730  0.00  0.00    +0.440 HD
ATOM     12  C   LIG    1       -0.729   1.579   1.267  0.00  0.00    +0.130 C 
ATOM     13  C   LIG    1       -0.013   1.086   0.008  0.00  0.00    +0.090 C 
ATOM     14  O   LIG    1        0.247   4.455   2.881  0.00  0.00    -0.540 OA
ATOM     15  C   LIG    1       -0.006   1.105   2.512  0.00  0.00    +0.530 C 
ATOM     16  O   LIG    1        0.184  -0.041   2.857  0.00  0.00    -0.460 OA
ENDBRANCH   1  12
BRANCH   5  17
ATOM     17  C   LIG    1       -4.987   1.570  -1.195  0.00  0.00    +0.340 C 
BRANCH  17  18
ATOM     18  C   LIG    1       -6.457   1.281  -1.036  0.00  0.00    +0.160 A 
ATOM     19  N   LIG    1       -7.338   2.056  -0.468  0.00  0.00    -0.260 NA
ATOM     20  N   LIG    1       -8.494   1.493  -0.515  0.00  0.00    -0.280 NA
ATOM     21  C   LIG    1       -8.389   0.337  -1.106  0.00  0.00    +0.180 A 
ATOM     22  O   LIG    1       -7.100   0.176  -1.449  0.00  0.00    -0.230 OA
BRANCH  21  23
ATOM     23  C   LIG    1       -9.508  -0.640  -1.359  0.00  0.00    +0.090 C 
ATOM     24  C   LIG    1      -10.841   0.032  -1.727  0.00  0.00    +0.060 C 
ATOM     25  C   LIG    1      -11.527  -1.025  -0.845  0.00  0.00    +0.030 C 
ATOM     26  C   LIG    1      -10.200  -1.130  -0.075  0.00  0.00    +0.050 C 
ENDBRANCH  21  23
ENDBRANCH  17  18
ENDBRANCH   5  17
TORSDOF 4
