REMARK  Name = ZINCrD0000071W2m.0
REMARK                            x       y       z     vdW  Elec       q    Type
REMARK                         _______ _______ _______ _____ _____    ______ ____
ROOT
ATOM      1  C   LIG    1        1.451  -6.182   3.930  0.00  0.00    -0.130 A 
ATOM      2  C   LIG    1        0.819  -5.737   2.771  0.00  0.00    +0.230 A 
ATOM      3  C   LIG    1        0.545  -4.380   2.611  0.00  0.00    -0.130 A 
ATOM      4  C   LIG    1        0.896  -3.476   3.618  0.00  0.00    +0.210 A 
ATOM      5  C   LIG    1        1.518  -3.925   4.767  0.00  0.00    -0.060 A 
ATOM      6  C   LIG    1        1.796  -5.268   4.929  0.00  0.00    +0.210 A 
ENDROOT
BRANCH   5   7
ATOM      7  N   LIG    1        1.886  -2.963   5.829  0.00  0.00    +0.030 N 
ATOM      8  O   LIG    1        2.434  -3.356   6.844  0.00  0.00    -0.140 OA
ATOM      9  O   LIG    1        1.641  -1.778   5.689  0.00  0.00    -0.140 OA
ENDBRANCH   5   7
BRANCH   1  10
ATOM     10  C   LIG    1        1.749  -7.618   4.106  0.00  0.00    +0.520 C 
ATOM     11  O   LIG    1        1.448  -8.412   3.237  0.00  0.00    -0.490 OA
BRANCH  10  12
ATOM     12  O   LIG    1        2.355  -8.048   5.230  0.00  0.00    -0.350 OA
BRANCH  12  14
ATOM     13  C   LIG    1        3.305  -9.768   6.669  0.00  0.00    +0.070 C 
ATOM     14  C   LIG    1        2.618  -9.472   5.334  0.00  0.00    +0.220 C 
ENDBRANCH  12  14
ENDBRANCH  10  12
ENDBRANCH   1  10
BRANCH   3  15
ATOM     15  C   LIG    1       -0.119  -3.897   1.383  0.00  0.00    +0.520 C 
ATOM     16  O   LIG    1       -0.423  -4.684   0.509  0.00  0.00    -0.480 OA
BRANCH  15  17
ATOM     17  O   LIG    1       -0.387  -2.586   1.233  0.00  0.00    -0.340 OA
BRANCH  17  18
ATOM     18  C   LIG    1       -1.041  -2.184   0.000  0.00  0.00    +0.260 C 
BRANCH  18  19
ATOM     19  C   LIG    1       -1.262  -0.670   0.011  0.00  0.00    +0.230 C 
BRANCH  19  20
ATOM     20  O   LIG    1        0.002  -0.004   0.002  0.00  0.00    -0.310 OA
BRANCH  20  21
ATOM     21  C   LIG    1       -0.016   1.355   0.009  0.00  0.00    +0.120 A 
ATOM     22  C   LIG    1       -1.226   2.033   0.019  0.00  0.00    -0.080 A 
ATOM     23  C   LIG    1       -1.242   3.414   0.031  0.00  0.00    +0.050 A 
ATOM     24  C   LIG    1       -0.054   4.121   0.024  0.00  0.00    -0.120 A 
ATOM     25  C   LIG    1        1.153   3.447   0.009  0.00  0.00    +0.050 A 
ATOM     26  C   LIG    1       -0.074   5.628   0.032  0.00  0.00    +0.100 C 
ATOM     27  C   LIG    1        1.175   2.066   0.002  0.00  0.00    -0.010 A 
ENDBRANCH  20  21
ENDBRANCH  19  20
ENDBRANCH  18  19
ENDBRANCH  17  18
ENDBRANCH  15  17
ENDBRANCH   3  15
TORSDOF 10
