REMARK  Name = ZINCrH000004muJI.0
REMARK                            x       y       z     vdW  Elec       q    Type
REMARK                         _______ _______ _______ _____ _____    ______ ____
ROOT
ATOM      1  C   LIG    1        3.063   3.860  -3.365  0.00  0.00    +0.170 A 
ATOM      2  C   LIG    1        4.425   4.134  -3.452  0.00  0.00    -0.040 A 
ATOM      3  C   LIG    1        5.332   3.332  -2.820  0.00  0.00    +0.130 A 
ATOM      4  C   LIG    1        4.896   2.228  -2.079  0.00  0.00    -0.150 A 
ATOM      5  C   LIG    1        3.522   1.949  -1.989  0.00  0.00    +0.130 A 
ATOM      6  C   LIG    1        2.613   2.767  -2.639  0.00  0.00    -0.010 A 
ENDROOT
BRANCH   1   8
ATOM      7  C   LIG    1        2.700   5.769  -4.732  0.00  0.00    +0.250 C 
ATOM      8  O   LIG    1        2.171   4.664  -3.997  0.00  0.00    -0.300 OA
ENDBRANCH   1   8
BRANCH   4   9
ATOM      9  C   LIG    1        5.872   1.363  -1.398  0.00  0.00    +0.430 C 
ATOM     10  O   LIG    1        6.411   1.743  -0.376  0.00  0.00    -0.400 OA
BRANCH   9  11
ATOM     11  C   LIG    1        6.197   0.033  -1.955  0.00  0.00    -0.170 A 
ATOM     12  C   LIG    1        5.663  -0.362  -3.183  0.00  0.00    +0.070 A 
ATOM     13  C   LIG    1        5.975  -1.602  -3.700  0.00  0.00    +0.000 A 
ATOM     14  C   LIG    1        6.807  -2.458  -2.999  0.00  0.00    +0.050 A 
ATOM     15  C   LIG    1        7.335  -2.075  -1.779  0.00  0.00    +0.000 A 
ATOM     16  C   LIG    1        7.035  -0.836  -1.253  0.00  0.00    +0.080 A 
ENDBRANCH   9  11
ENDBRANCH   4   9
BRANCH   5  17
ATOM     17  O   LIG    1        3.088   0.881  -1.274  0.00  0.00    -0.650 OA
BRANCH  17  18
ATOM     18  S   LIG    1        2.803   1.190   0.189  0.00  0.00    +2.670 S 
ATOM     19  O   LIG    1        2.560  -0.059   0.823  0.00  0.00    -0.910 OA
ATOM     20  O   LIG    1        3.816   2.092   0.613  0.00  0.00    -0.920 OA
BRANCH  18  21
ATOM     21  C   LIG    1        1.285   2.081   0.248  0.00  0.00    -0.760 A 
ATOM     22  C   LIG    1        0.079   1.407   0.372  0.00  0.00    +0.220 A 
ATOM     23  C   LIG    1       -1.091   2.149   0.408  0.00  0.00    -0.020 A 
ATOM     24  C   LIG    1       -1.017   3.528   0.333  0.00  0.00    +0.230 A 
ATOM     25  N   LIG    1        0.148   4.136   0.215  0.00  0.00    -0.480 NA
ATOM     26 CL   LIG    1       -2.475   4.470   0.384  0.00  0.00    -0.010 Cl
ATOM     27  C   LIG    1        1.280   3.461   0.172  0.00  0.00    +0.410 A 
ENDBRANCH  18  21
ENDBRANCH  17  18
ENDBRANCH   5  17
TORSDOF 6
