REMARK  Name = ZINCrD0000075IzE.0
REMARK                            x       y       z     vdW  Elec       q    Type
REMARK                         _______ _______ _______ _____ _____    ______ ____
ROOT
ATOM      1  O   LIG    1       -2.487  -0.209   0.014  0.00  0.00    -0.530 OA
ATOM      2  C   LIG    1       -2.501   1.006   0.020  0.00  0.00    +0.560 C 
ATOM      3  N   LIG    1       -3.676   1.666   0.029  0.00  0.00    -0.720 N 
ATOM      4  H   LIG    1       -3.687   2.636   0.034  0.00  0.00    +0.400 HD
ENDROOT
BRANCH   2   5
ATOM      5  C   LIG    1       -1.232   1.759   0.017  0.00  0.00    -0.140 A 
ATOM      6  C   LIG    1       -0.013   1.076   0.008  0.00  0.00    +0.090 A 
ATOM      7  C   LIG    1        1.169   1.781   0.001  0.00  0.00    -0.030 A 
ATOM      8  C   LIG    1        1.151   3.173   0.008  0.00  0.00    +0.110 A 
ATOM      9  C   LIG    1       -0.062   3.856   0.022  0.00  0.00    +0.040 A 
ATOM     10  C   LIG    1       -1.247   3.157   0.030  0.00  0.00    +0.050 A 
BRANCH   8  11
ATOM     11  N   LIG    1        2.347   3.882   0.001  0.00  0.00    -0.480 N 
ATOM     12  C   LIG    1        3.146   3.563  -1.202  0.00  0.00    +0.190 C 
ATOM     13  C   LIG    1        4.628   3.615  -0.788  0.00  0.00    -0.010 C 
ATOM     14  C   LIG    1        4.614   3.950   0.721  0.00  0.00    +0.180 C 
ATOM     15  C   LIG    1        3.196   3.507   1.161  0.00  0.00    +0.200 C 
BRANCH  14  16
ATOM     16  O   LIG    1        5.617   3.205   1.414  0.00  0.00    -0.560 OA
ATOM     17  H   LIG    1        6.519   3.392   1.119  0.00  0.00    +0.380 HD
ENDBRANCH  14  16
ENDBRANCH   8  11
ENDBRANCH   2   5
BRANCH   3  18
ATOM     18  C   LIG    1       -4.936   0.919   0.031  0.00  0.00    +0.410 C 
BRANCH  18  19
ATOM     19  C   LIG    1       -6.028   1.773  -0.559  0.00  0.00    -0.100 A 
ATOM     20  C   LIG    1       -6.093   3.120  -0.255  0.00  0.00    +0.010 A 
ATOM     21  C   LIG    1       -7.092   3.905  -0.800  0.00  0.00    +0.010 A 
ATOM     22  C   LIG    1       -8.031   3.341  -1.643  0.00  0.00    +0.020 A 
ATOM     23  C   LIG    1       -7.970   1.993  -1.943  0.00  0.00    +0.010 A 
ATOM     24  C   LIG    1       -6.968   1.209  -1.401  0.00  0.00    +0.030 A 
ENDBRANCH  18  19
BRANCH  18  25
ATOM     25  C   LIG    1       -5.298   0.549   1.447  0.00  0.00    -0.020 A 
ATOM     26  C   LIG    1       -5.822  -0.624   1.843  0.00  0.00    -0.040 A 
ATOM     27  C   LIG    1       -6.002  -0.540   3.243  0.00  0.00    -0.060 A 
ATOM     28  C   LIG    1       -5.577   0.680   3.618  0.00  0.00    +0.160 A 
ATOM     29  O   LIG    1       -5.146   1.333   2.527  0.00  0.00    -0.170 OA
ENDBRANCH  18  25
ENDBRANCH   3  18
TORSDOF 6
