REMARK  Name = ZINCrH000004rZIY.0
REMARK                            x       y       z     vdW  Elec       q    Type
REMARK                         _______ _______ _______ _____ _____    ______ ____
ROOT
ATOM      1  N   LIG    1       -1.631   2.462   1.409  0.00  0.00    -0.530 NA
ATOM      2  C   LIG    1       -2.084   1.237   2.083  0.00  0.00    +0.150 C 
ATOM      3  C   LIG    1       -2.417   1.555   3.544  0.00  0.00    +0.220 C 
ATOM      4  O   LIG    1       -3.408   2.587   3.587  0.00  0.00    -0.370 OA
ATOM      5  C   LIG    1       -3.018   3.787   2.924  0.00  0.00    +0.170 C 
ATOM      6  C   LIG    1       -1.806   4.412   3.639  0.00  0.00    +0.030 C 
ATOM      7  C   LIG    1       -2.071   5.925   3.472  0.00  0.00    +0.080 C 
ATOM      8  C   LIG    1       -3.572   6.051   3.326  0.00  0.00    -0.080 A 
ATOM      9  C   LIG    1       -4.396   7.155   3.458  0.00  0.00    +0.010 A 
ATOM     10  C   LIG    1       -5.760   7.031   3.277  0.00  0.00    +0.020 A 
ATOM     11  C   LIG    1       -6.305   5.801   2.962  0.00  0.00    +0.000 A 
ATOM     12  C   LIG    1       -5.484   4.698   2.829  0.00  0.00    +0.040 A 
ATOM     13  C   LIG    1       -4.117   4.819   3.010  0.00  0.00    -0.090 A 
ATOM     14  C   LIG    1       -2.671   3.501   1.466  0.00  0.00    +0.190 C 
ENDROOT
BRANCH   1  15
ATOM     15  C   LIG    1       -1.240   2.184   0.020  0.00  0.00    +0.350 C 
BRANCH  15  19
ATOM     16  C   LIG    1        1.309  -0.349  -0.012  0.00  0.00    +0.220 A 
ATOM     17  N   LIG    1        2.002   0.760  -0.013  0.00  0.00    -0.370 NA
ATOM     18  O   LIG    1        1.256   1.716  -0.001  0.00  0.00    +0.090 OA
ATOM     19  C   LIG    1       -0.016   1.306   0.009  0.00  0.00    +0.200 A 
ATOM     20  N   LIG    1        0.002  -0.004   0.002  0.00  0.00    -0.470 NA
BRANCH  16  27
ATOM     21  C   LIG    1        4.173  -0.757  -0.042  0.00  0.00    +0.100 C 
ATOM     22  C   LIG    1        3.234  -1.935  -0.040  0.00  0.00    -0.050 A 
ATOM     23  C   LIG    1        3.737  -3.220  -0.052  0.00  0.00    +0.000 A 
ATOM     24  C   LIG    1        2.876  -4.303  -0.050  0.00  0.00    +0.040 A 
ATOM     25  C   LIG    1        1.507  -4.104  -0.036  0.00  0.00    +0.000 A 
ATOM     26  C   LIG    1        0.993  -2.823  -0.018  0.00  0.00    +0.060 A 
ATOM     27  C   LIG    1        1.856  -1.729  -0.025  0.00  0.00    -0.030 A 
ENDBRANCH  16  27
ENDBRANCH  15  19
ENDBRANCH   1  15
TORSDOF 3
