REMARK  Name = ZINCpk00000y6yCk.0
REMARK                            x       y       z     vdW  Elec       q    Type
REMARK                         _______ _______ _______ _____ _____    ______ ____
ROOT
ATOM      1  C   LIG    1        2.536   1.526  -0.013  0.00  0.00    +0.080 C 
ATOM      2  C   LIG    1        2.698   0.254  -0.848  0.00  0.00    +0.030 C 
ATOM      3  C   LIG    1        4.175  -0.146  -0.890  0.00  0.00    +0.020 C 
ATOM      4  C   LIG    1        4.662  -0.436   0.532  0.00  0.00    +0.260 C 
ATOM      5  N   LIG    1        4.378   0.732   1.377  0.00  0.00    -0.610 N 
ATOM      6  C   LIG    1        5.357   1.312   2.099  0.00  0.00    +0.540 C 
ATOM      7  O   LIG    1        5.109   2.276   2.793  0.00  0.00    -0.520 OA
ATOM      8  C   LIG    1        3.006   1.256   1.420  0.00  0.00    +0.290 C 
ENDROOT
BRANCH   1  11
ATOM      9  C   LIG    1       -1.125   1.900   0.017  0.00  0.00    -0.050 A 
ATOM     10  C   LIG    1       -0.013   1.076   0.008  0.00  0.00    +0.030 A 
ATOM     11  C   LIG    1        1.087   1.938   0.002  0.00  0.00    +0.030 A 
ATOM     12  N   LIG    1        0.634   3.166   0.012  0.00  0.00    -0.250 NA
ATOM     13  N   LIG    1       -0.650   3.181   0.024  0.00  0.00    -0.380 N 
ATOM     14  H   LIG    1       -1.200   3.980   0.033  0.00  0.00    +0.440 HD
BRANCH   9  18
ATOM     15  N   LIG    1       -3.514   2.406   0.030  0.00  0.00    -0.850 N 
ATOM     16  H   LIG    1       -4.444   2.130   0.033  0.00  0.00    +0.410 HD
ATOM     17  H   LIG    1       -3.289   3.350   0.034  0.00  0.00    +0.400 HD
ATOM     18  C   LIG    1       -2.535   1.480   0.021  0.00  0.00    +0.600 C 
ATOM     19  O   LIG    1       -2.817   0.297   0.017  0.00  0.00    -0.520 OA
ENDBRANCH   9  18
ENDBRANCH   1  11
BRANCH   6  20
ATOM     20  C   LIG    1        6.760   0.764   2.045  0.00  0.00    -0.050 C 
ATOM     21  C   LIG    1        7.828   1.622   1.365  0.00  0.00    +0.070 C 
ATOM     22  C   LIG    1        7.826   1.466   2.887  0.00  0.00    +0.040 C 
BRANCH  22  23
ATOM     23  C   LIG    1        7.394   2.654   3.707  0.00  0.00    -0.100 A 
ATOM     24  C   LIG    1        7.537   2.644   5.086  0.00  0.00    +0.060 A 
ATOM     25  C   LIG    1        7.126   3.760   5.800  0.00  0.00    -0.050 A 
ATOM     26  C   LIG    1        6.591   4.836   5.119  0.00  0.00    +0.250 A 
ATOM     27  N   LIG    1        6.470   4.811   3.806  0.00  0.00    -0.490 NA
ATOM     28  C   LIG    1        6.855   3.770   3.094  0.00  0.00    +0.300 A 
ENDBRANCH  22  23
ENDBRANCH   6  20
TORSDOF 4
