REMARK  Name = ZINCqH0000007iBO.0
REMARK                            x       y       z     vdW  Elec       q    Type
REMARK                         _______ _______ _______ _____ _____    ______ ____
ROOT
ATOM      1  C   LIG    1        4.987  -0.182  -5.696  0.00  0.00    +0.120 A 
ATOM      2  C   LIG    1        3.828   0.504  -5.370  0.00  0.00    -0.050 A 
ATOM      3  C   LIG    1        3.496   0.713  -4.044  0.00  0.00    +0.030 A 
ATOM      4  C   LIG    1        4.329   0.246  -3.036  0.00  0.00    +0.110 A 
ATOM      5  C   LIG    1        5.491  -0.442  -3.357  0.00  0.00    +0.080 A 
ATOM      6  C   LIG    1        5.822  -0.657  -4.686  0.00  0.00    +0.120 A 
ENDROOT
BRANCH   6   7
ATOM      7  N   LIG    1        6.994  -1.350  -5.014  0.00  0.00    -0.550 N 
ATOM      8  C   LIG    1        6.914  -2.799  -5.157  0.00  0.00    +0.270 C 
ATOM      9  C   LIG    1        8.109  -3.325  -5.952  0.00  0.00    +0.040 C 
ATOM     10  C   LIG    1        9.396  -2.764  -5.335  0.00  0.00    +0.030 C 
ATOM     11  C   LIG    1        9.427  -1.252  -5.575  0.00  0.00    +0.070 C 
ATOM     12  C   LIG    1        8.112  -0.643  -5.181  0.00  0.00    +0.520 C 
ATOM     13  O   LIG    1        8.066   0.555  -5.002  0.00  0.00    -0.540 OA
ENDBRANCH   6   7
BRANCH   4  14
ATOM     14  N   LIG    1        3.993   0.464  -1.693  0.00  0.00    -0.670 N 
ATOM     15  H   LIG    1        3.063   0.455  -1.418  0.00  0.00    +0.410 HD
ATOM     16  C   LIG    1        4.962   0.687  -0.784  0.00  0.00    +0.510 C 
ATOM     17  O   LIG    1        6.128   0.616  -1.111  0.00  0.00    -0.500 OA
BRANCH  16  18
ATOM     18  C   LIG    1        4.597   1.025   0.639  0.00  0.00    +0.120 C 
BRANCH  18  19
ATOM     19  C   LIG    1        5.854   1.225   1.446  0.00  0.00    -0.070 A 
ATOM     20  C   LIG    1        6.380   0.177   2.178  0.00  0.00    +0.020 A 
ATOM     21  C   LIG    1        7.533   0.361   2.918  0.00  0.00    -0.010 A 
ATOM     22  C   LIG    1        8.160   1.592   2.926  0.00  0.00    +0.010 A 
ATOM     23  C   LIG    1        7.637   2.639   2.190  0.00  0.00    +0.000 A 
ATOM     24  C   LIG    1        6.481   2.457   1.454  0.00  0.00    -0.070 A 
ATOM     25  C   LIG    1        5.909   3.600   0.656  0.00  0.00    +0.080 C 
ENDBRANCH  18  19
ENDBRANCH  16  18
ENDBRANCH   4  14
BRANCH   1  27
ATOM     26  C   LIG    1        4.407   0.122  -7.982  0.00  0.00    +0.250 C 
ATOM     27  O   LIG    1        5.309  -0.392  -7.000  0.00  0.00    -0.310 OA
ENDBRANCH   1  27
TORSDOF 5
