REMARK  Name = ZINCqH0000039Bt2.0
REMARK                            x       y       z     vdW  Elec       q    Type
REMARK                         _______ _______ _______ _____ _____    ______ ____
ROOT
ATOM      1  O   LIG    1        0.201   0.289   1.399  0.00  0.00    -0.570 OA
ATOM      2  C   LIG    1        0.082   1.387   0.888  0.00  0.00    +0.700 C 
ATOM      3  N   LIG    1        1.115   1.933   0.217  0.00  0.00    -0.680 N 
ATOM      4  H   LIG    1        1.000   2.777  -0.247  0.00  0.00    +0.410 HD
ATOM      5  N   LIG    1       -1.084   2.055   0.990  0.00  0.00    -0.740 N 
ATOM      6  H   LIG    1       -1.179   2.930   0.583  0.00  0.00    +0.400 HD
ENDROOT
BRANCH   3   7
ATOM      7  C   LIG    1        2.354   1.283   0.190  0.00  0.00    +0.190 A 
ATOM      8  C   LIG    1        2.412  -0.105   0.187  0.00  0.00    +0.020 A 
ATOM      9  C   LIG    1        3.636  -0.744   0.154  0.00  0.00    +0.030 A 
ATOM     10  C   LIG    1        4.803  -0.003   0.136  0.00  0.00    -0.020 A 
ATOM     11  C   LIG    1        4.750   1.379   0.144  0.00  0.00    +0.020 A 
ATOM     12  C   LIG    1        3.529   2.023   0.171  0.00  0.00    -0.110 A 
BRANCH  12  13
ATOM     13  C   LIG    1        3.471   3.529   0.180  0.00  0.00    +0.230 C 
BRANCH  13  14
ATOM     14  N   LIG    1        3.061   4.012  -1.145  0.00  0.00    -0.550 NA
ATOM     15  C   LIG    1        4.118   3.791  -2.134  0.00  0.00    +0.200 C 
ATOM     16  C   LIG    1        3.534   3.879  -3.549  0.00  0.00    +0.130 C 
ATOM     17  S   LIG    1        2.870   5.554  -3.796  0.00  0.00    -0.270 S 
ATOM     18  C   LIG    1        1.810   5.758  -2.331  0.00  0.00    +0.120 C 
ATOM     19  C   LIG    1        2.631   5.411  -1.085  0.00  0.00    +0.190 C 
ENDBRANCH  13  14
ENDBRANCH  12  13
ENDBRANCH   3   7
BRANCH   5  20
ATOM     20  C   LIG    1       -2.209   1.458   1.715  0.00  0.00    +0.280 C 
BRANCH  20  21
ATOM     21  C   LIG    1       -3.402   2.415   1.680  0.00  0.00    +0.080 C 
BRANCH  21  22
ATOM     22  C   LIG    1       -4.560   1.802   2.426  0.00  0.00    -0.060 A 
ATOM     23  C   LIG    1       -5.475   1.014   1.754  0.00  0.00    +0.010 A 
ATOM     24  C   LIG    1       -6.534   0.446   2.437  0.00  0.00    +0.050 A 
ATOM     25  C   LIG    1       -6.685   0.676   3.792  0.00  0.00    -0.010 A 
ATOM     26  C   LIG    1       -5.772   1.470   4.465  0.00  0.00    +0.100 A 
ATOM     27  F   LIG    1       -5.919   1.694   5.789  0.00  0.00    -0.140 F 
ATOM     28  C   LIG    1       -4.709   2.033   3.780  0.00  0.00    -0.010 A 
ENDBRANCH  21  22
ENDBRANCH  20  21
ENDBRANCH   5  20
TORSDOF 6
