REMARK  Name = ZINCvU0000000F5A.0
REMARK                            x       y       z     vdW  Elec       q    Type
REMARK                         _______ _______ _______ _____ _____    ______ ____
ROOT
ATOM      1  N   LIG    1        3.644  -0.277  -0.055  0.00  0.00    -0.540 N 
ATOM      2  C   LIG    1        3.391  -1.584   0.026  0.00  0.00    +0.530 C 
ATOM      3  C   LIG    1        4.462  -2.633   0.109  0.00  0.00    +0.070 C 
ATOM      4  C   LIG    1        5.804  -2.044  -0.334  0.00  0.00    +0.060 C 
ATOM      5  C   LIG    1        6.016  -0.714   0.399  0.00  0.00    -0.010 C 
ATOM      6  O   LIG    1        2.233  -1.946   0.028  0.00  0.00    -0.530 OA
ATOM      7  C   LIG    1        4.984   0.294  -0.108  0.00  0.00    +0.310 C 
ENDROOT
BRANCH   1  11
ATOM      8  C   LIG    1        0.399   2.340  -0.145  0.00  0.00    +0.130 A 
ATOM      9  C   LIG    1        0.758   1.721   1.044  0.00  0.00    -0.070 A 
ATOM     10  C   LIG    1        1.832   0.855   1.074  0.00  0.00    +0.080 A 
ATOM     11  C   LIG    1        2.553   0.602  -0.085  0.00  0.00    +0.110 A 
ATOM     12  C   LIG    1        2.193   1.222  -1.274  0.00  0.00    +0.040 A 
ATOM     13  C   LIG    1        1.119   2.088  -1.303  0.00  0.00    +0.000 A 
BRANCH   8  15
ATOM     14  C   LIG    1       -1.352   3.410   1.057  0.00  0.00    +0.250 C 
ATOM     15  O   LIG    1       -0.656   3.198  -0.173  0.00  0.00    -0.320 OA
ENDBRANCH   8  15
ENDBRANCH   1  11
BRANCH   7  16
ATOM     16  C   LIG    1        5.032   1.531   0.751  0.00  0.00    -0.090 A 
ATOM     17  C   LIG    1        4.088   2.527   0.582  0.00  0.00    +0.030 A 
ATOM     18  C   LIG    1        4.130   3.660   1.373  0.00  0.00    +0.000 A 
ATOM     19  C   LIG    1        5.121   3.802   2.326  0.00  0.00    +0.010 A 
ATOM     20  C   LIG    1        6.068   2.808   2.491  0.00  0.00    +0.000 A 
ATOM     21  C   LIG    1        6.024   1.673   1.703  0.00  0.00    +0.010 A 
ENDBRANCH   7  16
BRANCH   5  22
ATOM     22  C   LIG    1        5.836  -0.919   1.881  0.00  0.00    +0.510 C 
ATOM     23  N   LIG    1        6.781  -1.567   2.591  0.00  0.00    -0.670 N 
ATOM     24  H   LIG    1        7.545  -1.958   2.139  0.00  0.00    +0.410 HD
ATOM     25  O   LIG    1        4.842  -0.501   2.435  0.00  0.00    -0.490 OA
BRANCH  23  26
ATOM     26  C   LIG    1        6.660  -1.677   3.981  0.00  0.00    +0.150 A 
ATOM     27  C   LIG    1        5.900  -0.755   4.688  0.00  0.00    +0.020 A 
ATOM     28  C   LIG    1        5.777  -0.870   6.059  0.00  0.00    +0.020 A 
ATOM     29  C   LIG    1        6.419  -1.895   6.729  0.00  0.00    -0.010 A 
ATOM     30  C   LIG    1        7.182  -2.811   6.028  0.00  0.00    +0.030 A 
ATOM     31  C   LIG    1        7.303  -2.706   4.656  0.00  0.00    -0.120 A 
ATOM     32  C   LIG    1        8.134  -3.705   3.894  0.00  0.00    +0.080 C 
ENDBRANCH  23  26
ENDBRANCH   5  22
TORSDOF 5
