REMARK  Name = ZINCnE000001LtBt.1
REMARK                            x       y       z     vdW  Elec       q    Type
REMARK                         _______ _______ _______ _____ _____    ______ ____
ROOT
ATOM      1  N   LIG    1       -1.125  -0.810   0.008  0.00  0.00    -0.690 NA
ATOM      2  C   LIG    1       -0.994  -2.152  -0.000  0.00  0.00    +0.470 C 
ATOM      3  O   LIG    1        0.110  -2.653  -0.013  0.00  0.00    -0.560 OA
ENDROOT
BRANCH   1   9
ATOM      4  C   LIG    1        3.995   2.625  -0.022  0.00  0.00    +0.070 A 
ATOM      5  C   LIG    1        4.473   1.319  -0.034  0.00  0.00    -0.060 A 
ATOM      6  C   LIG    1        3.603   0.258  -0.031  0.00  0.00    +0.040 A 
ATOM      7  C   LIG    1        2.209   0.475  -0.017  0.00  0.00    +0.130 A 
ATOM      8  N   LIG    1        1.214  -0.436  -0.012  0.00  0.00    -0.560 NA
ATOM      9  C   LIG    1        0.002  -0.004   0.002  0.00  0.00    +0.400 A 
ATOM     10  S   LIG    1       -0.022   1.754   0.012  0.00  0.00    -0.030 S 
ATOM     11  C   LIG    1        1.740   1.792  -0.005  0.00  0.00    -0.190 A 
ATOM     12  C   LIG    1        2.634   2.860  -0.008  0.00  0.00    +0.040 A 
BRANCH   4  14
ATOM     13  C   LIG    1        6.259   3.352  -0.040  0.00  0.00    +0.220 C 
ATOM     14  O   LIG    1        4.866   3.669  -0.025  0.00  0.00    -0.320 OA
ENDBRANCH   4  14
ENDBRANCH   1   9
BRANCH   2  15
ATOM     15  C   LIG    1       -2.220  -3.029   0.006  0.00  0.00    +0.100 C 
BRANCH  15  16
ATOM     16  C   LIG    1       -1.802  -4.477  -0.005  0.00  0.00    -0.080 A 
ATOM     17  C   LIG    1       -1.721  -5.163  -1.201  0.00  0.00    +0.040 A 
ATOM     18  C   LIG    1       -1.337  -6.492  -1.213  0.00  0.00    -0.040 A 
ATOM     19  C   LIG    1       -1.034  -7.136  -0.028  0.00  0.00    +0.030 A 
ATOM     20  C   LIG    1       -1.113  -6.454   1.171  0.00  0.00    -0.090 A 
ATOM     21  C   LIG    1       -1.492  -5.119   1.185  0.00  0.00    +0.140 A 
BRANCH  21  22
ATOM     22  O   LIG    1       -1.565  -4.444   2.362  0.00  0.00    -0.310 OA
ATOM     23  C   LIG    1       -1.232  -5.170   3.547  0.00  0.00    +0.230 C 
ENDBRANCH  21  22
ENDBRANCH  15  16
ENDBRANCH   2  15
TORSDOF 5
