REMARK  Name = ZINCrH000004tYGA.1
REMARK                            x       y       z     vdW  Elec       q    Type
REMARK                         _______ _______ _______ _____ _____    ______ ____
ROOT
ATOM      1  O   LIG    1       -0.215   4.041   0.127  0.00  0.00    -0.500 OA
ATOM      2  C   LIG    1       -1.256   3.418   0.128  0.00  0.00    +0.520 C 
ATOM      3  N   LIG    1       -1.239   2.075   0.019  0.00  0.00    -0.670 N 
ATOM      4  H   LIG    1       -2.071   1.584  -0.060  0.00  0.00    +0.420 HD
ENDROOT
BRANCH   3   5
ATOM      5  C   LIG    1       -0.017   1.388   0.021  0.00  0.00    +0.130 A 
ATOM      6  C   LIG    1        1.096   1.952   0.625  0.00  0.00    +0.040 A 
ATOM      7  C   LIG    1        2.302   1.275   0.621  0.00  0.00    -0.060 A 
ATOM      8  C   LIG    1        2.400   0.036   0.015  0.00  0.00    +0.010 A 
ATOM      9  C   LIG    1        1.294  -0.532  -0.590  0.00  0.00    +0.010 A 
ATOM     10  C   LIG    1        0.083   0.140  -0.590  0.00  0.00    +0.070 A 
BRANCH  10  11
ATOM     11  O   LIG    1       -1.006  -0.417  -1.184  0.00  0.00    -0.500 OA
ATOM     12  H   LIG    1       -1.104  -0.188  -2.119  0.00  0.00    +0.390 HD
ENDBRANCH  10  11
BRANCH   7  13
ATOM     13  C   LIG    1        3.511   1.889   1.277  0.00  0.00    +0.120 C 
BRANCH  13  14
ATOM     14  C   LIG    1        4.262   2.721   0.270  0.00  0.00    -0.080 A 
ATOM     15  C   LIG    1        5.262   2.147  -0.493  0.00  0.00    +0.010 A 
ATOM     16  C   LIG    1        5.947   2.909  -1.421  0.00  0.00    +0.000 A 
ATOM     17  C   LIG    1        5.640   4.247  -1.578  0.00  0.00    +0.000 A 
ATOM     18  C   LIG    1        4.644   4.823  -0.811  0.00  0.00    +0.000 A 
ATOM     19  C   LIG    1        3.955   4.059   0.113  0.00  0.00    +0.010 A 
ENDBRANCH  13  14
ENDBRANCH   7  13
ENDBRANCH   3   5
BRANCH   2  20
ATOM     20  C   LIG    1       -2.570   4.147   0.252  0.00  0.00    +0.170 C 
BRANCH  20  21
ATOM     21  C   LIG    1       -2.314   5.628   0.359  0.00  0.00    +0.100 A 
ATOM     22  N   LIG    1       -2.137   6.301   1.470  0.00  0.00    -0.280 NA
ATOM     23  N   LIG    1       -1.928   7.648   1.140  0.00  0.00    -0.460 N 
ATOM     24  H   LIG    1       -1.768   8.371   1.766  0.00  0.00    +0.440 HD
ATOM     25  C   LIG    1       -1.992   7.758  -0.197  0.00  0.00    +0.090 A 
ATOM     26  C   LIG    1       -1.833   9.002  -1.036  0.00  0.00    +0.110 C 
ATOM     27  C   LIG    1       -1.573   8.578  -2.486  0.00  0.00    +0.030 C 
ATOM     28  C   LIG    1       -2.623   7.549  -2.915  0.00  0.00    +0.020 C 
ATOM     29  C   LIG    1       -2.376   6.227  -2.178  0.00  0.00    +0.100 C 
ATOM     30  C   LIG    1       -2.232   6.523  -0.706  0.00  0.00    -0.220 A 
ENDBRANCH  20  21
ENDBRANCH   2  20
TORSDOF 6
