REMARK  Name = ZINCrH000004tYGA.0
REMARK                            x       y       z     vdW  Elec       q    Type
REMARK                         _______ _______ _______ _____ _____    ______ ____
ROOT
ATOM      1  O   LIG    1       -4.806   2.844   1.340  0.00  0.00    -0.500 OA
ATOM      2  C   LIG    1       -4.591   3.627   2.241  0.00  0.00    +0.510 C 
ATOM      3  N   LIG    1       -5.596   4.012   3.053  0.00  0.00    -0.670 N 
ATOM      4  H   LIG    1       -5.413   4.586   3.813  0.00  0.00    +0.420 HD
ENDROOT
BRANCH   3   5
ATOM      5  C   LIG    1       -6.905   3.582   2.800  0.00  0.00    +0.120 A 
ATOM      6  C   LIG    1       -7.133   2.318   2.275  0.00  0.00    +0.040 A 
ATOM      7  C   LIG    1       -8.425   1.894   2.031  0.00  0.00    -0.060 A 
ATOM      8  C   LIG    1       -9.493   2.730   2.299  0.00  0.00    +0.020 A 
ATOM      9  C   LIG    1       -9.274   3.993   2.817  0.00  0.00    +0.010 A 
ATOM     10  C   LIG    1       -7.982   4.424   3.070  0.00  0.00    +0.080 A 
BRANCH  10  11
ATOM     11  O   LIG    1       -7.764   5.666   3.579  0.00  0.00    -0.500 OA
ATOM     12  H   LIG    1       -7.651   6.352   2.907  0.00  0.00    +0.390 HD
ENDBRANCH  10  11
BRANCH   7  13
ATOM     13  C   LIG    1       -8.671   0.518   1.466  0.00  0.00    +0.130 C 
BRANCH  13  14
ATOM     14  C   LIG    1       -8.671   0.586  -0.039  0.00  0.00    -0.080 A 
ATOM     15  C   LIG    1       -9.851   0.819  -0.721  0.00  0.00    +0.000 A 
ATOM     16  C   LIG    1       -9.851   0.886  -2.101  0.00  0.00    +0.000 A 
ATOM     17  C   LIG    1       -8.671   0.710  -2.801  0.00  0.00    +0.000 A 
ATOM     18  C   LIG    1       -7.492   0.472  -2.120  0.00  0.00    +0.000 A 
ATOM     19  C   LIG    1       -7.492   0.411  -0.739  0.00  0.00    +0.010 A 
ENDBRANCH  13  14
ENDBRANCH   7  13
ENDBRANCH   3   5
BRANCH   2  20
ATOM     20  C   LIG    1       -3.201   4.169   2.454  0.00  0.00    +0.150 C 
BRANCH  20  21
ATOM     21  C   LIG    1       -2.272   3.587   1.421  0.00  0.00    +0.100 A 
ATOM     22  C   LIG    1       -2.074   4.055   0.175  0.00  0.00    -0.210 A 
ATOM     23  C   LIG    1       -2.712   5.251  -0.487  0.00  0.00    +0.100 C 
ATOM     24  C   LIG    1       -1.877   5.619  -1.720  0.00  0.00    +0.010 C 
ATOM     25  C   LIG    1       -1.647   4.373  -2.579  0.00  0.00    +0.020 C 
ATOM     26  C   LIG    1       -0.658   3.435  -1.875  0.00  0.00    +0.120 C 
ATOM     27  C   LIG    1       -1.132   3.225  -0.458  0.00  0.00    +0.080 A 
ATOM     28  N   LIG    1       -0.778   2.296   0.382  0.00  0.00    -0.280 NA
ATOM     29  N   LIG    1       -1.482   2.498   1.579  0.00  0.00    -0.480 N 
ATOM     30  H   LIG    1       -1.415   1.954   2.378  0.00  0.00    +0.440 HD
ENDBRANCH  20  21
ENDBRANCH   2  20
TORSDOF 6
