REMARK  Name = ZINCvU0000000Fhx.0
REMARK                            x       y       z     vdW  Elec       q    Type
REMARK                         _______ _______ _______ _____ _____    ______ ____
ROOT
ATOM      1  C   LIG    1       -3.012   4.123  -1.391  0.00  0.00    +0.350 C 
ENDROOT
BRANCH   1   2
ATOM      2  C   LIG    1       -4.264   4.963  -1.376  0.00  0.00    +0.270 A 
ATOM      3  N   LIG    1       -5.354   4.664  -0.732  0.00  0.00    -0.480 NA
ATOM      4  C   LIG    1       -6.283   5.634  -0.933  0.00  0.00    +0.040 A 
ATOM      5  C   LIG    1       -7.595   5.818  -0.490  0.00  0.00    +0.070 A 
ATOM      6  C   LIG    1       -8.294   6.927  -0.875  0.00  0.00    +0.000 A 
ATOM      7  C   LIG    1       -7.715   7.877  -1.704  0.00  0.00    +0.030 A 
ATOM      8  C   LIG    1       -6.421   7.715  -2.154  0.00  0.00    +0.010 A 
ATOM      9  C   LIG    1       -5.696   6.595  -1.773  0.00  0.00    +0.050 A 
ATOM     10  N   LIG    1       -4.416   6.145  -2.031  0.00  0.00    -0.590 N 
ATOM     11  H   LIG    1       -3.750   6.589  -2.579  0.00  0.00    +0.420 HD
ENDBRANCH   1   2
BRANCH   1  13
ATOM     12  C   LIG    1       -3.214   2.748  -3.392  0.00  0.00    +0.520 C 
ATOM     13  N   LIG    1       -3.289   2.845  -2.050  0.00  0.00    -0.710 N 
ATOM     14  H   LIG    1       -3.527   2.067  -1.521  0.00  0.00    +0.410 HD
ATOM     15  O   LIG    1       -2.917   3.720  -4.054  0.00  0.00    -0.530 OA
BRANCH  12  16
ATOM     16  C   LIG    1       -3.499   1.433  -4.071  0.00  0.00    +0.070 C 
BRANCH  16  18
ATOM     17  C   LIG    1       -4.331   2.653  -6.086  0.00  0.00    +0.030 C 
ATOM     18  C   LIG    1       -3.345   1.596  -5.584  0.00  0.00    -0.000 C 
ATOM     19  C   LIG    1       -1.916   2.037  -5.907  0.00  0.00    +0.040 C 
BRANCH  18  20
ATOM     20  C   LIG    1       -3.630   0.281  -6.262  0.00  0.00    -0.070 A 
ATOM     21  C   LIG    1       -3.963  -0.828  -5.507  0.00  0.00    -0.010 A 
ATOM     22  C   LIG    1       -4.229  -2.034  -6.130  0.00  0.00    +0.000 A 
ATOM     23  C   LIG    1       -4.152  -2.132  -7.507  0.00  0.00    -0.010 A 
ATOM     24  C   LIG    1       -3.814  -1.024  -8.261  0.00  0.00    +0.000 A 
ATOM     25  C   LIG    1       -3.553   0.182  -7.639  0.00  0.00    +0.010 A 
ENDBRANCH  18  20
ENDBRANCH  16  18
ENDBRANCH  12  16
ENDBRANCH   1  13
BRANCH   1  26
ATOM     26  C   LIG    1       -2.553   3.867   0.046  0.00  0.00    +0.110 C 
BRANCH  26  27
ATOM     27  C   LIG    1       -1.237   3.133   0.030  0.00  0.00    -0.090 A 
ATOM     28  C   LIG    1       -1.218   1.751   0.017  0.00  0.00    +0.040 A 
ATOM     29  C   LIG    1       -0.013   1.076   0.008  0.00  0.00    -0.010 A 
ATOM     30  C   LIG    1        1.179   1.786   0.000  0.00  0.00    +0.110 A 
ATOM     31  C   LIG    1        1.157   3.174   0.008  0.00  0.00    -0.010 A 
ATOM     32  C   LIG    1       -0.051   3.844   0.023  0.00  0.00    +0.030 A 
BRANCH  30  33
ATOM     33  O   LIG    1        2.366   1.125  -0.015  0.00  0.00    -0.500 OA
ATOM     34  H   LIG    1        2.701   0.938  -0.903  0.00  0.00    +0.390 HD
ENDBRANCH  30  33
ENDBRANCH  26  27
ENDBRANCH   1  26
TORSDOF 8
