REMARK  Name = ZINCrH000004tH6Q.0
REMARK                            x       y       z     vdW  Elec       q    Type
REMARK                         _______ _______ _______ _____ _____    ______ ____
ROOT
ATOM      1  N   LIG    1       -1.593   2.137   3.817  0.00  0.00    -0.750 N 
ATOM      2  H   LIG    1       -1.891   2.412   4.699  0.00  0.00    +0.390 HD
ATOM      3  C   LIG    1       -0.501   1.359   3.687  0.00  0.00    +0.710 C 
ATOM      4  N   LIG    1        0.236   1.044   4.771  0.00  0.00    -0.600 N 
ATOM      5  O   LIG    1       -0.180   0.940   2.592  0.00  0.00    -0.570 OA
ENDROOT
BRANCH   4   6
ATOM      6  C   LIG    1        1.495   0.313   4.614  0.00  0.00    +0.210 C 
ATOM      7  C   LIG    1        2.117   0.269   3.217  0.00  0.00    +0.040 C 
ATOM      8  C   LIG    1        1.462  -0.985   3.804  0.00  0.00    +0.000 C 
ENDBRANCH   4   6
BRANCH   1   9
ATOM      9  C   LIG    1       -2.331   2.569   2.627  0.00  0.00    +0.310 C 
BRANCH   9  10
ATOM     10  C   LIG    1       -3.518   3.437   3.051  0.00  0.00    +0.050 C 
BRANCH  10  12
ATOM     11  O   LIG    1       -3.904   3.538   0.725  0.00  0.00    -0.530 OA
ATOM     12  C   LIG    1       -4.277   3.881   1.827  0.00  0.00    +0.530 C 
ATOM     13  N   LIG    1       -5.369   4.660   1.957  0.00  0.00    -0.610 N 
ATOM     14  C   LIG    1       -6.120   5.110   0.775  0.00  0.00    +0.300 C 
ATOM     15  C   LIG    1       -7.522   4.482   0.827  0.00  0.00    +0.110 C 
ATOM     16  C   LIG    1       -8.080   4.633   2.226  0.00  0.00    -0.170 A 
ATOM     17  C   LIG    1       -7.349   4.895   3.327  0.00  0.00    -0.130 A 
ATOM     18  C   LIG    1       -8.101   4.974   4.494  0.00  0.00    +0.020 A 
ATOM     19  C   LIG    1       -9.409   4.786   4.350  0.00  0.00    -0.040 A 
ATOM     20  S   LIG    1       -9.778   4.485   2.659  0.00  0.00    +0.110 S 
ATOM     21  C   LIG    1       -5.838   5.087   3.283  0.00  0.00    +0.360 C 
ENDBRANCH  10  12
ENDBRANCH   9  10
ENDBRANCH   1   9
BRANCH   4  22
ATOM     22  C   LIG    1       -0.223   1.434   6.107  0.00  0.00    +0.270 C 
BRANCH  22  23
ATOM     23  C   LIG    1       -1.093   0.320   6.692  0.00  0.00    -0.030 C 
ATOM     24  C   LIG    1       -2.365   0.173   5.854  0.00  0.00    +0.010 C 
ATOM     25  C   LIG    1       -3.236  -0.941   6.440  0.00  0.00    +0.000 C 
ATOM     26  C   LIG    1       -3.612  -0.590   7.881  0.00  0.00    +0.000 C 
ATOM     27  C   LIG    1       -2.340  -0.442   8.719  0.00  0.00    +0.000 C 
ATOM     28  C   LIG    1       -1.470   0.671   8.133  0.00  0.00    +0.010 C 
ENDBRANCH  22  23
ENDBRANCH   4  22
TORSDOF 6
