REMARK  Name = ZINCvU0000000A94.0
REMARK                            x       y       z     vdW  Elec       q    Type
REMARK                         _______ _______ _______ _____ _____    ______ ____
ROOT
ATOM      1  C   LIG    1       -8.977   3.213   0.397  0.00  0.00    -0.690 A 
ATOM      2  C   LIG    1       -7.767   2.565   0.530  0.00  0.00    +0.190 A 
ATOM      3  C   LIG    1       -6.602   3.304   0.748  0.00  0.00    -0.150 A 
ATOM      4  C   LIG    1       -6.670   4.697   0.820  0.00  0.00    +0.140 A 
ATOM      5  C   LIG    1       -7.887   5.333   0.681  0.00  0.00    +0.000 A 
ATOM      6  C   LIG    1       -9.037   4.594   0.470  0.00  0.00    +0.060 A 
ATOM      7  C   LIG    1      -10.362   5.296   0.319  0.00  0.00    +0.120 C 
ENDROOT
BRANCH   1   8
ATOM      8  S   LIG    1      -10.448   2.282   0.128  0.00  0.00    +2.690 S 
ATOM      9  O   LIG    1      -11.074   2.844  -1.018  0.00  0.00    -0.940 OA
ATOM     10  O   LIG    1      -11.092   2.174   1.390  0.00  0.00    -0.930 OA
BRANCH   8  11
ATOM     11  N   LIG    1       -9.988   0.749  -0.295  0.00  0.00    -0.940 N 
BRANCH  11  12
ATOM     12  C   LIG    1       -9.798  -0.221   0.692  0.00  0.00    +0.160 A 
ATOM     13  C   LIG    1       -9.436   0.158   1.979  0.00  0.00    -0.040 A 
ATOM     14  C   LIG    1       -9.253  -0.803   2.954  0.00  0.00    +0.050 A 
ATOM     15  C   LIG    1       -9.420  -2.141   2.648  0.00  0.00    -0.010 A 
ATOM     16  C   LIG    1       -9.776  -2.522   1.367  0.00  0.00    +0.040 A 
ATOM     17  C   LIG    1       -9.965  -1.566   0.388  0.00  0.00    -0.010 A 
ENDBRANCH  11  12
BRANCH  11  19
ATOM     18  C   LIG    1       -8.295   0.548  -2.049  0.00  0.00    +0.030 C 
ATOM     19  C   LIG    1       -9.780   0.409  -1.705  0.00  0.00    +0.310 C 
ENDBRANCH  11  19
ENDBRANCH   8  11
ENDBRANCH   1   8
BRANCH   3  20
ATOM     20  C   LIG    1       -5.303   2.616   0.895  0.00  0.00    +0.510 C 
ATOM     21  O   LIG    1       -5.247   1.404   0.832  0.00  0.00    -0.490 OA
BRANCH  20  22
ATOM     22  O   LIG    1       -4.181   3.332   1.099  0.00  0.00    -0.350 OA
BRANCH  22  23
ATOM     23  C   LIG    1       -2.941   2.590   1.235  0.00  0.00    +0.310 C 
BRANCH  23  24
ATOM     24  C   LIG    1       -1.801   3.551   1.456  0.00  0.00    -0.080 A 
ATOM     25  C   LIG    1       -2.044   4.911   1.506  0.00  0.00    +0.070 A 
ATOM     26  C   LIG    1       -0.999   5.794   1.703  0.00  0.00    +0.050 A 
ATOM     27  C   LIG    1        0.290   5.316   1.855  0.00  0.00    -0.020 A 
ATOM     28  C   LIG    1        0.534   3.955   1.811  0.00  0.00    +0.050 A 
ATOM     29 CL   LIG    1        1.603   6.425   2.103  0.00  0.00    -0.050 Cl
ATOM     30  C   LIG    1       -0.513   3.072   1.614  0.00  0.00    -0.020 A 
ATOM     31 CL   LIG    1       -0.209   1.364   1.557  0.00  0.00    -0.050 Cl
ENDBRANCH  23  24
ENDBRANCH  22  23
ENDBRANCH  20  22
ENDBRANCH   3  20
TORSDOF 8
