REMARK  Name = ZINCrH000004o1Dc.0
REMARK                            x       y       z     vdW  Elec       q    Type
REMARK                         _______ _______ _______ _____ _____    ______ ____
ROOT
ATOM      1  C   LIG    1        4.944   0.940  -0.936  0.00  0.00    +0.500 C 
ATOM      2  N   LIG    1        3.944   0.218  -1.479  0.00  0.00    -0.670 N 
ATOM      3  H   LIG    1        3.083   0.170  -1.034  0.00  0.00    +0.410 HD
ATOM      4  O   LIG    1        6.044   0.932  -1.447  0.00  0.00    -0.490 OA
ENDROOT
BRANCH   2   5
ATOM      5  C   LIG    1        4.147  -0.464  -2.687  0.00  0.00    +0.110 A 
ATOM      6  C   LIG    1        3.109  -0.581  -3.601  0.00  0.00    +0.020 A 
ATOM      7  C   LIG    1        3.310  -1.248  -4.793  0.00  0.00    -0.020 A 
ATOM      8  C   LIG    1        4.549  -1.810  -5.073  0.00  0.00    +0.100 A 
ATOM      9  C   LIG    1        5.586  -1.697  -4.157  0.00  0.00    +0.010 A 
ATOM     10  C   LIG    1        5.386  -1.026  -2.967  0.00  0.00    +0.050 A 
BRANCH   8  11
ATOM     11  N   LIG    1        4.752  -2.490  -6.279  0.00  0.00    -0.490 N 
ATOM     12  C   LIG    1        5.886  -1.923  -7.019  0.00  0.00    +0.180 C 
ATOM     13  C   LIG    1        6.169  -2.778  -8.256  0.00  0.00    +0.020 C 
ATOM     14  C   LIG    1        4.922  -2.813  -9.143  0.00  0.00    +0.010 C 
ATOM     15  C   LIG    1        3.744  -3.363  -8.334  0.00  0.00    +0.020 C 
ATOM     16  C   LIG    1        3.531  -2.490  -7.095  0.00  0.00    +0.180 C 
ENDBRANCH   8  11
ENDBRANCH   2   5
BRANCH   1  18
ATOM     17  C   LIG    1        3.603   2.790   0.027  0.00  0.00    +0.080 C 
ATOM     18  C   LIG    1        4.696   1.756   0.306  0.00  0.00    +0.280 C 
BRANCH  18  19
ATOM     19  N   LIG    1        5.930   2.443   0.694  0.00  0.00    -0.540 N 
ATOM     20  C   LIG    1        6.617   3.331  -0.052  0.00  0.00    +0.650 A 
ATOM     21  O   LIG    1        7.698   3.745   0.628  0.00  0.00    -0.240 OA
ATOM     22  C   LIG    1        7.724   3.134   1.838  0.00  0.00    +0.040 A 
ATOM     23  C   LIG    1        8.598   3.200   2.911  0.00  0.00    +0.060 A 
ATOM     24  C   LIG    1        8.364   2.437   4.039  0.00  0.00    +0.030 A 
ATOM     25  C   LIG    1        7.259   1.607   4.103  0.00  0.00    +0.040 A 
ATOM     26  C   LIG    1        6.381   1.534   3.038  0.00  0.00    +0.030 A 
ATOM     27  O   LIG    1        6.307   3.696  -1.169  0.00  0.00    -0.470 OA
ATOM     28  C   LIG    1        6.610   2.296   1.903  0.00  0.00    +0.070 A 
ENDBRANCH  18  19
ENDBRANCH   1  18
TORSDOF 4
