REMARK  Name = ZINCpe00000FUbK9.0
REMARK                            x       y       z     vdW  Elec       q    Type
REMARK                         _______ _______ _______ _____ _____    ______ ____
ROOT
ATOM      1  C   LIG    1        2.923   2.399  -2.005  0.00  0.00    +0.590 C 
ATOM      2  N   LIG    1        1.738   2.051  -1.463  0.00  0.00    -0.620 N 
ATOM      3  C   LIG    1        0.434   2.016  -2.147  0.00  0.00    +0.300 C 
ATOM      4  C   LIG    1       -0.376   0.897  -1.469  0.00  0.00    +0.030 C 
ATOM      5  C   LIG    1       -1.834   1.364  -1.296  0.00  0.00    -0.270 C 
ATOM      6  S   LIG    1       -2.296   0.680   0.346  0.00  0.00    +2.380 S 
ATOM      7  C   LIG    1       -0.629   0.930   1.065  0.00  0.00    -0.260 C 
ATOM      8  O   LIG    1       -2.571  -0.709   0.229  0.00  0.00    -0.910 OA
ATOM      9  O   LIG    1       -3.227   1.543   0.983  0.00  0.00    -0.920 OA
ATOM     10  C   LIG    1        0.313   0.647  -0.122  0.00  0.00    +0.040 C 
ATOM     11  C   LIG    1        1.496   1.631  -0.073  0.00  0.00    +0.330 C 
ATOM     12  O   LIG    1        3.917   2.456  -1.307  0.00  0.00    -0.520 OA
ENDROOT
BRANCH   1  16
ATOM     13  C   LIG    1        3.182   3.296  -6.148  0.00  0.00    +0.170 A 
ATOM     14  C   LIG    1        4.316   2.886  -5.454  0.00  0.00    +0.020 A 
ATOM     15  C   LIG    1        4.236   2.595  -4.111  0.00  0.00    +0.100 A 
ATOM     16  C   LIG    1        3.013   2.711  -3.444  0.00  0.00    -0.150 A 
ATOM     17  C   LIG    1        1.874   3.117  -4.145  0.00  0.00    +0.060 A 
ATOM     18  C   LIG    1        1.963   3.412  -5.487  0.00  0.00    -0.010 A 
BRANCH  13  20
ATOM     19  C   LIG    1        4.095   2.881  -8.299  0.00  0.00    +0.540 C 
ATOM     20  N   LIG    1        3.267   3.590  -7.507  0.00  0.00    -0.670 N 
ATOM     21  H   LIG    1        2.731   4.306  -7.883  0.00  0.00    +0.420 HD
ATOM     22  O   LIG    1        4.829   2.041  -7.815  0.00  0.00    -0.520 OA
BRANCH  19  24
ATOM     23  C   LIG    1        4.927   2.423 -10.532  0.00  0.00    +0.160 C 
ATOM     24  C   LIG    1        4.110   3.123  -9.750  0.00  0.00    -0.090 C 
ENDBRANCH  19  24
ENDBRANCH  13  20
ENDBRANCH   1  16
BRANCH  10  25
ATOM     25  C   LIG    1        0.805  -0.739  -0.056  0.00  0.00    +0.200 C 
ATOM     26  N   LIG    1        1.185  -1.808  -0.005  0.00  0.00    -0.380 NA
ENDBRANCH  10  25
TORSDOF 4
