REMARK  Name = ZINCpe000000XaXb.0
REMARK                            x       y       z     vdW  Elec       q    Type
REMARK                         _______ _______ _______ _____ _____    ______ ____
ROOT
ATOM      1  C   LIG    1       -1.216   1.677   0.047  0.00  0.00    +0.150 A 
ATOM      2  C   LIG    1       -1.208   3.063  -0.031  0.00  0.00    -0.010 A 
ATOM      3  C   LIG    1       -2.399   3.762   0.002  0.00  0.00    +0.030 A 
ATOM      4  C   LIG    1       -3.598   3.083   0.125  0.00  0.00    -0.130 A 
ATOM      5  C   LIG    1       -3.608   1.702   0.209  0.00  0.00    +0.050 A 
ATOM      6  C   LIG    1       -2.421   0.998   0.170  0.00  0.00    +0.020 A 
ENDROOT
BRANCH   4   7
ATOM      7  C   LIG    1       -4.895   3.848   0.168  0.00  0.00    +0.300 C 
ATOM      8  C   LIG    1       -5.305   4.236  -1.255  0.00  0.00    +0.100 C 
ATOM      9  C   LIG    1       -4.410   5.347  -1.743  0.00  0.00    +0.520 C 
ATOM     10  N   LIG    1       -3.956   6.274  -0.880  0.00  0.00    -0.680 N 
ATOM     11  H   LIG    1       -3.434   7.021  -1.211  0.00  0.00    +0.430 HD
ATOM     12  C   LIG    1       -4.215   6.180   0.435  0.00  0.00    +0.710 C 
ATOM     13  O   LIG    1       -3.987   7.133   1.154  0.00  0.00    -0.550 OA
ATOM     14  O   LIG    1       -4.098   5.404  -2.913  0.00  0.00    -0.490 OA
ATOM     15  N   LIG    1       -4.721   5.058   0.974  0.00  0.00    -0.720 N 
ATOM     16  H   LIG    1       -4.974   5.049   1.910  0.00  0.00    +0.430 HD
ENDBRANCH   4   7
BRANCH   1  18
ATOM     17  C   LIG    1        0.042  -0.237  -0.598  0.00  0.00    +0.520 C 
ATOM     18  N   LIG    1       -0.011   0.966   0.007  0.00  0.00    -0.670 N 
ATOM     19  H   LIG    1        0.785   1.337   0.419  0.00  0.00    +0.410 HD
ATOM     20  O   LIG    1       -0.971  -0.740  -1.038  0.00  0.00    -0.520 OA
BRANCH  17  22
ATOM     21  C   LIG    1        1.935  -1.220   0.666  0.00  0.00    +0.070 C 
ATOM     22  C   LIG    1        1.358  -0.959  -0.727  0.00  0.00    -0.010 C 
BRANCH  22  23
ATOM     23  C   LIG    1        1.141  -2.291  -1.446  0.00  0.00    +0.250 C 
ATOM     24  C   LIG    1        2.490  -3.018  -1.644  0.00  0.00    +0.060 C 
ATOM     25  C   LIG    1        2.898  -2.547  -3.059  0.00  0.00    +0.040 C 
ATOM     26  C   LIG    1        1.586  -2.191  -3.724  0.00  0.00    +0.510 C 
ATOM     27  O   LIG    1        1.429  -2.045  -4.918  0.00  0.00    -0.530 OA
ATOM     28  N   LIG    1        0.620  -2.059  -2.799  0.00  0.00    -0.720 N 
ATOM     29  H   LIG    1       -0.303  -1.839  -2.999  0.00  0.00    +0.420 HD
ENDBRANCH  22  23
ENDBRANCH  17  22
ENDBRANCH   1  18
TORSDOF 4
