REMARK  Name = ZINCtV000002KZQa.0
REMARK                            x       y       z     vdW  Elec       q    Type
REMARK                         _______ _______ _______ _____ _____    ______ ____
ROOT
ATOM      1  C   LIG    1        1.084  11.497   0.267  0.00  0.00    -0.200 A 
ATOM      2  C   LIG    1        2.316  12.120   0.364  0.00  0.00    +0.160 A 
ATOM      3  C   LIG    1        3.460  11.316   0.339  0.00  0.00    +0.090 A 
ATOM      4  N   LIG    1        3.338  10.001   0.225  0.00  0.00    -0.170 NA
ATOM      5  N   LIG    1        2.194   9.426   0.140  0.00  0.00    -0.260 NA
ATOM      6  C   LIG    1        1.059  10.108   0.151  0.00  0.00    +0.300 A 
ENDROOT
BRANCH   3   7
ATOM      7  C   LIG    1        4.805  11.934   0.439  0.00  0.00    -0.050 A 
ATOM      8  C   LIG    1        4.934  13.317   0.552  0.00  0.00    +0.030 A 
ATOM      9  C   LIG    1        6.187  13.885   0.651  0.00  0.00    +0.010 A 
ATOM     10  C   LIG    1        7.316  13.085   0.625  0.00  0.00    +0.030 A 
ATOM     11  C   LIG    1        7.195  11.713   0.506  0.00  0.00    +0.010 A 
ATOM     12  C   LIG    1        5.946  11.133   0.414  0.00  0.00    +0.060 A 
ENDBRANCH   3   7
BRANCH   1  14
ATOM     13  F   LIG    1        0.109  13.657   0.412  0.00  0.00    -0.170 F 
ATOM     14  C   LIG    1       -0.194  12.297   0.288  0.00  0.00    +0.530 C 
ATOM     15  F   LIG    1       -0.979  11.893   1.373  0.00  0.00    -0.160 F 
ATOM     16  F   LIG    1       -0.897  12.082  -0.902  0.00  0.00    -0.160 F 
ENDBRANCH   1  14
BRANCH   6  17
ATOM     17  O   LIG    1       -0.126   9.456   0.054  0.00  0.00    -0.230 OA
BRANCH  17  18
ATOM     18  C   LIG    1       -0.109   8.097   0.065  0.00  0.00    +0.080 A 
ATOM     19  C   LIG    1        0.199   7.418   1.236  0.00  0.00    +0.020 A 
ATOM     20  C   LIG    1        0.216   6.039   1.251  0.00  0.00    +0.040 A 
ATOM     21  C   LIG    1       -0.075   5.327   0.088  0.00  0.00    -0.030 A 
ATOM     22  C   LIG    1       -0.379   6.012  -1.087  0.00  0.00    +0.040 A 
ATOM     23  C   LIG    1       -0.401   7.391  -1.094  0.00  0.00    +0.040 A 
BRANCH  21  24
ATOM     24  C   LIG    1       -0.057   3.844   0.101  0.00  0.00    -0.050 A 
ATOM     25  C   LIG    1       -0.348   3.131  -1.060  0.00  0.00    +0.020 A 
ATOM     26  C   LIG    1       -0.329   1.751  -1.043  0.00  0.00    +0.010 A 
ATOM     27  C   LIG    1       -0.022   1.076   0.124  0.00  0.00    +0.010 A 
ATOM     28  C   LIG    1        0.263   1.778   1.281  0.00  0.00    +0.010 A 
ATOM     29  C   LIG    1        0.252   3.158   1.274  0.00  0.00    +0.020 A 
ENDBRANCH  21  24
ENDBRANCH  17  18
ENDBRANCH   6  17
TORSDOF 5
