REMARK  Name = ZINCpe00000MJLN4.0
REMARK                            x       y       z     vdW  Elec       q    Type
REMARK                         _______ _______ _______ _____ _____    ______ ____
ROOT
ATOM      1  C   LIG    1        2.700   8.053  -2.974  0.00  0.00    +0.150 C 
ATOM      2  C   LIG    1        2.757   9.590  -2.849  0.00  0.00    +0.070 C 
ATOM      3  C   LIG    1        2.049   9.855  -1.494  0.00  0.00    +0.040 C 
ATOM      4  C   LIG    1        2.499   8.632  -0.661  0.00  0.00    +0.260 C 
ATOM      5  N   LIG    1        2.530   7.511  -1.618  0.00  0.00    -0.620 N 
ATOM      6  C   LIG    1        2.416   6.205  -1.303  0.00  0.00    +0.530 C 
ATOM      7  O   LIG    1        2.358   5.372  -2.182  0.00  0.00    -0.510 OA
ENDROOT
BRANCH   1  11
ATOM      8  C   LIG    1       -0.821   7.079  -4.112  0.00  0.00    +0.280 C 
ATOM      9  N   LIG    1        0.296   7.574  -3.304  0.00  0.00    -0.730 N 
ATOM     10  H   LIG    1        0.146   7.846  -2.385  0.00  0.00    +0.400 HD
ATOM     11  C   LIG    1        1.531   7.652  -3.837  0.00  0.00    +0.520 C 
ATOM     12  O   LIG    1        1.702   7.399  -5.010  0.00  0.00    -0.510 OA
ENDBRANCH   1  11
BRANCH   1  13
ATOM     13  C   LIG    1        4.003   7.532  -3.583  0.00  0.00    +0.190 C 
BRANCH  13  14
ATOM     14  O   LIG    1        4.159   8.065  -4.900  0.00  0.00    -0.370 OA
ATOM     15  C   LIG    1        5.352   7.638  -5.562  0.00  0.00    +0.200 C 
ENDBRANCH  13  14
ENDBRANCH   1  13
BRANCH   6  16
ATOM     16  C   LIG    1        2.360   5.781   0.142  0.00  0.00    +0.120 C 
BRANCH  16  17
ATOM     17  C   LIG    1        2.232   4.282   0.221  0.00  0.00    -0.030 A 
ATOM     18  C   LIG    1        3.367   3.494   0.274  0.00  0.00    -0.020 A 
ATOM     19  C   LIG    1        3.254   2.118   0.346  0.00  0.00    +0.050 A 
ATOM     20  C   LIG    1        2.005   1.527   0.366  0.00  0.00    -0.070 A 
ATOM     21  C   LIG    1        0.865   2.315   0.313  0.00  0.00    +0.130 A 
ATOM     22  C   LIG    1        0.982   3.695   0.235  0.00  0.00    +0.000 A 
BRANCH  21  23
ATOM     23  O   LIG    1       -0.364   1.736   0.333  0.00  0.00    -0.310 OA
BRANCH  23  24
ATOM     24  C   LIG    1       -0.408   0.310   0.409  0.00  0.00    +0.380 C 
BRANCH  24  25
ATOM     25  C   LIG    1       -1.811  -0.138   0.420  0.00  0.00    +0.210 C 
ATOM     26  N   LIG    1       -2.893  -0.483   0.428  0.00  0.00    -0.390 NA
ENDBRANCH  24  25
ENDBRANCH  23  24
ENDBRANCH  21  23
ENDBRANCH  16  17
ENDBRANCH   6  16
TORSDOF 8
