REMARK  Name = ZINCpk00000eaPDX.0
REMARK                            x       y       z     vdW  Elec       q    Type
REMARK                         _______ _______ _______ _____ _____    ______ ____
ROOT
ATOM      1  N   LIG    1        3.477   3.331   1.325  0.00  0.00    -0.710 N 
ATOM      2  H   LIG    1        2.976   2.706   1.872  0.00  0.00    +0.410 HD
ATOM      3  C   LIG    1        4.764   3.604   1.621  0.00  0.00    +0.560 C 
ATOM      4  O   LIG    1        5.392   4.388   0.936  0.00  0.00    -0.540 OA
ENDROOT
BRANCH   3   5
ATOM      5  C   LIG    1        5.410   2.953   2.778  0.00  0.00    -0.140 A 
ATOM      6  C   LIG    1        4.688   2.057   3.570  0.00  0.00    +0.080 A 
ATOM      7  C   LIG    1        5.295   1.446   4.644  0.00  0.00    +0.000 A 
ATOM      8  C   LIG    1        6.622   1.729   4.949  0.00  0.00    +0.180 A 
ATOM      9  C   LIG    1        7.342   2.625   4.166  0.00  0.00    +0.030 A 
ATOM     10  C   LIG    1        6.743   3.235   3.086  0.00  0.00    +0.120 A 
BRANCH   8  11
ATOM     11  N   LIG    1        7.234   1.112   6.044  0.00  0.00    -0.340 N 
ATOM     12  C   LIG    1        6.670   0.231   6.895  0.00  0.00    +0.500 A 
ATOM     13  N   LIG    1        7.572  -0.113   7.778  0.00  0.00    -0.530 NA
ATOM     14  C   LIG    1        8.714   0.528   7.532  0.00  0.00    +0.440 A 
ATOM     15  N   LIG    1        8.557   1.290   6.481  0.00  0.00    -0.310 NA
ENDBRANCH   8  11
ENDBRANCH   3   5
BRANCH   1  16
ATOM     16  C   LIG    1        2.836   3.978   0.178  0.00  0.00    +0.280 C 
BRANCH  16  17
ATOM     17  C   LIG    1        1.388   3.498   0.065  0.00  0.00    +0.160 C 
ATOM     18  C   LIG    1        0.756   4.075  -1.203  0.00  0.00    +0.000 C 
BRANCH  17  22
ATOM     19  C   LIG    1        2.767  -0.503  -2.449  0.00  0.00    +0.050 C 
ATOM     20  C   LIG    1        2.086   0.012  -1.180  0.00  0.00    +0.160 C 
ATOM     21  C   LIG    1        2.086   1.543  -1.183  0.00  0.00    +0.160 C 
ATOM     22  N   LIG    1        1.362   2.030   0.000  0.00  0.00    -0.530 NA
ATOM     23  C   LIG    1       -0.019   1.527   0.010  0.00  0.00    +0.160 C 
ATOM     24  C   LIG    1        0.002  -0.004   0.002  0.00  0.00    +0.160 C 
ATOM     25  C   LIG    1       -1.431  -0.534  -0.068  0.00  0.00    +0.050 C 
ATOM     26  O   LIG    1        0.736  -0.460  -1.138  0.00  0.00    -0.380 OA
ENDBRANCH  17  22
ENDBRANCH  16  17
ENDBRANCH   1  16
TORSDOF 5
