REMARK  Name = ZINCvU000000086y.0
REMARK                            x       y       z     vdW  Elec       q    Type
REMARK                         _______ _______ _______ _____ _____    ______ ____
ROOT
ATOM      1  C   LIG    1        0.949   6.018   1.106  0.00  0.00    +0.300 C 
ATOM      2  N   LIG    1        1.958   5.012   1.448  0.00  0.00    -0.580 N 
ATOM      3  C   LIG    1        3.204   5.396   1.789  0.00  0.00    +0.560 C 
ATOM      4  O   LIG    1        3.486   6.578   1.828  0.00  0.00    -0.520 OA
ENDROOT
BRANCH   3   5
ATOM      5  C   LIG    1        4.225   4.381   2.115  0.00  0.00    -0.130 A 
ATOM      6  C   LIG    1        4.183   3.124   1.508  0.00  0.00    +0.050 A 
ATOM      7  C   LIG    1        5.140   2.182   1.811  0.00  0.00    +0.000 A 
ATOM      8  C   LIG    1        6.142   2.477   2.729  0.00  0.00    +0.110 A 
ATOM      9  C   LIG    1        6.184   3.725   3.339  0.00  0.00    +0.020 A 
ATOM     10  C   LIG    1        5.234   4.674   3.037  0.00  0.00    +0.110 A 
BRANCH   8  11
ATOM     11  O   LIG    1        7.081   1.545   3.029  0.00  0.00    -0.260 OA
BRANCH  11  12
ATOM     12  C   LIG    1        8.084   1.339   2.136  0.00  0.00    +0.120 A 
ATOM     13  C   LIG    1        8.196   2.152   1.017  0.00  0.00    -0.060 A 
ATOM     14  C   LIG    1        9.220   1.944   0.113  0.00  0.00    +0.050 A 
ATOM     15  C   LIG    1       10.127   0.921   0.317  0.00  0.00    -0.020 A 
ATOM     16  C   LIG    1       10.015   0.106   1.429  0.00  0.00    +0.050 A 
ATOM     17  C   LIG    1        8.996   0.313   2.338  0.00  0.00    -0.010 A 
ENDBRANCH  11  12
ENDBRANCH   8  11
ENDBRANCH   3   5
BRANCH   2  18
ATOM     18  C   LIG    1        1.612   3.588   1.418  0.00  0.00    +0.350 C 
BRANCH  18  19
ATOM     19  C   LIG    1        0.400   3.348   2.280  0.00  0.00    -0.070 A 
ATOM     20  C   LIG    1        0.479   2.483   3.356  0.00  0.00    +0.020 A 
ATOM     21  C   LIG    1       -0.632   2.262   4.149  0.00  0.00    +0.050 A 
ATOM     22  C   LIG    1       -1.824   2.899   3.862  0.00  0.00    -0.010 A 
ATOM     23  C   LIG    1       -1.903   3.769   2.788  0.00  0.00    +0.100 A 
ATOM     24  F   LIG    1       -3.066   4.398   2.511  0.00  0.00    -0.140 F 
ATOM     25  C   LIG    1       -0.789   3.991   1.996  0.00  0.00    +0.010 A 
ENDBRANCH  18  19
BRANCH  18  26
ATOM     26  C   LIG    1        1.310   3.174   0.000  0.00  0.00    +0.110 A 
ATOM     27  C   LIG    1        1.473   1.854  -0.375  0.00  0.00    -0.020 A 
ATOM     28  C   LIG    1        1.188   1.483  -1.680  0.00  0.00    +0.070 A 
ATOM     29  C   LIG    1        0.758   2.459  -2.565  0.00  0.00    -0.030 A 
ATOM     30  C   LIG    1        0.624   3.761  -2.119  0.00  0.00    +0.270 A 
ATOM     31  N   LIG    1        0.899   4.077  -0.869  0.00  0.00    -0.470 NA
ENDBRANCH  18  26
ENDBRANCH   2  18
TORSDOF 6
