REMARK  Name = ZINCrg000000thKR.0
REMARK                            x       y       z     vdW  Elec       q    Type
REMARK                         _______ _______ _______ _____ _____    ______ ____
ROOT
ATOM      1  N   LIG    1       -1.568   5.248   2.685  0.00  0.00    -0.130 N 
ATOM      2  N   LIG    1       -0.667   6.002   3.211  0.00  0.00    -0.040 NA
ATOM      3  N   LIG    1       -0.998   7.236   3.034  0.00  0.00    -0.260 NA
ATOM      4  C   LIG    1       -2.165   7.244   2.374  0.00  0.00    +0.210 A 
ATOM      5  N   LIG    1       -2.494   5.984   2.172  0.00  0.00    -0.290 NA
ENDROOT
BRANCH   4   6
ATOM      6  C   LIG    1       -2.938   8.441   1.954  0.00  0.00    -0.010 A 
ATOM      7  C   LIG    1       -4.143   8.290   1.272  0.00  0.00    +0.090 A 
ATOM      8  C   LIG    1       -4.858   9.405   0.884  0.00  0.00    +0.030 A 
ATOM      9  C   LIG    1       -4.379  10.671   1.171  0.00  0.00    +0.100 A 
ATOM     10  C   LIG    1       -3.183  10.826   1.848  0.00  0.00    -0.180 A 
ATOM     11  C   LIG    1       -2.463   9.717   2.246  0.00  0.00    +0.120 A 
BRANCH  10  12
ATOM     12  C   LIG    1       -2.667  12.208   2.158  0.00  0.00    +0.510 C 
ATOM     13  F   LIG    1       -1.419  12.386   1.553  0.00  0.00    -0.170 F 
ATOM     14  F   LIG    1       -2.541  12.359   3.543  0.00  0.00    -0.170 F 
ATOM     15  F   LIG    1       -3.565  13.161   1.665  0.00  0.00    -0.180 F 
ENDBRANCH  10  12
ENDBRANCH   4   6
BRANCH   1  16
ATOM     16  C   LIG    1       -1.548   3.783   2.677  0.00  0.00    +0.410 C 
BRANCH  16  18
ATOM     17  O   LIG    1       -0.401   4.096   0.639  0.00  0.00    -0.520 OA
ATOM     18  C   LIG    1       -0.843   3.297   1.437  0.00  0.00    +0.510 C 
ATOM     19  N   LIG    1       -0.704   1.975   1.216  0.00  0.00    -0.710 N 
ATOM     20  H   LIG    1       -1.058   1.337   1.854  0.00  0.00    +0.420 HD
BRANCH  19  21
ATOM     21  C   LIG    1       -0.018   1.503   0.010  0.00  0.00    +0.310 C 
BRANCH  21  22
ATOM     22  C   LIG    1        0.002  -0.004   0.002  0.00  0.00    +0.530 C 
ATOM     23  N   LIG    1        0.585  -0.664  -1.018  0.00  0.00    -0.610 N 
ATOM     24  C   LIG    1        1.230  -0.043  -2.184  0.00  0.00    +0.240 C 
ATOM     25  C   LIG    1        1.730  -1.185  -3.094  0.00  0.00    +0.040 C 
ATOM     26  C   LIG    1        0.834  -2.380  -2.673  0.00  0.00    +0.030 C 
ATOM     27  C   LIG    1        0.676  -2.130  -1.152  0.00  0.00    +0.250 C 
ATOM     28  O   LIG    1       -0.506  -0.622   0.913  0.00  0.00    -0.540 OA
ENDBRANCH  21  22
ENDBRANCH  19  21
ENDBRANCH  16  18
ENDBRANCH   1  16
TORSDOF 6
