REMARK  Name = ZINCvU0000000Emz.0
REMARK                            x       y       z     vdW  Elec       q    Type
REMARK                         _______ _______ _______ _____ _____    ______ ____
ROOT
ATOM      1  C   LIG    1       -1.699   2.756   1.179  0.00  0.00    +0.240 A 
ATOM      2  N   LIG    1       -1.766   3.171   2.423  0.00  0.00    -0.270 NA
ATOM      3  N   LIG    1       -1.055   2.412   3.178  0.00  0.00    -0.290 NA
ATOM      4  C   LIG    1       -0.495   1.462   2.463  0.00  0.00    +0.140 A 
ATOM      5  N   LIG    1       -0.880   1.651   1.166  0.00  0.00    -0.450 N 
ENDROOT
BRANCH   1   9
ATOM      6  C   LIG    1       -3.647   4.495  -2.173  0.00  0.00    +0.150 A 
ATOM      7  C   LIG    1       -2.437   3.836  -2.340  0.00  0.00    -0.010 A 
ATOM      8  C   LIG    1       -1.801   3.270  -1.256  0.00  0.00    +0.060 A 
ATOM      9  C   LIG    1       -2.377   3.361   0.013  0.00  0.00    -0.060 A 
ATOM     10  C   LIG    1       -3.596   4.021   0.177  0.00  0.00    +0.110 A 
ATOM     11  C   LIG    1       -4.223   4.588  -0.912  0.00  0.00    -0.070 A 
BRANCH   6  13
ATOM     12  C   LIG    1       -5.513   5.713  -3.001  0.00  0.00    +0.240 C 
ATOM     13  O   LIG    1       -4.271   5.051  -3.244  0.00  0.00    -0.310 OA
ENDBRANCH   6  13
ENDBRANCH   1   9
BRANCH   5  14
ATOM     14  C   LIG    1       -0.503   0.842   0.004  0.00  0.00    +0.230 C 
ATOM     15  C   LIG    1        1.014   0.894  -0.184  0.00  0.00    +0.070 C 
ATOM     16  C   LIG    1       -0.939  -0.608   0.230  0.00  0.00    +0.070 C 
ENDBRANCH   5  14
BRANCH   4  17
ATOM     17  S   LIG    1        0.560   0.185   3.066  0.00  0.00    +0.090 S 
BRANCH  17  18
ATOM     18  C   LIG    1        0.586   0.604   4.826  0.00  0.00    +0.100 C 
BRANCH  18  19
ATOM     19  C   LIG    1        1.452  -0.384   5.564  0.00  0.00    +0.530 C 
ATOM     20  N   LIG    1        1.621  -0.269   6.897  0.00  0.00    -0.660 N 
ATOM     21  H   LIG    1        1.131   0.407   7.391  0.00  0.00    +0.420 HD
ATOM     22  O   LIG    1        1.999  -1.282   4.960  0.00  0.00    -0.500 OA
BRANCH  20  23
ATOM     23  C   LIG    1        2.502  -1.124   7.567  0.00  0.00    +0.140 A 
ATOM     24  C   LIG    1        2.620  -2.434   7.161  0.00  0.00    +0.030 A 
ATOM     25  C   LIG    1        3.509  -3.289   7.833  0.00  0.00    -0.040 A 
ATOM     26  C   LIG    1        3.661  -4.631   7.446  0.00  0.00    +0.020 A 
ATOM     27  C   LIG    1        4.528  -5.434   8.123  0.00  0.00    +0.010 A 
ATOM     28  C   LIG    1        5.268  -4.944   9.197  0.00  0.00    +0.000 A 
ATOM     29  C   LIG    1        5.147  -3.649   9.600  0.00  0.00    +0.030 A 
ATOM     30  C   LIG    1        4.263  -2.791   8.926  0.00  0.00    -0.060 A 
ATOM     31  C   LIG    1        4.113  -1.448   9.317  0.00  0.00    +0.040 A 
ATOM     32  C   LIG    1        3.250  -0.640   8.647  0.00  0.00    +0.000 A 
ENDBRANCH  20  23
ENDBRANCH  18  19
ENDBRANCH  17  18
ENDBRANCH   4  17
TORSDOF 7
