REMARK  Name = ZINCrH000004m3KE.1
REMARK                            x       y       z     vdW  Elec       q    Type
REMARK                         _______ _______ _______ _____ _____    ______ ____
ROOT
ATOM      1  C   LIG    1       -2.920   3.185   5.115  0.00  0.00    +0.510 C 
ATOM      2  N   LIG    1       -2.592   2.003   4.557  0.00  0.00    -0.630 N 
ATOM      3  H   LIG    1       -2.833   1.174   4.999  0.00  0.00    +0.430 HD
ATOM      4  O   LIG    1       -2.619   4.221   4.563  0.00  0.00    -0.450 OA
ENDROOT
BRANCH   2   5
ATOM      5  C   LIG    1       -1.907   1.973   3.346  0.00  0.00    +0.220 A 
ATOM      6  N   LIG    1       -1.532   3.011   2.662  0.00  0.00    -0.270 NA
ATOM      7  N   LIG    1       -0.918   2.808   1.578  0.00  0.00    -0.220 NA
ATOM      8  C   LIG    1       -0.718   1.572   1.248  0.00  0.00    +0.020 A 
ATOM      9  S   LIG    1       -1.427   0.559   2.506  0.00  0.00    +0.100 S 
BRANCH   8  10
ATOM     10  C   LIG    1       -0.013   1.086   0.008  0.00  0.00    +0.090 C 
ATOM     11  C   LIG    1       -0.753   1.593  -1.232  0.00  0.00    +0.030 C 
ATOM     12  C   LIG    1       -0.037   1.099  -2.490  0.00  0.00    +0.010 C 
ATOM     13  C   LIG    1        1.399   1.629  -2.501  0.00  0.00    +0.010 C 
ATOM     14  C   LIG    1        2.139   1.122  -1.262  0.00  0.00    +0.010 C 
ATOM     15  C   LIG    1        1.423   1.615  -0.003  0.00  0.00    +0.030 C 
ENDBRANCH   8  10
ENDBRANCH   2   5
BRANCH   1  16
ATOM     16  C   LIG    1       -3.662   3.218   6.427  0.00  0.00    +0.130 C 
BRANCH  16  19
ATOM     17  C   LIG    1       -5.288   6.610   6.794  0.00  0.00    +0.150 A 
ATOM     18  C   LIG    1       -5.060   5.293   6.425  0.00  0.00    -0.090 A 
ATOM     19  C   LIG    1       -3.906   4.649   6.830  0.00  0.00    -0.000 A 
ATOM     20  C   LIG    1       -2.977   5.314   7.609  0.00  0.00    -0.090 A 
ATOM     21  C   LIG    1       -3.194   6.632   7.978  0.00  0.00    +0.150 A 
ATOM     22  C   LIG    1       -4.354   7.283   7.572  0.00  0.00    +0.030 A 
BRANCH  17  24
ATOM     23  C   LIG    1       -7.340   6.489   5.597  0.00  0.00    +0.240 C 
ATOM     24  O   LIG    1       -6.424   7.242   6.395  0.00  0.00    -0.300 OA
ENDBRANCH  17  24
BRANCH  21  25
ATOM     25  O   LIG    1       -2.277   7.287   8.739  0.00  0.00    -0.300 OA
ATOM     26  C   LIG    1       -1.109   6.556   9.119  0.00  0.00    +0.240 C 
ENDBRANCH  21  25
BRANCH  22  27
ATOM     27  O   LIG    1       -4.574   8.576   7.936  0.00  0.00    -0.310 OA
ATOM     28  C   LIG    1       -5.270   8.794   9.165  0.00  0.00    +0.210 C 
ENDBRANCH  22  27
ENDBRANCH  16  19
ENDBRANCH   1  16
TORSDOF 7
