REMARK  Name = ZINCrg00000SjSrb.0
REMARK                            x       y       z     vdW  Elec       q    Type
REMARK                         _______ _______ _______ _____ _____    ______ ____
ROOT
ATOM      1  C   LIG    1        7.065   0.885  -4.527  0.00  0.00    +0.140 C 
ATOM      2  C   LIG    1        6.826   1.371  -3.093  0.00  0.00    +0.280 C 
ATOM      3  N   LIG    1        5.420   1.789  -2.973  0.00  0.00    -0.620 N 
ATOM      4  C   LIG    1        4.885   2.714  -3.985  0.00  0.00    +0.260 C 
ATOM      5  C   LIG    1        5.220   2.167  -5.372  0.00  0.00    +0.220 C 
ATOM      6  C   LIG    1        4.644   1.333  -1.970  0.00  0.00    +0.530 C 
ATOM      7  O   LIG    1        5.074   0.500  -1.200  0.00  0.00    -0.520 OA
ATOM      8  O   LIG    1        6.621   1.887  -5.444  0.00  0.00    -0.370 OA
ENDROOT
BRANCH   6   9
ATOM      9  C   LIG    1        3.241   1.860  -1.804  0.00  0.00    -0.020 C 
ATOM     10  C   LIG    1        2.887   1.908  -0.316  0.00  0.00    +0.050 C 
ATOM     11  C   LIG    1        1.475   2.473  -0.144  0.00  0.00    +0.020 C 
ATOM     12  C   LIG    1        0.472   1.555  -0.851  0.00  0.00    +0.280 C 
ATOM     13  N   LIG    1        0.889   1.387  -2.250  0.00  0.00    -0.610 N 
ATOM     14  C   LIG    1        0.031   1.642  -3.257  0.00  0.00    +0.520 C 
ATOM     15  O   LIG    1       -1.125   1.915  -3.015  0.00  0.00    -0.530 OA
ATOM     16  C   LIG    1        2.257   0.929  -2.529  0.00  0.00    +0.290 C 
BRANCH  14  17
ATOM     17  C   LIG    1        0.508   1.583  -4.686  0.00  0.00    -0.020 C 
ATOM     18  C   LIG    1       -0.530   2.241  -5.597  0.00  0.00    +0.050 C 
ATOM     19  C   LIG    1        0.698   0.123  -5.100  0.00  0.00    +0.050 C 
ENDBRANCH  14  17
ENDBRANCH   6   9
BRANCH   1  20
ATOM     20  C   LIG    1        8.558   0.625  -4.736  0.00  0.00    +0.370 C 
BRANCH  20  24
ATOM     21  C   LIG    1        9.096  -2.660  -8.488  0.00  0.00    +0.190 C 
ATOM     22  C   LIG    1        9.004  -1.388  -7.686  0.00  0.00    +0.230 A 
ATOM     23  N   LIG    1        8.782  -1.316  -6.399  0.00  0.00    -0.320 NA
ATOM     24  N   LIG    1        8.772   0.048  -6.065  0.00  0.00    -0.380 N 
ATOM     25  C   LIG    1        9.004   0.719  -7.207  0.00  0.00    +0.300 A 
ATOM     26  C   LIG    1        9.091   2.217  -7.351  0.00  0.00    +0.200 C 
ATOM     27  N   LIG    1        9.142  -0.155  -8.171  0.00  0.00    -0.550 NA
ENDBRANCH  20  24
ENDBRANCH   1  20
TORSDOF 4
