REMARK  Name = ZINCrD00000F5LFg.0
REMARK                            x       y       z     vdW  Elec       q    Type
REMARK                         _______ _______ _______ _____ _____    ______ ____
ROOT
ATOM      1  N   LIG    1       -1.397  -2.959  -2.933  0.00  0.00    -0.720 N 
ATOM      2  H   LIG    1       -2.150  -2.602  -2.436  0.00  0.00    +0.400 HD
ATOM      3  C   LIG    1       -1.611  -3.713  -4.030  0.00  0.00    +0.570 C 
ATOM      4  O   LIG    1       -0.672  -4.087  -4.700  0.00  0.00    -0.530 OA
ENDROOT
BRANCH   3   5
ATOM      5  C   LIG    1       -3.016  -4.090  -4.423  0.00  0.00    +0.040 C 
ATOM      6  C   LIG    1       -3.238  -4.995  -5.670  0.00  0.00    +0.070 C 
ATOM      7  C   LIG    1       -4.677  -4.405  -5.556  0.00  0.00    -0.020 C 
ATOM      8  C   LIG    1       -5.201  -4.788  -4.129  0.00  0.00    +0.250 C 
ATOM      9  C   LIG    1       -3.873  -3.110  -5.262  0.00  0.00    +0.060 C 
ATOM     10  N   LIG    1       -3.950  -4.527  -3.331  0.00  0.00    -0.410 N 
BRANCH  10  11
ATOM     11  C   LIG    1       -3.502  -5.691  -2.731  0.00  0.00    +0.470 A 
ATOM     12  N   LIG    1       -2.343  -6.209  -3.110  0.00  0.00    -0.530 NA
ATOM     13  C   LIG    1       -1.883  -7.317  -2.554  0.00  0.00    +0.340 A 
ATOM     14  C   LIG    1       -2.635  -7.943  -1.571  0.00  0.00    -0.100 A 
ATOM     15  C   LIG    1       -3.846  -7.377  -1.203  0.00  0.00    +0.340 A 
ATOM     16  N   LIG    1       -4.245  -6.264  -1.796  0.00  0.00    -0.520 NA
ENDBRANCH  10  11
ENDBRANCH   3   5
BRANCH   1  17
ATOM     17  C   LIG    1       -0.029  -2.680  -2.491  0.00  0.00    +0.310 C 
BRANCH  17  22
ATOM     18  C   LIG    1       -0.171   0.606   2.260  0.00  0.00    +0.090 C 
ATOM     19  C   LIG    1       -0.134  -0.251   1.021  0.00  0.00    -0.070 A 
ATOM     20  C   LIG    1       -0.097   0.341  -0.228  0.00  0.00    -0.090 A 
ATOM     21  C   LIG    1       -0.069  -0.445  -1.364  0.00  0.00    -0.060 A 
ATOM     22  C   LIG    1       -0.066  -1.823  -1.252  0.00  0.00    -0.110 A 
ATOM     23  C   LIG    1       -0.101  -2.415  -0.004  0.00  0.00    -0.060 A 
ATOM     24  C   LIG    1       -0.103  -3.917   0.119  0.00  0.00    +0.090 C 
ATOM     25  C   LIG    1       -0.035   0.200  -2.726  0.00  0.00    +0.090 C 
ATOM     26  C   LIG    1       -0.096   1.843  -0.350  0.00  0.00    +0.090 C 
ATOM     27  C   LIG    1       -0.135  -1.629   1.133  0.00  0.00    -0.090 A 
ATOM     28  C   LIG    1       -0.174  -2.274   2.494  0.00  0.00    +0.090 C 
ENDBRANCH  17  22
ENDBRANCH   1  17
TORSDOF 4
