REMARK  Name = ZINCrg000000titT.0
REMARK                            x       y       z     vdW  Elec       q    Type
REMARK                         _______ _______ _______ _____ _____    ______ ____
ROOT
ATOM      1  N   LIG    1       -0.212   6.548   7.064  0.00  0.00    -0.690 NA
ATOM      2  C   LIG    1        0.225   5.845   6.023  0.00  0.00    +0.510 A 
ATOM      3  C   LIG    1        1.459   6.013   5.358  0.00  0.00    -0.100 A 
ATOM      4  C   LIG    1        1.528   5.106   4.362  0.00  0.00    +0.340 A 
ATOM      5  N   LIG    1        0.381   4.367   4.354  0.00  0.00    -0.380 N 
ATOM      6  N   LIG    1       -0.441   4.821   5.394  0.00  0.00    -0.480 N 
ATOM      7  H   LIG    1       -1.317   4.476   5.627  0.00  0.00    +0.450 HD
ENDROOT
BRANCH   1   9
ATOM      8  O   LIG    1        1.637   7.768   7.093  0.00  0.00    -0.620 OA
ATOM      9  C   LIG    1        0.546   7.524   7.578  0.00  0.00    +0.690 C 
ATOM     10  N   LIG    1        0.103   8.237   8.632  0.00  0.00    -0.710 N 
ATOM     11  H   LIG    1       -0.765   8.043   9.019  0.00  0.00    +0.400 HD
BRANCH  10  12
ATOM     12  C   LIG    1        0.933   9.305   9.195  0.00  0.00    +0.260 C 
ATOM     13  C   LIG    1        1.819   8.766  10.338  0.00  0.00    +0.070 C 
ATOM     14  C   LIG    1        1.898   9.894  11.344  0.00  0.00    -0.090 A 
ATOM     15  C   LIG    1        2.783  10.106  12.388  0.00  0.00    +0.010 A 
ATOM     16  C   LIG    1        2.659  11.226  13.188  0.00  0.00    +0.000 A 
ATOM     17  C   LIG    1        1.649  12.138  12.946  0.00  0.00    +0.000 A 
ATOM     18  C   LIG    1        0.765  11.928  11.905  0.00  0.00    +0.020 A 
ATOM     19  C   LIG    1        0.888  10.807  11.103  0.00  0.00    -0.100 A 
ATOM     20  C   LIG    1        0.062  10.354   9.918  0.00  0.00    +0.080 C 
ENDBRANCH  10  12
ENDBRANCH   1   9
BRANCH   5  21
ATOM     21  C   LIG    1        0.066   3.281   3.422  0.00  0.00    +0.390 C 
BRANCH  21  22
ATOM     22  C   LIG    1       -0.535   3.857   2.165  0.00  0.00    +0.490 C 
ATOM     23  N   LIG    1       -0.905   3.039   1.160  0.00  0.00    -0.610 N 
ATOM     24  C   LIG    1       -0.732   1.581   1.268  0.00  0.00    +0.250 C 
ATOM     25  C   LIG    1       -0.013   1.086   0.008  0.00  0.00    +0.220 C 
ATOM     26  O   LIG    1       -0.706   1.560  -1.149  0.00  0.00    -0.380 OA
ATOM     27  C   LIG    1       -0.736   2.985  -1.270  0.00  0.00    +0.220 C 
ATOM     28  C   LIG    1       -1.493   3.577  -0.076  0.00  0.00    +0.260 C 
ATOM     29  O   LIG    1       -0.684   5.055   2.058  0.00  0.00    -0.510 OA
ENDBRANCH  21  22
ENDBRANCH   5  21
TORSDOF 4
