REMARK  Name = ZINCtj00000rYUt4.0
REMARK                            x       y       z     vdW  Elec       q    Type
REMARK                         _______ _______ _______ _____ _____    ______ ____
ROOT
ATOM      1  C   LIG    1        0.000  -0.650  -1.130  0.00  0.00    +0.740 C 
ENDROOT
BRANCH   1   2
ATOM      2  N   LIG    1        0.233   0.181  -2.200  0.00  0.00    -0.620 NA
ATOM      3  C   LIG    1        1.600   0.413  -2.693  0.00  0.00    +0.330 C 
ATOM      4  C   LIG    1        1.615   0.162  -4.209  0.00  0.00    +0.210 C 
ATOM      5  N   LIG    1        0.578   0.985  -4.846  0.00  0.00    -0.470 N 
ATOM      6  C   LIG    1       -0.763   0.603  -4.385  0.00  0.00    +0.230 C 
ATOM      7  C   LIG    1       -0.876   0.867  -2.880  0.00  0.00    +0.320 C 
BRANCH   5   8
ATOM      8  C   LIG    1        0.667   0.914  -6.232  0.00  0.00    +0.300 A 
ATOM      9  C   LIG    1        1.862   1.244  -6.863  0.00  0.00    -0.040 A 
ATOM     10  C   LIG    1        1.938   1.165  -8.242  0.00  0.00    +0.090 A 
ATOM     11  C   LIG    1        0.810   0.766  -8.946  0.00  0.00    -0.050 A 
ATOM     12  C   LIG    1       -0.345   0.458  -8.255  0.00  0.00    +0.290 A 
ATOM     13  N   LIG    1       -0.387   0.538  -6.939  0.00  0.00    -0.520 NA
ENDBRANCH   5   8
ENDBRANCH   1   2
BRANCH   1  14
ATOM     14  N   LIG    1       -0.869  -0.312  -0.220  0.00  0.00    -0.640 NA
ATOM     15  H   LIG    1       -1.118  -0.944   0.472  0.00  0.00    +0.440 HD
BRANCH  14  16
ATOM     16  C   LIG    1       -1.471   1.024  -0.242  0.00  0.00    +0.240 C 
ATOM     17  C   LIG    1       -0.599   1.990   0.562  0.00  0.00    +0.060 C 
BRANCH  16  18
ATOM     18  C   LIG    1       -2.869   0.964   0.377  0.00  0.00    +0.200 C 
BRANCH  18  20
ATOM     19  C   LIG    1       -4.019   0.536   2.436  0.00  0.00    +0.230 C 
ATOM     20  O   LIG    1       -2.763   0.620   1.760  0.00  0.00    -0.390 OA
ENDBRANCH  18  20
ENDBRANCH  16  18
ENDBRANCH  14  16
ENDBRANCH   1  14
BRANCH   1  21
ATOM     21  N   LIG    1        0.684  -1.837  -1.020  0.00  0.00    -0.680 NA
ATOM     22  H   LIG    1        1.264  -2.131  -1.740  0.00  0.00    +0.440 HD
BRANCH  21  23
ATOM     23  C   LIG    1        0.536  -2.659   0.184  0.00  0.00    +0.310 C 
BRANCH  23  24
ATOM     24  C   LIG    1        1.398  -3.916   0.052  0.00  0.00    +0.130 C 
ATOM     25  C   LIG    1        1.242  -4.777   1.309  0.00  0.00    +0.210 C 
ATOM     26  O   LIG    1        1.959  -6.003   1.130  0.00  0.00    -0.360 OA
ATOM     27  C   LIG    1        1.536  -6.755  -0.011  0.00  0.00    +0.210 C 
ATOM     28  C   LIG    1        1.693  -5.893  -1.267  0.00  0.00    +0.080 C 
ATOM     29  C   LIG    1        3.175  -5.587  -1.496  0.00  0.00    +0.030 C 
ATOM     30  C   LIG    1        1.132  -6.644  -2.477  0.00  0.00    +0.080 C 
ATOM     31  O   LIG    1        0.974  -4.668  -1.089  0.00  0.00    -0.370 OA
ENDBRANCH  23  24
ENDBRANCH  21  23
ENDBRANCH   1  21
TORSDOF 9
