REMARK  Name = ZINCqH0000034MST.0
REMARK                            x       y       z     vdW  Elec       q    Type
REMARK                         _______ _______ _______ _____ _____    ______ ____
ROOT
ATOM      1  C   LIG    1       -0.029  -5.060  -0.024  0.00  0.00    +0.290 C 
ATOM      2  C   LIG    1       -0.470  -5.330   1.415  0.00  0.00    +0.030 C 
ENDROOT
BRANCH   1   7
ATOM      3  C   LIG    1        0.174  -8.248  -2.036  0.00  0.00    -0.670 A 
ATOM      4  C   LIG    1        1.461  -8.668  -1.758  0.00  0.00    +0.120 A 
ATOM      5  C   LIG    1        2.266  -7.921  -0.919  0.00  0.00    +0.010 A 
ATOM      6  C   LIG    1        1.784  -6.753  -0.357  0.00  0.00    +0.070 A 
ATOM      7  C   LIG    1        0.497  -6.333  -0.636  0.00  0.00    -0.110 A 
ATOM      8  C   LIG    1       -0.309  -7.082  -1.472  0.00  0.00    +0.130 A 
BRANCH   3   9
ATOM      9  S   LIG    1       -0.852  -9.201  -3.105  0.00  0.00    +2.700 S 
ATOM     10  O   LIG    1        0.022  -9.965  -3.925  0.00  0.00    -0.950 OA
ATOM     11  O   LIG    1       -1.825  -8.308  -3.629  0.00  0.00    -0.950 OA
BRANCH   9  13
ATOM     12  C   LIG    1       -2.641  -9.806  -1.170  0.00  0.00    +0.300 C 
ATOM     13  N   LIG    1       -1.673 -10.285  -2.160  0.00  0.00    -1.120 NA
ATOM     14  H   LIG    1       -1.513 -11.236  -2.261  0.00  0.00    +0.420 HD
ENDBRANCH   9  13
ENDBRANCH   3   9
ENDBRANCH   1   7
BRANCH   1  15
ATOM     15  N   LIG    1        1.026  -4.044  -0.029  0.00  0.00    -0.730 N 
ATOM     16  H   LIG    1        1.958  -4.312  -0.039  0.00  0.00    +0.400 HD
BRANCH  15  17
ATOM     17  C   LIG    1        0.690  -2.687  -0.019  0.00  0.00    +0.250 A 
ATOM     18  C   LIG    1       -0.649  -2.305  -0.004  0.00  0.00    -0.040 A 
ATOM     19  C   LIG    1       -0.993  -0.983   0.006  0.00  0.00    +0.130 A 
ATOM     20  C   LIG    1        0.002  -0.004   0.002  0.00  0.00    -0.030 A 
ATOM     21  N   LIG    1       -0.016   1.357   0.009  0.00  0.00    -0.470 NA
ATOM     22  C   LIG    1        1.207   1.793   0.000  0.00  0.00    +0.260 A 
ATOM     23  O   LIG    1        2.068   0.762  -0.014  0.00  0.00    -0.210 OA
ATOM     24  C   LIG    1        1.353  -0.384  -0.013  0.00  0.00    +0.060 A 
ATOM     25  C   LIG    1        1.691  -1.728  -0.023  0.00  0.00    -0.050 A 
BRANCH  22  26
ATOM     26  C   LIG    1        1.604   3.247   0.004  0.00  0.00    +0.050 C 
ATOM     27  C   LIG    1        0.497   4.280   0.223  0.00  0.00    +0.080 C 
ATOM     28  C   LIG    1        1.123   4.113  -1.163  0.00  0.00    +0.060 C 
ENDBRANCH  22  26
ENDBRANCH  15  17
ENDBRANCH   1  15
TORSDOF 6
