REMARK  Name = ZINCc70000002zKs.0
REMARK                            x       y       z     vdW  Elec       q    Type
REMARK                         _______ _______ _______ _____ _____    ______ ____
ROOT
ATOM      1  C   LIG    1       -0.017   1.426   0.010  0.00  0.00    +0.170 C 
ATOM      2  O   LIG    1        0.002  -0.004   0.002  0.00  0.00    -0.300 OA
ATOM      3  C   LIG    1        1.282   0.624  -0.007  0.00  0.00    +0.010 C 
ATOM      4  C   LIG    1        2.115   0.579   1.277  0.00  0.00    +0.090 C 
ATOM      5  C   LIG    1        3.101  -0.592   1.172  0.00  0.00    +0.010 C 
ATOM      6  C   LIG    1        3.899  -0.460  -0.127  0.00  0.00    +0.210 C 
ATOM      7  O   LIG    1        3.012  -0.503  -1.246  0.00  0.00    -0.370 OA
ATOM      8  C   LIG    1        2.092   0.593  -1.305  0.00  0.00    +0.270 C 
ENDROOT
BRANCH   1   9
ATOM      9  C   LIG    1       -0.425   2.130  -1.259  0.00  0.00    +0.470 C 
ATOM     10  O   LIG    1       -1.403   1.763  -1.866  0.00  0.00    -0.480 OA
BRANCH   9  12
ATOM     11  C   LIG    1       -0.152   3.795  -2.942  0.00  0.00    +0.280 C 
ATOM     12  O   LIG    1        0.299   3.164  -1.714  0.00  0.00    -0.350 OA
ENDBRANCH   9  12
ENDBRANCH   1   9
TORSDOF 2
