REMARK  Name = ZINCkj00000dCYNk.0
REMARK                            x       y       z     vdW  Elec       q    Type
REMARK                         _______ _______ _______ _____ _____    ______ ____
ROOT
ATOM      1  N   LIG    1        0.957  -2.837  -0.023  0.00  0.00    -0.720 N 
ATOM      2  H   LIG    1        0.004  -2.655  -0.012  0.00  0.00    +0.400 HD
ATOM      3  C   LIG    1        1.837  -1.817  -0.026  0.00  0.00    +0.600 C 
ATOM      4  O   LIG    1        3.032  -2.045  -0.040  0.00  0.00    -0.540 OA
ENDROOT
BRANCH   3   5
ATOM      5  C   LIG    1        1.353  -0.424  -0.014  0.00  0.00    -0.310 A 
ATOM      6  C   LIG    1        2.128   0.711  -0.016  0.00  0.00    +0.170 A 
ATOM      7  C   LIG    1        3.633   0.800  -0.032  0.00  0.00    +0.150 C 
ATOM      8  C   LIG    1        4.023   2.232  -0.422  0.00  0.00    +0.030 C 
ATOM      9  C   LIG    1        3.215   3.221   0.424  0.00  0.00    +0.040 C 
ATOM     10  C   LIG    1        1.742   3.170   0.004  0.00  0.00    +0.310 C 
ATOM     11  N   LIG    1        1.299   1.771  -0.001  0.00  0.00    -0.350 N 
ATOM     12  N   LIG    1       -0.016   1.302   0.009  0.00  0.00    -0.290 NA
ATOM     13  C   LIG    1        0.002  -0.004   0.002  0.00  0.00    +0.260 A 
ENDBRANCH   3   5
BRANCH   1  19
ATOM     14  C   LIG    1        1.098  -6.507   1.081  0.00  0.00    +0.080 C 
ATOM     15  C   LIG    1        0.441  -5.225   0.565  0.00  0.00    -0.070 C 
ATOM     16  C   LIG    1       -0.151  -5.362  -0.848  0.00  0.00    -0.040 C 
ATOM     17  C   LIG    1        1.227  -4.934  -1.381  0.00  0.00    +0.030 C 
ATOM     18  C   LIG    1       -0.522  -4.602   1.577  0.00  0.00    +0.040 C 
ATOM     19  C   LIG    1        1.438  -4.221  -0.035  0.00  0.00    +0.250 C 
BRANCH  16  20
ATOM     20  C   LIG    1       -0.533  -6.797  -1.215  0.00  0.00    +0.280 C 
BRANCH  20  21
ATOM     21  N   LIG    1       -1.195  -6.807  -2.527  0.00  0.00    -0.640 N 
ATOM     22  H   LIG    1       -1.448  -7.753  -2.769  0.00  0.00    +0.440 HD
ATOM     23  H   LIG    1       -0.566  -6.438  -3.224  0.00  0.00    +0.440 HD
ATOM     24  H   LIG    1       -2.027  -6.237  -2.488  0.00  0.00    +0.430 HD
ENDBRANCH  20  21
ENDBRANCH  16  20
ENDBRANCH   1  19
TORSDOF 4
