REMARK  Name = ZINCrD00000hQ4LT.0
REMARK                            x       y       z     vdW  Elec       q    Type
REMARK                         _______ _______ _______ _____ _____    ______ ____
ROOT
ATOM      1  C   LIG    1        0.115  -0.721   2.138  0.00  0.00    +0.010 C 
ATOM      2  C   LIG    1        0.581  -2.054   2.728  0.00  0.00    +0.010 C 
ATOM      3  C   LIG    1        1.266  -1.800   4.074  0.00  0.00    +0.280 C 
ATOM      4  N   LIG    1        0.347  -1.047   4.938  0.00  0.00    -0.610 N 
ATOM      5  C   LIG    1       -0.231   0.205   4.432  0.00  0.00    +0.260 C 
ATOM      6  C   LIG    1        0.041  -1.495   6.171  0.00  0.00    +0.520 C 
ATOM      7  O   LIG    1        0.459  -2.570   6.547  0.00  0.00    -0.510 OA
ATOM      8  C   LIG    1       -0.900  -0.071   3.081  0.00  0.00    +0.020 C 
ENDROOT
BRANCH   1   9
ATOM      9  C   LIG    1       -0.539  -0.967   0.777  0.00  0.00    -0.070 C 
ATOM     10  C   LIG    1       -1.743  -1.895   0.950  0.00  0.00    +0.020 C 
ATOM     11  C   LIG    1       -1.005   0.366   0.186  0.00  0.00    +0.030 C 
BRANCH   9  12
ATOM     12  C   LIG    1        0.475  -1.616  -0.167  0.00  0.00    +0.270 C 
BRANCH  12  14
ATOM     13  C   LIG    1        0.557  -2.418  -2.466  0.00  0.00    +0.540 C 
ATOM     14  N   LIG    1       -0.152  -1.851  -1.470  0.00  0.00    -0.720 N 
ATOM     15  H   LIG    1       -1.077  -1.599  -1.616  0.00  0.00    +0.400 HD
ATOM     16  O   LIG    1        1.717  -2.735  -2.283  0.00  0.00    -0.540 OA
BRANCH  13  18
ATOM     17  C   LIG    1        0.628  -3.215  -4.757  0.00  0.00    +0.140 C 
ATOM     18  C   LIG    1       -0.072  -2.655  -3.775  0.00  0.00    -0.090 C 
ENDBRANCH  13  18
ENDBRANCH  12  14
ENDBRANCH   9  12
ENDBRANCH   1   9
BRANCH   6  19
ATOM     19  C   LIG    1       -0.822  -0.662   7.084  0.00  0.00    +0.170 C 
ATOM     20  C   LIG    1       -0.058   0.598   7.497  0.00  0.00    +0.060 C 
BRANCH  19  21
ATOM     21  O   LIG    1       -1.156  -1.420   8.248  0.00  0.00    -0.290 OA
BRANCH  21  22
ATOM     22  C   LIG    1       -2.296  -1.077   8.902  0.00  0.00    +0.120 A 
ATOM     23  C   LIG    1       -2.744  -1.843   9.968  0.00  0.00    -0.010 A 
ATOM     24  C   LIG    1       -3.900  -1.488  10.635  0.00  0.00    +0.050 A 
ATOM     25  C   LIG    1       -4.618  -0.377  10.233  0.00  0.00    -0.120 A 
ATOM     26  C   LIG    1       -4.178   0.385   9.167  0.00  0.00    +0.050 A 
ATOM     27  C   LIG    1       -5.883   0.004  10.958  0.00  0.00    +0.100 C 
ATOM     28  C   LIG    1       -3.018   0.038   8.500  0.00  0.00    -0.080 A 
ENDBRANCH  21  22
ENDBRANCH  19  21
ENDBRANCH   6  19
TORSDOF 7
