REMARK  Name = ZINCrH000004jBSJ.0
REMARK                            x       y       z     vdW  Elec       q    Type
REMARK                         _______ _______ _______ _____ _____    ______ ____
ROOT
ATOM      1  N   LIG    1       -7.245  -0.184   3.877  0.00  0.00    -0.690 N 
ATOM      2  H   LIG    1       -6.834  -0.909   3.381  0.00  0.00    +0.410 HD
ATOM      3  C   LIG    1       -7.074   1.091   3.474  0.00  0.00    +0.700 C 
ATOM      4  N   LIG    1       -6.264   1.365   2.432  0.00  0.00    -0.740 N 
ATOM      5  H   LIG    1       -5.803   0.646   1.973  0.00  0.00    +0.400 HD
ATOM      6  O   LIG    1       -7.652   1.992   4.049  0.00  0.00    -0.570 OA
ENDROOT
BRANCH   1  10
ATOM      7  C   LIG    1       -9.533  -1.011   7.258  0.00  0.00    -0.160 A 
ATOM      8  C   LIG    1       -9.517  -1.908   6.186  0.00  0.00    +0.100 A 
ATOM      9  C   LIG    1       -8.760  -1.631   5.070  0.00  0.00    -0.030 A 
ATOM     10  C   LIG    1       -8.011  -0.461   5.009  0.00  0.00    +0.190 A 
ATOM     11  C   LIG    1       -8.020   0.432   6.076  0.00  0.00    +0.010 A 
ATOM     12  C   LIG    1       -8.779   0.164   7.193  0.00  0.00    +0.070 A 
BRANCH   7  15
ATOM     13  C   LIG    1      -10.870  -0.969  10.811  0.00  0.00    +0.300 C 
ATOM     14  N   LIG    1      -10.007  -0.766   9.645  0.00  0.00    -0.620 N 
ATOM     15  C   LIG    1      -10.343  -1.305   8.456  0.00  0.00    +0.560 C 
ATOM     16  O   LIG    1      -11.313  -2.033   8.371  0.00  0.00    -0.540 OA
ATOM     17  C   LIG    1       -8.779   0.022   9.771  0.00  0.00    +0.280 C 
ENDBRANCH   7  15
ENDBRANCH   1  10
BRANCH   4  18
ATOM     18  C   LIG    1       -6.079   2.751   1.994  0.00  0.00    +0.280 C 
BRANCH  18  19
ATOM     19  C   LIG    1       -5.119   2.785   0.803  0.00  0.00    -0.020 C 
ATOM     20  C   LIG    1       -3.790   2.202   1.241  0.00  0.00    +0.030 C 
ATOM     21  C   LIG    1       -2.862   1.993   0.042  0.00  0.00    +0.070 C 
ATOM     22  C   LIG    1       -2.125   3.288  -0.233  0.00  0.00    -0.080 A 
ATOM     23  C   LIG    1       -0.773   3.375   0.046  0.00  0.00    +0.000 A 
ATOM     24  C   LIG    1       -0.099   4.558  -0.199  0.00  0.00    +0.000 A 
ATOM     25  C   LIG    1       -0.777   5.647  -0.713  0.00  0.00    +0.000 A 
ATOM     26  C   LIG    1       -2.131   5.555  -0.985  0.00  0.00    +0.000 A 
ATOM     27  C   LIG    1       -2.799   4.369  -0.738  0.00  0.00    -0.080 A 
ATOM     28  C   LIG    1       -4.280   4.271  -1.038  0.00  0.00    +0.070 C 
ATOM     29  C   LIG    1       -5.040   4.209   0.290  0.00  0.00    +0.030 C 
ENDBRANCH  18  19
ENDBRANCH   4  18
TORSDOF 4
