REMARK  Name = ZINCpe00000Mzg1r.0
REMARK                            x       y       z     vdW  Elec       q    Type
REMARK                         _______ _______ _______ _____ _____    ______ ____
ROOT
ATOM      1  C   LIG    1        2.722   6.014  -2.328  0.00  0.00    +0.520 C 
ATOM      2  N   LIG    1        1.938   5.512  -1.354  0.00  0.00    -0.720 N 
ATOM      3  H   LIG    1        2.289   4.845  -0.744  0.00  0.00    +0.400 HD
ATOM      4  O   LIG    1        2.283   6.849  -3.090  0.00  0.00    -0.510 OA
ENDROOT
BRANCH   1  11
ATOM      5  C   LIG    1        5.674   8.702  -4.109  0.00  0.00    +0.100 C 
ATOM      6  C   LIG    1        4.803   7.839  -3.233  0.00  0.00    +0.530 C 
ATOM      7  N   LIG    1        4.929   6.497  -3.270  0.00  0.00    -0.610 N 
ATOM      8  C   LIG    1        5.871   5.748  -4.114  0.00  0.00    +0.230 C 
ATOM      9  C   LIG    1        5.639   4.248  -3.840  0.00  0.00    +0.180 C 
ATOM     10  C   LIG    1        4.193   4.217  -3.278  0.00  0.00    +0.080 C 
ATOM     11  C   LIG    1        4.145   5.538  -2.471  0.00  0.00    +0.220 C 
ATOM     12  O   LIG    1        3.987   8.351  -2.496  0.00  0.00    -0.520 OA
BRANCH   9  13
ATOM     13  O   LIG    1        5.731   3.493  -5.049  0.00  0.00    -0.550 OA
ATOM     14  H   LIG    1        6.596   3.543  -5.479  0.00  0.00    +0.390 HD
ENDBRANCH   9  13
ENDBRANCH   1  11
BRANCH   2  15
ATOM     15  C   LIG    1        0.555   5.975  -1.215  0.00  0.00    +0.270 C 
BRANCH  15  16
ATOM     16  C   LIG    1       -0.096   5.285  -0.014  0.00  0.00    -0.030 C 
ATOM     17  C   LIG    1       -1.521   5.816   0.171  0.00  0.00    +0.020 C 
ATOM     18  C   LIG    1       -2.355   5.455  -1.061  0.00  0.00    +0.210 C 
ATOM     19  O   LIG    1       -2.339   4.038  -1.249  0.00  0.00    -0.380 OA
ATOM     20  C   LIG    1       -1.037   3.494  -1.475  0.00  0.00    +0.210 C 
ATOM     21  C   LIG    1       -0.151   3.774  -0.259  0.00  0.00    +0.010 C 
BRANCH  16  22
ATOM     22  C   LIG    1        0.712   5.566   1.227  0.00  0.00    -0.070 A 
ATOM     23  C   LIG    1        0.810   6.857   1.710  0.00  0.00    +0.010 A 
ATOM     24  C   LIG    1        1.550   7.115   2.849  0.00  0.00    +0.010 A 
ATOM     25  C   LIG    1        2.191   6.081   3.505  0.00  0.00    +0.000 A 
ATOM     26  C   LIG    1        2.098   4.790   3.018  0.00  0.00    +0.000 A 
ATOM     27  C   LIG    1        1.354   4.532   1.882  0.00  0.00    +0.010 A 
ENDBRANCH  16  22
ENDBRANCH  15  16
ENDBRANCH   2  15
TORSDOF 5
