REMARK  Name = ZINCrH000004niJg.0
REMARK                            x       y       z     vdW  Elec       q    Type
REMARK                         _______ _______ _______ _____ _____    ______ ____
ROOT
ATOM      1  C   LIG    1       -0.831   3.078  -1.448  0.00  0.00    +0.560 C 
ATOM      2  N   LIG    1       -1.777   3.679  -2.196  0.00  0.00    -0.610 N 
ATOM      3  C   LIG    1       -3.150   3.151  -2.250  0.00  0.00    +0.250 C 
ATOM      4  C   LIG    1       -4.122   4.302  -1.970  0.00  0.00    +0.220 C 
ATOM      5  O   LIG    1       -3.826   5.391  -2.848  0.00  0.00    -0.370 OA
ATOM      6  C   LIG    1       -2.523   5.950  -2.668  0.00  0.00    +0.190 C 
ATOM      7  C   LIG    1       -1.470   4.886  -2.979  0.00  0.00    +0.280 C 
ATOM      8  O   LIG    1        0.266   3.582  -1.338  0.00  0.00    -0.520 OA
ENDROOT
BRANCH   6   9
ATOM      9  C   LIG    1       -2.345   7.123  -3.598  0.00  0.00    -0.090 A 
ATOM     10  C   LIG    1       -2.925   7.104  -4.853  0.00  0.00    +0.070 A 
ATOM     11  C   LIG    1       -2.764   8.179  -5.706  0.00  0.00    -0.010 A 
ATOM     12  C   LIG    1       -2.021   9.275  -5.304  0.00  0.00    +0.100 A 
ATOM     13  C   LIG    1       -1.440   9.294  -4.047  0.00  0.00    -0.120 A 
ATOM     14  C   LIG    1       -0.632  10.487  -3.607  0.00  0.00    +0.100 C 
ATOM     15  F   LIG    1       -1.862  10.327  -6.137  0.00  0.00    -0.140 F 
ATOM     16  C   LIG    1       -1.607   8.220  -3.193  0.00  0.00    +0.050 A 
ENDBRANCH   6   9
BRANCH   1  17
ATOM     17  C   LIG    1       -1.137   1.778  -0.749  0.00  0.00    -0.120 C 
ATOM     18  C   LIG    1       -1.642   0.616  -1.606  0.00  0.00    +0.060 C 
ATOM     19  C   LIG    1       -0.221   0.586  -1.040  0.00  0.00    +0.090 C 
BRANCH  17  24
ATOM     20  C   LIG    1       -1.858   3.109   2.713  0.00  0.00    +0.130 A 
ATOM     21  C   LIG    1       -2.712   2.135   3.209  0.00  0.00    -0.080 A 
ATOM     22  C   LIG    1       -3.052   1.050   2.424  0.00  0.00    +0.060 A 
ATOM     23  C   LIG    1       -2.542   0.936   1.144  0.00  0.00    -0.020 A 
ATOM     24  C   LIG    1       -1.691   1.906   0.647  0.00  0.00    -0.000 A 
ATOM     25  C   LIG    1       -1.344   2.989   1.431  0.00  0.00    -0.010 A 
BRANCH  20  27
ATOM     26  C   LIG    1       -2.085   4.231   4.797  0.00  0.00    +0.250 C 
ATOM     27  O   LIG    1       -1.522   4.176   3.485  0.00  0.00    -0.320 OA
ENDBRANCH  20  27
ENDBRANCH  17  24
ENDBRANCH   1  17
TORSDOF 4
