REMARK  Name = ZINCpk000000mRP0.0
REMARK                            x       y       z     vdW  Elec       q    Type
REMARK                         _______ _______ _______ _____ _____    ______ ____
ROOT
ATOM      1  C   LIG    1        7.010  -0.071  -0.637  0.00  0.00    +0.100 C 
ATOM      2  C   LIG    1        5.733  -0.841  -0.856  0.00  0.00    +0.510 C 
ATOM      3  N   LIG    1        4.557  -0.187  -0.936  0.00  0.00    -0.620 N 
ATOM      4  C   LIG    1        4.515   1.282  -0.916  0.00  0.00    +0.270 C 
ATOM      5  C   LIG    1        3.584   1.731   0.217  0.00  0.00    +0.290 C 
ATOM      6  N   LIG    1        2.321   0.988   0.109  0.00  0.00    -0.630 N 
ATOM      7  C   LIG    1        2.362  -0.481   0.095  0.00  0.00    +0.270 C 
ATOM      8  C   LIG    1        1.145   1.642   0.029  0.00  0.00    +0.710 C 
ATOM      9  N   LIG    1       -0.012   0.951   0.037  0.00  0.00    -0.740 N 
ATOM     10  H   LIG    1        0.002  -0.019   0.026  0.00  0.00    +0.400 HD
ATOM     11  O   LIG    1        1.128   2.855  -0.049  0.00  0.00    -0.580 OA
ATOM     12  C   LIG    1        3.294  -0.930  -1.044  0.00  0.00    +0.280 C 
ATOM     13  O   LIG    1        5.763  -2.049  -0.960  0.00  0.00    -0.540 OA
ENDROOT
BRANCH   9  14
ATOM     14  C   LIG    1       -1.291   1.665   0.055  0.00  0.00    +0.350 C 
BRANCH  14  15
ATOM     15  C   LIG    1       -2.422   0.669   0.054  0.00  0.00    -0.200 A 
ATOM     16  C   LIG    1       -2.939   0.193   1.251  0.00  0.00    +0.110 A 
ATOM     17  C   LIG    1       -3.977  -0.721   1.205  0.00  0.00    -0.050 A 
ATOM     18  C   LIG    1       -4.465  -1.128  -0.032  0.00  0.00    +0.320 A 
ATOM     19  N   LIG    1       -3.946  -0.651  -1.152  0.00  0.00    -0.520 NA
ATOM     20  C   LIG    1       -2.959   0.225  -1.139  0.00  0.00    +0.310 A 
BRANCH  18  21
ATOM     21  N   LIG    1       -5.508  -2.046  -0.092  0.00  0.00    -0.480 N 
ATOM     22  C   LIG    1       -5.172  -3.274   0.640  0.00  0.00    +0.190 C 
ATOM     23  C   LIG    1       -6.392  -4.198   0.675  0.00  0.00    +0.020 C 
ATOM     24  C   LIG    1       -6.813  -4.534  -0.758  0.00  0.00    +0.000 C 
ATOM     25  C   LIG    1       -7.111  -3.236  -1.512  0.00  0.00    +0.020 C 
ATOM     26  C   LIG    1       -5.870  -2.339  -1.485  0.00  0.00    +0.210 C 
ENDBRANCH  18  21
ENDBRANCH  14  15
ENDBRANCH   9  14
TORSDOF 3
