REMARK  Name = ZINCrD000000C7A7.0
REMARK                            x       y       z     vdW  Elec       q    Type
REMARK                         _______ _______ _______ _____ _____    ______ ____
ROOT
ATOM      1  O   LIG    1       -2.400   0.209   0.272  0.00  0.00    -0.480 OA
ATOM      2  C   LIG    1       -2.397   1.392   0.002  0.00  0.00    +0.510 C 
ATOM      3  N   LIG    1       -1.228   2.050  -0.132  0.00  0.00    -0.640 N 
ATOM      4  H   LIG    1       -1.226   3.006  -0.295  0.00  0.00    +0.430 HD
ENDROOT
BRANCH   2   5
ATOM      5  C   LIG    1       -3.688   2.119  -0.183  0.00  0.00    +0.510 C 
ATOM      6  N   LIG    1       -4.851   1.438  -0.182  0.00  0.00    -0.580 N 
ATOM      7  C   LIG    1       -4.859  -0.031  -0.196  0.00  0.00    +0.280 C 
ATOM      8  C   LIG    1       -5.727  -0.513  -1.357  0.00  0.00    +0.030 C 
ATOM      9  C   LIG    1       -7.115   0.122  -1.250  0.00  0.00    +0.040 C 
ATOM     10  C   LIG    1       -6.990   1.645  -1.338  0.00  0.00    -0.030 C 
ATOM     11  C   LIG    1       -6.136   2.151  -0.172  0.00  0.00    +0.310 C 
ATOM     12  O   LIG    1       -3.691   3.323  -0.335  0.00  0.00    -0.510 OA
BRANCH  10  13
ATOM     13  C   LIG    1       -8.382   2.276  -1.265  0.00  0.00    +0.460 C 
ATOM     14  F   LIG    1       -8.990   1.925  -0.055  0.00  0.00    -0.180 F 
ATOM     15  F   LIG    1       -9.161   1.814  -2.330  0.00  0.00    -0.180 F 
ATOM     16  F   LIG    1       -8.266   3.668  -1.341  0.00  0.00    -0.180 F 
ENDBRANCH  10  13
ENDBRANCH   2   5
BRANCH   3  17
ATOM     17  C   LIG    1       -0.020   1.355  -0.035  0.00  0.00    +0.180 A 
ATOM     18  C   LIG    1        1.060   1.723  -0.827  0.00  0.00    -0.040 A 
ATOM     19  C   LIG    1        2.256   1.039  -0.727  0.00  0.00    +0.080 A 
ATOM     20  C   LIG    1        2.382  -0.013   0.161  0.00  0.00    -0.080 A 
ATOM     21  C   LIG    1        1.306  -0.385   0.955  0.00  0.00    +0.140 A 
ATOM     22  C   LIG    1        0.104   0.298   0.858  0.00  0.00    +0.010 A 
BRANCH  21  23
ATOM     23  O   LIG    1        1.431  -1.419   1.828  0.00  0.00    -0.300 OA
BRANCH  23  24
ATOM     24  C   LIG    1        2.698  -2.078   1.875  0.00  0.00    +0.230 C 
BRANCH  24  25
ATOM     25  C   LIG    1        2.648  -3.207   2.907  0.00  0.00    +0.470 C 
ATOM     26  F   LIG    1        2.352  -2.674   4.167  0.00  0.00    -0.170 F 
ATOM     27  F   LIG    1        3.888  -3.852   2.954  0.00  0.00    -0.170 F 
ATOM     28  F   LIG    1        1.657  -4.126   2.545  0.00  0.00    -0.170 F 
ENDBRANCH  24  25
ENDBRANCH  23  24
ENDBRANCH  21  23
ENDBRANCH   3  17
TORSDOF 6
