REMARK  Name = ZINCqH0000001NZA.0
REMARK                            x       y       z     vdW  Elec       q    Type
REMARK                         _______ _______ _______ _____ _____    ______ ____
ROOT
ATOM      1  N   LIG    1        4.392   0.960   7.942  0.00  0.00    -0.720 N 
ATOM      2  H   LIG    1        3.978   0.086   8.014  0.00  0.00    +0.410 HD
ATOM      3  C   LIG    1        5.327   1.338   8.836  0.00  0.00    +0.520 C 
ATOM      4  O   LIG    1        5.845   2.431   8.747  0.00  0.00    -0.520 OA
ENDROOT
BRANCH   1   5
ATOM      5  C   LIG    1        4.001   1.869   6.862  0.00  0.00    +0.330 C 
BRANCH   5   8
ATOM      6  N   LIG    1        2.435   1.867   4.948  0.00  0.00    -0.620 N 
ATOM      7  H   LIG    1        2.744   2.761   4.734  0.00  0.00    +0.430 HD
ATOM      8  C   LIG    1        2.948   1.212   6.008  0.00  0.00    +0.510 C 
ATOM      9  O   LIG    1        2.562   0.094   6.276  0.00  0.00    -0.500 OA
BRANCH   6  13
ATOM     10  C   LIG    1        0.000   1.080   2.488  0.00  0.00    +0.100 A 
ATOM     11  C   LIG    1       -0.223  -0.124   3.019  0.00  0.00    -0.130 A 
ATOM     12  S   LIG    1        0.830  -0.306   4.420  0.00  0.00    +0.240 S 
ATOM     13  C   LIG    1        1.464   1.260   4.160  0.00  0.00    +0.230 A 
ATOM     14  N   LIG    1        0.906   1.800   3.122  0.00  0.00    -0.500 NA
BRANCH  10  16
ATOM     15  C   LIG    1       -0.013   1.086   0.008  0.00  0.00    +0.040 C 
ATOM     16  C   LIG    1       -0.729   1.579   1.267  0.00  0.00    +0.070 C 
ATOM     17  C   LIG    1       -2.164   1.050   1.278  0.00  0.00    +0.030 C 
ENDBRANCH  10  16
ENDBRANCH   6  13
ENDBRANCH   5   8
ENDBRANCH   1   5
BRANCH   3  18
ATOM     18  C   LIG    1        5.729   0.402   9.947  0.00  0.00    +0.120 C 
BRANCH  18  19
ATOM     19  C   LIG    1        6.782   1.060  10.801  0.00  0.00    -0.060 A 
ATOM     20  C   LIG    1        8.101   0.818  10.568  0.00  0.00    +0.020 A 
ATOM     21  C   LIG    1        9.090   1.421  11.344  0.00  0.00    +0.010 A 
ATOM     22  C   LIG    1        8.765   2.261  12.364  0.00  0.00    +0.030 A 
ATOM     23  C   LIG    1        7.413   2.530  12.639  0.00  0.00    -0.050 A 
ATOM     24  C   LIG    1        7.039   3.392  13.684  0.00  0.00    +0.030 A 
ATOM     25  C   LIG    1        5.720   3.630  13.921  0.00  0.00    +0.000 A 
ATOM     26  C   LIG    1        4.732   3.031  13.142  0.00  0.00    +0.010 A 
ATOM     27  C   LIG    1        5.057   2.191  12.121  0.00  0.00    +0.010 A 
ATOM     28  C   LIG    1        6.408   1.921  11.847  0.00  0.00    -0.030 A 
ENDBRANCH  18  19
ENDBRANCH   3  18
TORSDOF 6
