REMARK  Name = ZINCkj000005jtHY.1
REMARK                            x       y       z     vdW  Elec       q    Type
REMARK                         _______ _______ _______ _____ _____    ______ ____
ROOT
ATOM      1  C   LIG    1        1.934  -2.642  -0.452  0.00  0.00    +0.040 C 
ATOM      2  C   LIG    1        0.694  -2.126  -1.183  0.00  0.00    +0.240 C 
ATOM      3  C   LIG    1        0.822  -2.402  -2.693  0.00  0.00    +0.040 C 
ATOM      4  C   LIG    1        0.812  -1.007  -3.358  0.00  0.00    +0.060 C 
ATOM      5  C   LIG    1        1.242  -0.071  -2.205  0.00  0.00    +0.270 C 
ATOM      6  N   LIG    1        0.585  -0.664  -1.018  0.00  0.00    -0.590 N 
ATOM      7  C   LIG    1        0.002  -0.004   0.002  0.00  0.00    +0.520 C 
ATOM      8  O   LIG    1       -0.506  -0.622   0.913  0.00  0.00    -0.520 OA
ENDROOT
BRANCH   7   9
ATOM      9  C   LIG    1       -0.018   1.503   0.010  0.00  0.00    +0.140 C 
ATOM     10  C   LIG    1        1.418   2.033  -0.001  0.00  0.00    +0.280 C 
ATOM     11  O   LIG    1        1.393   3.462   0.064  0.00  0.00    -0.350 OA
ATOM     12  C   LIG    1        0.714   3.973   1.214  0.00  0.00    +0.270 C 
ATOM     13  C   LIG    1       -0.723   3.446   1.227  0.00  0.00    +0.250 C 
ATOM     14  N   LIG    1       -0.704   1.977   1.220  0.00  0.00    -0.490 N 
ATOM     15  H   LIG    1       -0.215   1.643   2.037  0.00  0.00    +0.430 HD
ATOM     16  H   LIG    1       -1.651   1.628   1.229  0.00  0.00    +0.440 HD
ENDBRANCH   7   9
BRANCH   3  17
ATOM     17  C   LIG    1       -0.347  -3.221  -3.176  0.00  0.00    -0.090 A 
ATOM     18  C   LIG    1       -1.634  -2.735  -3.042  0.00  0.00    -0.010 A 
ATOM     19  C   LIG    1       -2.707  -3.483  -3.490  0.00  0.00    +0.000 A 
ATOM     20  C   LIG    1       -2.493  -4.723  -4.062  0.00  0.00    +0.020 A 
ATOM     21  C   LIG    1       -1.206  -5.212  -4.192  0.00  0.00    +0.020 A 
ATOM     22  C   LIG    1       -0.133  -4.461  -3.749  0.00  0.00    +0.020 A 
ENDBRANCH   3  17
TORSDOF 2
