REMARK  Name = ZINCr2000014eRZv.0
REMARK                            x       y       z     vdW  Elec       q    Type
REMARK                         _______ _______ _______ _____ _____    ______ ____
ROOT
ATOM      1  S   LIG    1        7.593  -1.470   3.281  0.00  0.00    -0.100 S 
ENDROOT
BRANCH   1   2
ATOM      2  C   LIG    1        5.924  -1.356   2.579  0.00  0.00    +0.070 C 
BRANCH   2   8
ATOM      3  N   LIG    1        2.410   1.040  -0.015  0.00  0.00    -0.520 NA
ATOM      4  C   LIG    1        2.465   0.263   1.230  0.00  0.00    +0.180 C 
ATOM      5  C   LIG    1        3.538  -0.824   1.102  0.00  0.00    +0.280 C 
ATOM      6  N   LIG    1        4.804  -0.187   0.709  0.00  0.00    -0.610 N 
ATOM      7  C   LIG    1        4.798   0.717  -0.451  0.00  0.00    +0.300 C 
ATOM      8  C   LIG    1        5.940  -0.426   1.394  0.00  0.00    +0.540 C 
ATOM      9  O   LIG    1        6.976   0.107   1.056  0.00  0.00    -0.520 OA
ATOM     10  C   LIG    1        3.676   1.744  -0.262  0.00  0.00    +0.170 C 
BRANCH   3  11
ATOM     11  C   LIG    1        1.280   1.980   0.001  0.00  0.00    +0.210 C 
BRANCH  11  15
ATOM     12  N   LIG    1       -1.191   1.867   0.018  0.00  0.00    -0.860 N 
ATOM     13  H   LIG    1       -1.204   2.837   0.023  0.00  0.00    +0.400 HD
ATOM     14  H   LIG    1       -2.024   1.370   0.019  0.00  0.00    +0.400 HD
ATOM     15  C   LIG    1       -0.014   1.209   0.009  0.00  0.00    +0.520 C 
ATOM     16  O   LIG    1        0.002  -0.004   0.002  0.00  0.00    -0.520 OA
ENDBRANCH  11  15
ENDBRANCH   3  11
ENDBRANCH   2   8
ENDBRANCH   1   2
BRANCH   1  17
ATOM     17  C   LIG    1        7.373  -2.614   4.672  0.00  0.00    +0.070 C 
BRANCH  17  18
ATOM     18  C   LIG    1        8.694  -2.815   5.370  0.00  0.00    +0.540 C 
ATOM     19  N   LIG    1        8.773  -3.631   6.440  0.00  0.00    -0.610 N 
ATOM     20  C   LIG    1        7.581  -4.328   6.947  0.00  0.00    +0.290 C 
ATOM     21  C   LIG    1        7.919  -5.822   7.084  0.00  0.00    +0.190 C 
ATOM     22  N   LIG    1        9.124  -5.972   7.910  0.00  0.00    -0.520 NA
ATOM     23  C   LIG    1       10.290  -5.349   7.269  0.00  0.00    +0.170 C 
ATOM     24  C   LIG    1       10.051  -3.841   7.136  0.00  0.00    +0.300 C 
ATOM     25  O   LIG    1        9.685  -2.244   4.969  0.00  0.00    -0.520 OA
BRANCH  22  26
ATOM     26  C   LIG    1        9.383  -7.386   8.211  0.00  0.00    +0.210 C 
BRANCH  26  27
ATOM     27  C   LIG    1        8.275  -7.925   9.079  0.00  0.00    +0.520 C 
ATOM     28  O   LIG    1        7.361  -7.202   9.414  0.00  0.00    -0.520 OA
ATOM     29  N   LIG    1        8.301  -9.210   9.484  0.00  0.00    -0.860 N 
ATOM     30  H   LIG    1        7.588  -9.557  10.043  0.00  0.00    +0.400 HD
ATOM     31  H   LIG    1        9.032  -9.789   9.217  0.00  0.00    +0.400 HD
ENDBRANCH  26  27
ENDBRANCH  22  26
ENDBRANCH  17  18
ENDBRANCH   1  17
TORSDOF 8
