REMARK  Name = ZINCrD000000BsR1.0
REMARK                            x       y       z     vdW  Elec       q    Type
REMARK                         _______ _______ _______ _____ _____    ______ ____
ROOT
ATOM      1  C   LIG    1       -3.304  -1.939  -2.997  0.00  0.00    -0.090 A 
ATOM      2  C   LIG    1       -2.540  -1.466  -4.065  0.00  0.00    +0.010 A 
ATOM      3  C   LIG    1       -2.948  -1.702  -5.362  0.00  0.00    +0.050 A 
ATOM      4  C   LIG    1       -4.118  -2.395  -5.608  0.00  0.00    -0.060 A 
ATOM      5  C   LIG    1       -4.888  -2.865  -4.552  0.00  0.00    +0.120 A 
ATOM      6  C   LIG    1       -4.485  -2.640  -3.247  0.00  0.00    +0.060 A 
ENDROOT
BRANCH   1   8
ATOM      7  O   LIG    1       -3.536  -2.104  -0.678  0.00  0.00    -0.530 OA
ATOM      8  C   LIG    1       -2.867  -1.694  -1.606  0.00  0.00    +0.560 C 
ATOM      9  N   LIG    1       -1.726  -1.018  -1.367  0.00  0.00    -0.720 N 
ATOM     10  H   LIG    1       -1.192  -0.691  -2.108  0.00  0.00    +0.400 HD
BRANCH   9  11
ATOM     11  C   LIG    1       -1.293  -0.775   0.011  0.00  0.00    +0.320 C 
BRANCH  11  12
ATOM     12  C   LIG    1        0.002  -0.004   0.002  0.00  0.00    -0.110 A 
ATOM     13  C   LIG    1       -0.017   1.378   0.010  0.00  0.00    +0.020 A 
ATOM     14  C   LIG    1        1.171   2.086   0.002  0.00  0.00    +0.010 A 
ATOM     15  C   LIG    1        2.377   1.411  -0.015  0.00  0.00    +0.010 A 
ATOM     16  C   LIG    1        2.396   0.029  -0.022  0.00  0.00    +0.010 A 
ATOM     17  C   LIG    1        1.208  -0.679  -0.013  0.00  0.00    +0.020 A 
ENDBRANCH  11  12
ENDBRANCH   9  11
ENDBRANCH   1   8
BRANCH   5  18
ATOM     18  O   LIG    1       -6.037  -3.547  -4.800  0.00  0.00    -0.290 OA
BRANCH  18  19
ATOM     19  C   LIG    1       -6.393  -3.743  -6.170  0.00  0.00    +0.220 C 
BRANCH  19  20
ATOM     20  C   LIG    1       -7.686  -4.512  -6.248  0.00  0.00    +0.510 C 
ATOM     21  N   LIG    1       -8.218  -4.816  -7.449  0.00  0.00    -0.600 N 
ATOM     22  C   LIG    1       -7.527  -4.384  -8.643  0.00  0.00    +0.270 C 
ATOM     23  C   LIG    1       -8.007  -2.974  -9.047  0.00  0.00    -0.000 C 
ATOM     24  C   LIG    1       -9.381  -3.034  -9.570  0.00  0.00    +0.000 C 
ATOM     25  C   LIG    1      -10.418  -3.513  -8.558  0.00  0.00    +0.010 C 
ATOM     26  C   LIG    1      -10.454  -5.021  -8.555  0.00  0.00    +0.020 C 
ATOM     27  C   LIG    1       -9.486  -5.570  -7.490  0.00  0.00    +0.270 C 
ATOM     28  O   LIG    1       -8.248  -4.859  -5.231  0.00  0.00    -0.510 OA
ENDBRANCH  19  20
ENDBRANCH  18  19
ENDBRANCH   5  18
TORSDOF 6
