REMARK  Name = ZINCrD000000AjsT.0
REMARK                            x       y       z     vdW  Elec       q    Type
REMARK                         _______ _______ _______ _____ _____    ______ ____
ROOT
ATOM      1  O   LIG    1       -1.421  -0.119  -1.696  0.00  0.00    -0.530 OA
ATOM      2  C   LIG    1       -0.731  -0.703  -0.887  0.00  0.00    +0.520 C 
ATOM      3  N   LIG    1        0.002  -0.004   0.002  0.00  0.00    -0.620 N 
ATOM      4  C   LIG    1        0.847  -0.690   0.993  0.00  0.00    +0.250 C 
ATOM      5  C   LIG    1        2.252  -0.082   0.934  0.00  0.00    +0.230 C 
ATOM      6  O   LIG    1        2.156   1.340   1.057  0.00  0.00    -0.370 OA
ATOM      7  C   LIG    1        1.430   1.970  -0.001  0.00  0.00    +0.210 C 
ATOM      8  C   LIG    1       -0.018   1.467   0.010  0.00  0.00    +0.280 C 
ENDROOT
BRANCH   7   9
ATOM      9  C   LIG    1        1.445   3.464   0.199  0.00  0.00    -0.130 A 
ATOM     10  C   LIG    1        1.615   3.990   1.466  0.00  0.00    +0.120 A 
ATOM     11  C   LIG    1        1.634   5.359   1.650  0.00  0.00    -0.010 A 
ATOM     12  C   LIG    1        1.473   6.207   0.567  0.00  0.00    +0.140 A 
ATOM     13  C   LIG    1        1.297   5.681  -0.702  0.00  0.00    -0.040 A 
ATOM     14  F   LIG    1        1.487   7.545   0.748  0.00  0.00    -0.130 F 
ATOM     15  C   LIG    1        1.284   4.309  -0.886  0.00  0.00    +0.140 A 
ATOM     16  F   LIG    1        1.113   3.796  -2.124  0.00  0.00    -0.130 F 
ENDBRANCH   7   9
BRANCH   2  17
ATOM     17  C   LIG    1       -0.694  -2.209  -0.876  0.00  0.00    +0.080 C 
BRANCH  17  18
ATOM     18  C   LIG    1       -1.608  -2.751  -1.977  0.00  0.00    +0.170 C 
BRANCH  18  19
ATOM     19  C   LIG    1       -1.571  -4.257  -1.965  0.00  0.00    +0.290 A 
ATOM     20  N   LIG    1       -0.490  -4.977  -2.052  0.00  0.00    -0.490 NA
ATOM     21  C   LIG    1       -0.815  -6.295  -2.011  0.00  0.00    +0.050 A 
ATOM     22  C   LIG    1       -0.067  -7.473  -2.064  0.00  0.00    +0.070 A 
ATOM     23  C   LIG    1       -0.698  -8.684  -1.997  0.00  0.00    +0.000 A 
ATOM     24  C   LIG    1       -2.078  -8.756  -1.877  0.00  0.00    +0.030 A 
ATOM     25  C   LIG    1       -2.837  -7.606  -1.822  0.00  0.00    +0.010 A 
ATOM     26  C   LIG    1       -2.213  -6.368  -1.889  0.00  0.00    +0.050 A 
ATOM     27  N   LIG    1       -2.662  -5.062  -1.857  0.00  0.00    -0.600 N 
ATOM     28  H   LIG    1       -3.584  -4.773  -1.775  0.00  0.00    +0.420 HD
ENDBRANCH  18  19
ENDBRANCH  17  18
ENDBRANCH   2  17
TORSDOF 4
