REMARK  Name = ZINCb80000002EO0.0
REMARK                            x       y       z     vdW  Elec       q    Type
REMARK                         _______ _______ _______ _____ _____    ______ ____
ROOT
ATOM      1  CA  LIG    1        4.123   0.606   1.407  0.00  0.00    +0.100 C 
ENDROOT
BRANCH   1   2
ATOM      2  N   LIG    1        3.712  -0.644   2.062  0.00  0.00    -0.610 N 
ATOM      3  H1  LIG    1        4.058  -0.657   3.010  0.00  0.00    +0.430 HD
ATOM      4  H2  LIG    1        4.091  -1.430   1.555  0.00  0.00    +0.430 HD
ATOM      5  H3  LIG    1        2.705  -0.704   2.070  0.00  0.00    +0.410 HD
ENDBRANCH   1   2
BRANCH   1   6
ATOM      6  C   LIG    1        5.628   0.695   1.395  0.00  0.00    +0.490 C 
ATOM      7  OXT LIG    1        6.298  -0.323   1.353  0.00  0.00    -0.660 OA
ATOM      8  O   LIG    1        6.174   1.784   1.426  0.00  0.00    -0.630 OA
ENDBRANCH   1   6
BRANCH   1   9
ATOM      9  C   LIG    1        3.599   0.625  -0.030  0.00  0.00    +0.190 C 
BRANCH   9  10
ATOM     10  C   LIG    1        2.092   0.660  -0.014  0.00  0.00    -0.060 A 
ATOM     11  C   LIG    1        1.331   1.769  -0.001  0.00  0.00    -0.020 A 
ATOM     12  C   LIG    1       -0.016   1.341   0.009  0.00  0.00    -0.060 A 
ATOM     13  C   LIG    1        0.002  -0.004   0.002  0.00  0.00    +0.180 A 
ATOM     14  O   LIG    1        1.282  -0.411  -0.012  0.00  0.00    -0.190 OA
ENDBRANCH   9  10
ENDBRANCH   1   9
TORSDOF 4
