REMARK  Name = ZINCAx0000000dpa.0
REMARK                            x       y       z     vdW  Elec       q    Type
REMARK                         _______ _______ _______ _____ _____    ______ ____
ROOT
ATOM      1  C   LIG    1       -4.971   3.557  -0.006  0.00  0.00    +0.350 C 
ATOM      2  N   LIG    1       -3.651   2.923   0.011  0.00  0.00    -0.560 N 
ATOM      3  C   LIG    1       -2.545   3.689   0.116  0.00  0.00    +0.580 A 
ATOM      4  C   LIG    1       -1.233   3.030   0.136  0.00  0.00    -0.440 A 
ATOM      5  C   LIG    1       -1.199   1.629   0.035  0.00  0.00    +0.560 A 
ATOM      6  N   LIG    1       -2.378   0.945  -0.066  0.00  0.00    -0.540 N 
ATOM      7  O   LIG    1       -2.634   4.900   0.196  0.00  0.00    -0.500 OA
ATOM      8  C   LIG    1       -3.557   1.586  -0.077  0.00  0.00    +0.710 A 
ATOM      9  O   LIG    1       -4.577   0.932  -0.170  0.00  0.00    -0.520 OA
ENDROOT
BRANCH   5  10
ATOM     10  N   LIG    1       -0.013   0.963   0.044  0.00  0.00    -0.800 N 
ATOM     11  H   LIG    1        0.766   1.365   0.461  0.00  0.00    +0.440 HD
ATOM     12  H   LIG    1        0.056   0.088  -0.370  0.00  0.00    +0.410 HD
ENDBRANCH   5  10
BRANCH   4  13
ATOM     13  C   LIG    1       -0.043   3.781   0.248  0.00  0.00    +0.440 C 
ATOM     14  O   LIG    1        1.035   3.229   0.152  0.00  0.00    -0.480 OA
BRANCH  13  15
ATOM     15  C   LIG    1       -0.110   5.267   0.488  0.00  0.00    +0.260 C 
BRANCH  15  16
ATOM     16  O   LIG    1        1.236   5.806   0.566  0.00  0.00    -0.340 OA
BRANCH  16  17
ATOM     17  C   LIG    1        1.353   7.126   0.777  0.00  0.00    +0.460 C 
ATOM     18  O   LIG    1        0.364   7.809   0.894  0.00  0.00    -0.500 OA
BRANCH  17  19
ATOM     19  C   LIG    1        2.719   7.757   0.869  0.00  0.00    +0.110 C 
BRANCH  19  20
ATOM     20  C   LIG    1        2.571   9.260   1.112  0.00  0.00    +0.170 C 
BRANCH  20  21
ATOM     21  C   LIG    1        3.937   9.890   1.204  0.00  0.00    -0.010 A 
ATOM     22  C   LIG    1        4.642  10.393   0.171  0.00  0.00    -0.050 A 
ATOM     23  C   LIG    1        5.855  10.880   0.698  0.00  0.00    -0.040 A 
ATOM     24  C   LIG    1        5.823  10.645   2.036  0.00  0.00    +0.030 A 
ATOM     25  O   LIG    1        4.652  10.050   2.330  0.00  0.00    -0.170 OA
BRANCH  24  26
ATOM     26  C   LIG    1        6.888  10.990   3.002  0.00  0.00    -0.020 A 
ATOM     27  C   LIG    1        8.059  11.609   2.564  0.00  0.00    +0.030 A 
ATOM     28  C   LIG    1        9.046  11.933   3.472  0.00  0.00    +0.010 A 
ATOM     29  C   LIG    1        8.881  11.635   4.813  0.00  0.00    +0.020 A 
ATOM     30  C   LIG    1        7.725  11.016   5.253  0.00  0.00    +0.010 A 
ATOM     31  C   LIG    1        6.728  10.692   4.357  0.00  0.00    +0.030 A 
ENDBRANCH  24  26
ENDBRANCH  20  21
ENDBRANCH  19  20
ENDBRANCH  17  19
ENDBRANCH  16  17
ENDBRANCH  15  16
ENDBRANCH  13  15
ENDBRANCH   4  13
BRANCH   6  32
ATOM     32  C   LIG    1       -2.354  -0.516  -0.166  0.00  0.00    +0.360 C 
BRANCH  32  33
ATOM     33  C   LIG    1       -2.411  -1.115   1.215  0.00  0.00    -0.130 A 
ATOM     34  C   LIG    1       -1.241  -1.379   1.903  0.00  0.00    +0.020 A 
ATOM     35  C   LIG    1       -1.293  -1.924   3.172  0.00  0.00    +0.010 A 
ATOM     36  C   LIG    1       -2.515  -2.215   3.750  0.00  0.00    +0.030 A 
ATOM     37  C   LIG    1       -3.685  -1.955   3.060  0.00  0.00    +0.010 A 
ATOM     38  C   LIG    1       -3.632  -1.405   1.793  0.00  0.00    +0.040 A 
ENDBRANCH  32  33
ENDBRANCH   6  32
TORSDOF 11
