REMARK  Name = ZINCqH0000006jBD.0
REMARK                            x       y       z     vdW  Elec       q    Type
REMARK                         _______ _______ _______ _____ _____    ______ ____
ROOT
ATOM      1  C   LIG    1       -2.723   3.883  -4.501  0.00  0.00    +0.700 C 
ATOM      2  N   LIG    1       -3.136   4.978  -5.169  0.00  0.00    -0.720 N 
ATOM      3  H   LIG    1       -2.943   5.862  -4.817  0.00  0.00    +0.390 HD
ATOM      4  O   LIG    1       -2.964   2.773  -4.943  0.00  0.00    -0.610 OA
ENDROOT
BRANCH   1   9
ATOM      5  N   LIG    1       -0.721   1.571  -1.179  0.00  0.00    -0.380 N 
ATOM      6  C   LIG    1       -1.281   0.792  -2.149  0.00  0.00    +0.330 A 
ATOM      7  C   LIG    1       -1.845   1.590  -3.080  0.00  0.00    -0.110 A 
ATOM      8  C   LIG    1       -1.640   2.933  -2.695  0.00  0.00    +0.500 A 
ATOM      9  N   LIG    1       -2.047   4.014  -3.353  0.00  0.00    -0.690 NA
ATOM     10  N   LIG    1       -0.945   2.915  -1.509  0.00  0.00    -0.460 N 
ATOM     11  H   LIG    1       -0.661   3.688  -0.997  0.00  0.00    +0.450 HD
BRANCH   5  12
ATOM     12  C   LIG    1       -0.013   1.086   0.008  0.00  0.00    +0.290 C 
ATOM     13  C   LIG    1       -0.729   1.579   1.267  0.00  0.00    +0.050 C 
BRANCH  12  14
ATOM     14  C   LIG    1        1.423   1.615  -0.003  0.00  0.00    +0.180 C 
BRANCH  14  16
ATOM     15  C   LIG    1        2.704   3.637   0.123  0.00  0.00    +0.210 C 
ATOM     16  O   LIG    1        1.406   3.039   0.122  0.00  0.00    -0.390 OA
ENDBRANCH  14  16
ENDBRANCH  12  14
ENDBRANCH   5  12
ENDBRANCH   1   9
BRANCH   2  17
ATOM     17  C   LIG    1       -3.875   4.835  -6.425  0.00  0.00    +0.270 C 
ATOM     18  C   LIG    1       -5.163   4.049  -6.172  0.00  0.00    +0.060 C 
ATOM     19  C   LIG    1       -3.012   4.086  -7.442  0.00  0.00    +0.060 C 
BRANCH  17  20
ATOM     20  C   LIG    1       -4.217   6.200  -6.965  0.00  0.00    +0.090 A 
ATOM     21  N   LIG    1       -4.857   6.403  -8.054  0.00  0.00    -0.450 NA
ATOM     22  C   LIG    1       -5.097   7.679  -8.414  0.00  0.00    +0.080 A 
ATOM     23  C   LIG    1       -5.773   8.184  -9.543  0.00  0.00    +0.080 A 
ATOM     24  C   LIG    1       -5.903   9.527  -9.725  0.00  0.00    +0.030 A 
ATOM     25  C   LIG    1       -5.375  10.423  -8.806  0.00  0.00    +0.040 A 
ATOM     26  C   LIG    1       -4.711   9.958  -7.693  0.00  0.00    +0.060 A 
ATOM     27  C   LIG    1       -4.568   8.587  -7.490  0.00  0.00    -0.180 A 
ATOM     28  S   LIG    1       -3.793   7.667  -6.204  0.00  0.00    +0.100 S 
ENDBRANCH  17  20
ENDBRANCH   2  17
TORSDOF 6
