REMARK  Name = ZINCrg00001JduXe.0
REMARK                            x       y       z     vdW  Elec       q    Type
REMARK                         _______ _______ _______ _____ _____    ______ ____
ROOT
ATOM      1  C   LIG    1       -1.244   1.754  -0.135  0.00  0.00    -0.160 A 
ATOM      2  C   LIG    1       -1.270   3.147   0.037  0.00  0.00    +0.220 A 
ATOM      3  C   LIG    1       -0.032   3.817   0.183  0.00  0.00    -0.130 A 
ATOM      4  C   LIG    1        0.022   5.207   0.353  0.00  0.00    +0.040 A 
ATOM      5  C   LIG    1        1.229   5.831   0.493  0.00  0.00    +0.060 A 
ATOM      6  C   LIG    1        2.421   5.090   0.468  0.00  0.00    +0.080 A 
ATOM      7  O   LIG    1        3.467   5.951   0.629  0.00  0.00    -0.300 OA
ATOM      8  C   LIG    1        2.895   7.159   1.164  0.00  0.00    +0.440 C 
ATOM      9  C   LIG    1        2.393   3.723   0.301  0.00  0.00    +0.070 A 
ATOM     10  O   LIG    1        1.543   7.149   0.670  0.00  0.00    -0.300 OA
ATOM     11  C   LIG    1        1.165   3.062   0.155  0.00  0.00    +0.170 A 
ATOM     12  N   LIG    1        1.121   1.731  -0.008  0.00  0.00    -0.470 NA
ATOM     13  C   LIG    1       -0.008   1.085  -0.145  0.00  0.00    +0.370 A 
ENDROOT
BRANCH   2  14
ATOM     14  N   LIG    1       -2.461   3.840   0.058  0.00  0.00    -0.450 N 
ATOM     15  C   LIG    1       -2.489   4.881  -1.001  0.00  0.00    +0.190 C 
ATOM     16  C   LIG    1       -3.569   5.881  -0.538  0.00  0.00    +0.250 C 
ATOM     17  N   LIG    1       -3.061   7.250  -0.697  0.00  0.00    -0.730 N 
ATOM     18  H   LIG    1       -2.890   7.691  -1.545  0.00  0.00    +0.430 HD
ATOM     19  C   LIG    1       -2.869   7.796   0.510  0.00  0.00    +0.700 C 
ATOM     20  N   LIG    1       -3.185   6.981   1.542  0.00  0.00    -0.740 N 
ATOM     21  H   LIG    1       -3.118   7.200   2.485  0.00  0.00    +0.430 HD
ATOM     22  O   LIG    1       -2.452   8.927   0.668  0.00  0.00    -0.570 OA
ATOM     23  C   LIG    1       -3.650   5.697   1.000  0.00  0.00    +0.240 C 
ATOM     24  C   LIG    1       -2.611   4.603   1.323  0.00  0.00    +0.190 C 
ENDBRANCH   2  14
BRANCH   1  25
ATOM     25  C   LIG    1       -2.497   1.002  -0.297  0.00  0.00    +0.510 C 
ATOM     26  O   LIG    1       -3.555   1.595  -0.385  0.00  0.00    -0.460 OA
BRANCH  25  27
ATOM     27  O   LIG    1       -2.473  -0.345  -0.350  0.00  0.00    -0.360 OA
BRANCH  27  29
ATOM     28  C   LIG    1       -3.521  -2.534  -0.549  0.00  0.00    +0.070 C 
ATOM     29  C   LIG    1       -3.747  -1.021  -0.511  0.00  0.00    +0.210 C 
ENDBRANCH  27  29
ENDBRANCH  25  27
ENDBRANCH   1  25
TORSDOF 4
