REMARK  Name = ZINCpk000004FLKI.0
REMARK                            x       y       z     vdW  Elec       q    Type
REMARK                         _______ _______ _______ _____ _____    ______ ____
ROOT
ATOM      1  C   LIG    1        0.807   6.472  -3.439  0.00  0.00    +0.400 A 
ATOM      2  N   LIG    1       -0.065   6.901  -4.324  0.00  0.00    -0.300 NA
ATOM      3  N   LIG    1       -1.209   6.349  -4.133  0.00  0.00    -0.040 NA
ATOM      4  N   LIG    1       -1.153   5.537  -3.133  0.00  0.00    -0.070 NA
ATOM      5  N   LIG    1        0.162   5.591  -2.639  0.00  0.00    -0.390 N 
ENDROOT
BRANCH   1   9
ATOM      6  C   LIG    1        3.922   7.451  -1.891  0.00  0.00    +0.260 C 
ATOM      7  C   LIG    1        4.210   6.019  -2.396  0.00  0.00    +0.030 C 
ATOM      8  C   LIG    1        3.022   5.668  -3.311  0.00  0.00    +0.190 C 
ATOM      9  N   LIG    1        2.134   6.851  -3.342  0.00  0.00    -0.420 N 
ATOM     10  C   LIG    1        2.389   7.581  -2.074  0.00  0.00    +0.200 C 
BRANCH   6  13
ATOM     11  C   LIG    1        5.945   7.984   1.314  0.00  0.00    +0.100 C 
ATOM     12  C   LIG    1        5.567   7.844  -0.138  0.00  0.00    +0.510 C 
ATOM     13  N   LIG    1        4.289   7.588  -0.480  0.00  0.00    -0.730 N 
ATOM     14  H   LIG    1        3.612   7.493   0.209  0.00  0.00    +0.400 HD
ATOM     15  O   LIG    1        6.413   7.963  -0.999  0.00  0.00    -0.530 OA
ENDBRANCH   6  13
ENDBRANCH   1   9
BRANCH   5  16
ATOM     16  C   LIG    1        0.718   4.847  -1.506  0.00  0.00    +0.330 C 
BRANCH  16  17
ATOM     17  C   LIG    1        1.024   3.412  -1.938  0.00  0.00    -0.010 C 
ATOM     18  C   LIG    1        1.726   2.674  -0.797  0.00  0.00    -0.010 C 
ATOM     19  C   LIG    1        2.033   1.239  -1.230  0.00  0.00    +0.020 C 
ATOM     20  C   LIG    1        0.726   0.520  -1.573  0.00  0.00    -0.020 C 
ATOM     21  C   LIG    1       -0.183   0.499  -0.343  0.00  0.00    +0.010 C 
ATOM     22  C   LIG    1       -0.489   1.934   0.089  0.00  0.00    -0.020 C 
ATOM     23  C   LIG    1       -1.192   2.672  -1.052  0.00  0.00    +0.020 C 
ATOM     24  C   LIG    1        0.024   1.258  -2.715  0.00  0.00    +0.020 C 
ATOM     25  C   LIG    1        0.817   2.653   0.433  0.00  0.00    +0.020 C 
ATOM     26  C   LIG    1       -0.282   2.693  -2.282  0.00  0.00    +0.000 C 
ENDBRANCH  16  17
ENDBRANCH   5  16
TORSDOF 4
