REMARK  Name = ZINCpk00000KfLkI.0
REMARK                            x       y       z     vdW  Elec       q    Type
REMARK                         _______ _______ _______ _____ _____    ______ ____
ROOT
ATOM      1  O   LIG    1        5.896   3.537  -0.739  0.00  0.00    -0.580 OA
ATOM      2  C   LIG    1        5.210   3.135  -1.658  0.00  0.00    +0.710 C 
ATOM      3  N   LIG    1        5.583   3.373  -2.931  0.00  0.00    -0.740 N 
ATOM      4  H   LIG    1        5.035   3.052  -3.665  0.00  0.00    +0.400 HD
ATOM      5  N   LIG    1        4.077   2.451  -1.405  0.00  0.00    -0.740 N 
ATOM      6  H   LIG    1        3.529   2.130  -2.139  0.00  0.00    +0.400 HD
ENDROOT
BRANCH   3   7
ATOM      7  C   LIG    1        6.815   4.117  -3.207  0.00  0.00    +0.280 C 
ATOM      8  C   LIG    1        8.026   3.161  -3.312  0.00  0.00    +0.050 C 
ATOM      9  C   LIG    1        8.876   3.760  -4.411  0.00  0.00    +0.520 C 
ATOM     10  N   LIG    1        8.156   4.643  -5.124  0.00  0.00    -0.590 N 
ATOM     11  O   LIG    1       10.039   3.483  -4.618  0.00  0.00    -0.520 OA
ATOM     12  C   LIG    1        6.780   4.740  -4.620  0.00  0.00    +0.270 C 
BRANCH  10  13
ATOM     13  C   LIG    1        8.677   5.411  -6.258  0.00  0.00    +0.210 C 
ATOM     14  C   LIG    1       10.068   5.046  -6.778  0.00  0.00    +0.040 C 
ATOM     15  C   LIG    1        9.861   6.343  -5.995  0.00  0.00    +0.010 C 
ENDBRANCH  10  13
ENDBRANCH   3   7
BRANCH   5  16
ATOM     16  C   LIG    1        3.671   2.192  -0.021  0.00  0.00    +0.340 C 
BRANCH  16  17
ATOM     17  C   LIG    1        2.380   1.415  -0.013  0.00  0.00    -0.090 A 
ATOM     18  C   LIG    1        1.171   2.086   0.002  0.00  0.00    +0.020 A 
ATOM     19  C   LIG    1       -0.017   1.377   0.010  0.00  0.00    +0.050 A 
ATOM     20  C   LIG    1        0.002  -0.004   0.002  0.00  0.00    +0.000 A 
ATOM     21  C   LIG    1        1.215  -0.680  -0.013  0.00  0.00    +0.160 A 
ATOM     22  C   LIG    1        2.405   0.034  -0.021  0.00  0.00    +0.040 A 
BRANCH  21  23
ATOM     23  N   LIG    1        1.237  -2.082  -0.021  0.00  0.00    -0.330 N 
ATOM     24  C   LIG    1        0.159  -2.895  -0.106  0.00  0.00    +0.230 A 
ATOM     25  C   LIG    1        0.605  -4.172  -0.086  0.00  0.00    -0.100 A 
ATOM     26  C   LIG    1        1.999  -4.141   0.024  0.00  0.00    +0.250 A 
ATOM     27  N   LIG    1        2.379  -2.889   0.063  0.00  0.00    -0.290 NA
ENDBRANCH  21  23
ENDBRANCH  16  17
ENDBRANCH   5  16
TORSDOF 5
