REMARK  Name = ZINCtV00000L6jln.0
REMARK                            x       y       z     vdW  Elec       q    Type
REMARK                         _______ _______ _______ _____ _____    ______ ____
ROOT
ATOM      1  C   LIG    1        1.189   1.510  -0.333  0.00  0.00    +0.300 A 
ATOM      2  N   LIG    1        2.378   1.961  -0.060  0.00  0.00    -0.480 NA
ATOM      3  C   LIG    1        2.277   3.140   0.607  0.00  0.00    +0.050 A 
ATOM      4  C   LIG    1        3.214   4.036   1.128  0.00  0.00    +0.070 A 
ATOM      5  C   LIG    1        2.791   5.169   1.764  0.00  0.00    +0.000 A 
ATOM      6  C   LIG    1        1.438   5.443   1.898  0.00  0.00    +0.030 A 
ATOM      7  C   LIG    1        0.495   4.573   1.391  0.00  0.00    +0.010 A 
ATOM      8  C   LIG    1        0.906   3.417   0.743  0.00  0.00    +0.050 A 
ATOM      9  N   LIG    1        0.244   2.367   0.138  0.00  0.00    -0.480 N 
ENDROOT
BRANCH   1  10
ATOM     10  C   LIG    1        0.901   0.225  -1.066  0.00  0.00    +0.120 C 
ATOM     11  C   LIG    1        1.528   0.281  -2.460  0.00  0.00    +0.060 C 
BRANCH  10  15
ATOM     12  C   LIG    1        2.560  -3.057   1.109  0.00  0.00    -0.070 A 
ATOM     13  C   LIG    1        1.200  -3.005   0.867  0.00  0.00    +0.000 A 
ATOM     14  C   LIG    1        0.663  -1.943   0.163  0.00  0.00    +0.010 A 
ATOM     15  C   LIG    1        1.486  -0.933  -0.298  0.00  0.00    -0.090 A 
ATOM     16  C   LIG    1        2.847  -0.987  -0.060  0.00  0.00    +0.050 A 
ATOM     17  C   LIG    1        3.383  -2.047   0.647  0.00  0.00    +0.000 A 
BRANCH  12  18
ATOM     18  C   LIG    1        3.145  -4.214   1.877  0.00  0.00    +0.060 C 
BRANCH  18  20
ATOM     19  C   LIG    1        4.661  -4.835  -0.009  0.00  0.00    +0.010 C 
ATOM     20  C   LIG    1        3.535  -5.327   0.902  0.00  0.00    -0.020 C 
ATOM     21  C   LIG    1        4.013  -6.550   1.689  0.00  0.00    +0.020 C 
ENDBRANCH  18  20
ENDBRANCH  12  18
ENDBRANCH  10  15
ENDBRANCH   1  10
BRANCH   9  22
ATOM     22  C   LIG    1       -1.208   2.208   0.020  0.00  0.00    +0.290 C 
ATOM     23  C   LIG    1       -1.815   3.488  -0.559  0.00  0.00    +0.060 C 
BRANCH  22  24
ATOM     24  C   LIG    1       -1.797   1.944   1.382  0.00  0.00    -0.110 A 
ATOM     25  C   LIG    1       -1.080   2.268   2.519  0.00  0.00    +0.020 A 
ATOM     26  C   LIG    1       -1.622   2.030   3.768  0.00  0.00    +0.010 A 
ATOM     27  C   LIG    1       -2.877   1.460   3.881  0.00  0.00    +0.010 A 
ATOM     28  C   LIG    1       -3.591   1.132   2.743  0.00  0.00    +0.010 A 
ATOM     29  C   LIG    1       -3.051   1.374   1.494  0.00  0.00    +0.010 A 
ENDBRANCH  22  24
ENDBRANCH   9  22
TORSDOF 6
