REMARK  Name = ZINCpk00000e9bSM.0
REMARK                            x       y       z     vdW  Elec       q    Type
REMARK                         _______ _______ _______ _____ _____    ______ ____
ROOT
ATOM      1  C   LIG    1       -1.729   0.430   5.707  0.00  0.00    +0.510 C 
ATOM      2  O   LIG    1       -1.570   1.586   6.045  0.00  0.00    -0.490 OA
ENDROOT
BRANCH   1   3
ATOM      3  C   LIG    1       -1.833  -0.631   6.729  0.00  0.00    -0.100 A 
ATOM      4  C   LIG    1       -2.021  -1.960   6.342  0.00  0.00    +0.100 A 
ATOM      5  C   LIG    1       -2.112  -2.950   7.300  0.00  0.00    +0.050 A 
ATOM      6  C   LIG    1       -2.029  -2.630   8.642  0.00  0.00    +0.070 A 
ATOM      7  C   LIG    1       -1.848  -1.310   9.037  0.00  0.00    +0.120 A 
ATOM      8  C   LIG    1       -1.749  -0.309   8.084  0.00  0.00    +0.120 A 
BRANCH   7   9
ATOM      9  N   LIG    1       -1.765  -0.991  10.400  0.00  0.00    -0.330 N 
ATOM     10  C   LIG    1       -1.841  -1.841  11.447  0.00  0.00    +0.470 A 
ATOM     11  N   LIG    1       -1.716  -1.127  12.536  0.00  0.00    -0.330 NA
ATOM     12  N   LIG    1       -1.565   0.115  12.248  0.00  0.00    -0.030 NA
ATOM     13  N   LIG    1       -1.578   0.281  10.970  0.00  0.00    -0.070 NA
ENDBRANCH   7   9
ENDBRANCH   1   3
BRANCH   1  14
ATOM     14  O   LIG    1       -1.810   0.117   4.399  0.00  0.00    -0.320 OA
BRANCH  14  15
ATOM     15  C   LIG    1       -1.699   1.211   3.451  0.00  0.00    +0.180 C 
ATOM     16  C   LIG    1       -3.090   1.778   3.162  0.00  0.00    +0.080 C 
BRANCH  15  23
ATOM     17  C   LIG    1        2.446   4.100  -0.224  0.00  0.00    +0.020 C 
ATOM     18  C   LIG    1        1.119   3.356  -0.065  0.00  0.00    -0.020 C 
ATOM     19  C   LIG    1        0.475   3.742   1.269  0.00  0.00    +0.020 C 
ATOM     20  C   LIG    1       -0.870   3.022   1.409  0.00  0.00    +0.270 C 
ATOM     21  N   LIG    1       -0.656   1.578   1.238  0.00  0.00    -0.610 N 
ATOM     22  C   LIG    1        0.040   1.105   0.033  0.00  0.00    +0.270 C 
ATOM     23  C   LIG    1       -1.087   0.705   2.170  0.00  0.00    +0.520 C 
ATOM     24  O   LIG    1       -0.983  -0.488   1.977  0.00  0.00    -0.520 OA
ATOM     25  C   LIG    1        1.374   1.847  -0.092  0.00  0.00    +0.020 C 
ENDBRANCH  15  23
ENDBRANCH  14  15
ENDBRANCH   1  14
TORSDOF 5
