REMARK  Name = ZINCnE000008Jci3.0
REMARK                            x       y       z     vdW  Elec       q    Type
REMARK                         _______ _______ _______ _____ _____    ______ ____
ROOT
ATOM      1  C   LIG    1       -6.056   3.566  -2.212  0.00  0.00    +0.000 A 
ATOM      2  C   LIG    1       -5.420   3.851  -1.014  0.00  0.00    +0.090 A 
ATOM      3  C   LIG    1       -4.177   3.310  -0.744  0.00  0.00    -0.160 A 
ATOM      4  C   LIG    1       -3.558   2.488  -1.676  0.00  0.00    +0.290 A 
ATOM      5  C   LIG    1       -4.193   2.199  -2.878  0.00  0.00    -0.070 A 
ATOM      6  C   LIG    1       -5.440   2.737  -3.147  0.00  0.00    +0.120 A 
ENDROOT
BRANCH   1   9
ATOM      7  C   LIG    1       -9.598   4.779  -1.787  0.00  0.00    +0.090 C 
ATOM      8  C   LIG    1       -8.206   4.288  -1.483  0.00  0.00    +0.500 C 
ATOM      9  N   LIG    1       -7.320   4.111  -2.483  0.00  0.00    -0.660 N 
ATOM     10  H   LIG    1       -7.557   4.361  -3.390  0.00  0.00    +0.400 HD
ATOM     11  O   LIG    1       -7.883   4.052  -0.338  0.00  0.00    -0.540 OA
ENDBRANCH   1   9
BRANCH   6  12
ATOM     12  O   LIG    1       -6.062   2.456  -4.323  0.00  0.00    -0.500 OA
ATOM     13  H   LIG    1       -6.626   1.671  -4.292  0.00  0.00    +0.380 HD
ENDBRANCH   6  12
BRANCH   4  14
ATOM     14  N   LIG    1       -2.299   1.945  -1.403  0.00  0.00    -1.080 NA
BRANCH  14  15
ATOM     15  S   LIG    1       -1.542   2.288   0.030  0.00  0.00    +2.600 S 
ATOM     16  O   LIG    1       -1.239   3.676   0.000  0.00  0.00    -1.020 OA
ATOM     17  O   LIG    1       -2.325   1.685   1.051  0.00  0.00    -1.010 OA
BRANCH  15  18
ATOM     18  C   LIG    1        0.003   1.441   0.020  0.00  0.00    -0.610 A 
ATOM     19  C   LIG    1        1.184   2.158   0.013  0.00  0.00    +0.130 A 
ATOM     20  C   LIG    1        2.397   1.494   0.000  0.00  0.00    +0.010 A 
ATOM     21  C   LIG    1        2.429   0.112  -0.006  0.00  0.00    +0.080 A 
ATOM     22  C   LIG    1        1.247  -0.607   0.000  0.00  0.00    -0.060 A 
ATOM     23 CL   LIG    1        1.286  -2.343  -0.009  0.00  0.00    -0.050 Cl
ATOM     24  C   LIG    1        0.033   0.058   0.013  0.00  0.00    +0.060 A 
ATOM     25 CL   LIG    1       -1.451  -0.843   0.021  0.00  0.00    -0.010 Cl
ENDBRANCH  15  18
ENDBRANCH  14  15
ENDBRANCH   4  14
TORSDOF 5
