REMARK  Name = ZINCqH0000008tXy.0
REMARK                            x       y       z     vdW  Elec       q    Type
REMARK                         _______ _______ _______ _____ _____    ______ ____
ROOT
ATOM      1  O   LIG    1        0.121   6.920   0.508  0.00  0.00    -0.330 OA
ENDROOT
BRANCH   1   3
ATOM      2  C   LIG    1        1.554   6.418  -1.397  0.00  0.00    +0.080 C 
ATOM      3  C   LIG    1        1.153   6.019   0.025  0.00  0.00    +0.160 C 
BRANCH   3   4
ATOM      4  C   LIG    1        0.626   4.607   0.021  0.00  0.00    +0.430 C 
ATOM      5  O   LIG    1       -0.571   4.406   0.030  0.00  0.00    -0.440 OA
BRANCH   4   6
ATOM      6  C   LIG    1        1.529   3.514   0.007  0.00  0.00    -0.270 A 
ATOM      7  C   LIG    1        2.906   3.578  -0.005  0.00  0.00    +0.330 A 
ATOM      8  N   LIG    1        3.416   2.332  -0.017  0.00  0.00    -0.560 N 
ATOM      9  H   LIG    1        4.363   2.123  -0.027  0.00  0.00    +0.420 HD
ATOM     10  C   LIG    1        2.406   1.391  -0.013  0.00  0.00    +0.070 A 
ATOM     11  C   LIG    1        2.404  -0.000  -0.020  0.00  0.00    +0.000 A 
ATOM     12  C   LIG    1        1.209  -0.687  -0.013  0.00  0.00    +0.030 A 
ATOM     13  C   LIG    1        0.002  -0.004   0.002  0.00  0.00    +0.000 A 
ATOM     14  C   LIG    1       -0.017   1.374   0.010  0.00  0.00    +0.060 A 
ATOM     15  C   LIG    1        1.183   2.079   0.002  0.00  0.00    -0.060 A 
ENDBRANCH   4   6
ENDBRANCH   3   4
ENDBRANCH   1   3
BRANCH   1  16
ATOM     16  C   LIG    1        0.531   8.029   1.154  0.00  0.00    +0.520 C 
ATOM     17  O   LIG    1        1.717   8.239   1.309  0.00  0.00    -0.510 OA
BRANCH  16  18
ATOM     18  C   LIG    1       -0.461   8.988   1.671  0.00  0.00    -0.140 A 
ATOM     19  C   LIG    1       -1.831   8.751   1.493  0.00  0.00    +0.110 A 
ATOM     20  C   LIG    1       -2.751   9.629   1.967  0.00  0.00    +0.040 A 
ATOM     21  C   LIG    1       -2.349  10.801   2.648  0.00  0.00    +0.180 A 
ATOM     22  N   LIG    1       -3.118  11.768   3.177  0.00  0.00    -0.550 NA
ATOM     23  C   LIG    1       -2.530  12.758   3.761  0.00  0.00    +0.390 A 
ATOM     24  S   LIG    1       -0.785  12.556   3.698  0.00  0.00    +0.060 S 
ATOM     25  C   LIG    1       -0.979  11.037   2.825  0.00  0.00    -0.220 A 
ATOM     26  C   LIG    1       -0.042  10.135   2.345  0.00  0.00    +0.160 A 
BRANCH  23  27
ATOM     27  N   LIG    1       -3.178  13.822   4.348  0.00  0.00    -0.800 N 
ATOM     28  H   LIG    1       -4.147  13.863   4.343  0.00  0.00    +0.420 HD
ATOM     29  H   LIG    1       -2.666  14.530   4.768  0.00  0.00    +0.420 HD
ENDBRANCH  23  27
ENDBRANCH  16  18
ENDBRANCH   1  16
TORSDOF 6
