REMARK  Name = ZINCvU00000007pg.0
REMARK                            x       y       z     vdW  Elec       q    Type
REMARK                         _______ _______ _______ _____ _____    ______ ____
ROOT
ATOM      1  C   LIG    1        3.614   3.086  -0.466  0.00  0.00    -0.240 A 
ATOM      2  C   LIG    1        3.484   1.735  -0.525  0.00  0.00    +0.160 A 
ATOM      3  O   LIG    1        2.357   1.098  -0.209  0.00  0.00    -0.210 OA
ATOM      4  C   LIG    1        1.185   1.753  -0.111  0.00  0.00    +0.160 A 
ATOM      5  C   LIG    1       -0.015   1.053  -0.095  0.00  0.00    +0.000 A 
ATOM      6  C   LIG    1       -1.212   1.740   0.010  0.00  0.00    +0.150 A 
ATOM      7  C   LIG    1       -1.228   3.129   0.115  0.00  0.00    +0.010 A 
ATOM      8  C   LIG    1       -0.057   3.834   0.099  0.00  0.00    +0.140 A 
ATOM      9  C   LIG    1        1.156   3.156  -0.017  0.00  0.00    -0.220 A 
ATOM     10  C   LIG    1        4.670   0.919  -0.969  0.00  0.00    +0.180 C 
ATOM     11  C   LIG    1        2.441   3.880  -0.051  0.00  0.00    +0.430 A 
ATOM     12  O   LIG    1        2.529   5.059   0.246  0.00  0.00    -0.440 OA
ENDROOT
BRANCH   1  16
ATOM     13  C   LIG    1        7.300   4.974  -1.449  0.00  0.00    +0.110 A 
ATOM     14  C   LIG    1        7.222   4.137  -0.347  0.00  0.00    -0.030 A 
ATOM     15  C   LIG    1        6.026   3.528  -0.023  0.00  0.00    +0.030 A 
ATOM     16  C   LIG    1        4.898   3.745  -0.810  0.00  0.00    -0.020 A 
ATOM     17  C   LIG    1        4.975   4.587  -1.919  0.00  0.00    -0.020 A 
ATOM     18  C   LIG    1        6.174   5.199  -2.237  0.00  0.00    +0.100 A 
BRANCH  13  20
ATOM     19  C   LIG    1        9.594   5.303  -0.911  0.00  0.00    +0.240 C 
ATOM     20  O   LIG    1        8.479   5.577  -1.762  0.00  0.00    -0.310 OA
ENDBRANCH  13  20
BRANCH  18  21
ATOM     21  O   LIG    1        6.253   6.020  -3.318  0.00  0.00    -0.300 OA
ATOM     22  C   LIG    1        5.059   6.205  -4.081  0.00  0.00    +0.230 C 
ENDBRANCH  18  21
ENDBRANCH   1  16
BRANCH   6  23
ATOM     23  O   LIG    1       -2.383   1.053   0.018  0.00  0.00    -0.290 OA
BRANCH  23  24
ATOM     24  C   LIG    1       -2.641   0.296   1.102  0.00  0.00    +0.510 C 
ATOM     25  O   LIG    1       -1.894   0.332   2.060  0.00  0.00    -0.480 OA
BRANCH  24  26
ATOM     26  C   LIG    1       -3.832  -0.578   1.127  0.00  0.00    -0.130 A 
ATOM     27  C   LIG    1       -4.695  -0.618   0.030  0.00  0.00    +0.080 A 
ATOM     28  C   LIG    1       -5.802  -1.441   0.057  0.00  0.00    +0.010 A 
ATOM     29  C   LIG    1       -6.063  -2.217   1.173  0.00  0.00    +0.050 A 
ATOM     30  C   LIG    1       -5.215  -2.178   2.265  0.00  0.00    +0.010 A 
ATOM     31  C   LIG    1       -4.102  -1.364   2.249  0.00  0.00    +0.090 A 
ENDBRANCH  24  26
ENDBRANCH  23  24
ENDBRANCH   6  23
TORSDOF 6
