REMARK  Name = ZINCrg00000SjSuN.0
REMARK                            x       y       z     vdW  Elec       q    Type
REMARK                         _______ _______ _______ _____ _____    ______ ____
ROOT
ATOM      1  N   LIG    1        2.024  -1.573  -0.026  0.00  0.00    -0.400 N 
ATOM      2  C   LIG    1        3.351  -1.183  -0.037  0.00  0.00    +0.080 A 
ATOM      3  C   LIG    1        3.395   0.146  -0.030  0.00  0.00    +0.190 A 
ATOM      4  N   LIG    1        2.097   0.626  -0.015  0.00  0.00    -0.350 N 
ATOM      5  C   LIG    1        1.307   1.766  -0.001  0.00  0.00    -0.190 A 
ATOM      6  C   LIG    1        1.570   3.145   0.004  0.00  0.00    +0.600 A 
ATOM      7  N   LIG    1        0.539   4.015   0.019  0.00  0.00    -0.550 N 
ATOM      8  C   LIG    1       -0.733   3.582   0.029  0.00  0.00    +0.710 A 
ATOM      9  N   LIG    1       -1.033   2.270   0.019  0.00  0.00    -0.510 N 
ATOM     10  C   LIG    1       -2.433   1.838   0.022  0.00  0.00    +0.340 C 
ATOM     11  O   LIG    1       -1.636   4.396   0.043  0.00  0.00    -0.530 OA
ATOM     12  C   LIG    1        0.811   5.454   0.025  0.00  0.00    +0.360 C 
ATOM     13  O   LIG    1        2.719   3.553  -0.005  0.00  0.00    -0.520 OA
ATOM     14  C   LIG    1       -0.016   1.326   0.009  0.00  0.00    +0.370 A 
ATOM     15  N   LIG    1        0.002  -0.004   0.002  0.00  0.00    -0.500 NA
ATOM     16  C   LIG    1        4.542  -2.106  -0.054  0.00  0.00    +0.180 C 
ATOM     17  C   LIG    1        1.253  -0.440  -0.012  0.00  0.00    +0.450 A 
ENDROOT
BRANCH   1  21
ATOM     18  C   LIG    1        0.618  -5.505  -0.035  0.00  0.00    +0.190 A 
ATOM     19  C   LIG    1        0.840  -4.843  -1.233  0.00  0.00    -0.100 A 
ATOM     20  C   LIG    1        1.306  -3.542  -1.231  0.00  0.00    +0.130 A 
ATOM     21  C   LIG    1        1.551  -2.895  -0.029  0.00  0.00    +0.040 A 
ATOM     22  C   LIG    1        1.333  -3.560   1.176  0.00  0.00    +0.200 A 
ATOM     23  C   LIG    1        0.862  -4.862   1.170  0.00  0.00    -0.090 A 
BRANCH  18  25
ATOM     24  C   LIG    1       -0.070  -7.386  -1.317  0.00  0.00    +0.250 C 
ATOM     25  O   LIG    1        0.160  -6.785  -0.041  0.00  0.00    -0.310 OA
ENDBRANCH  18  25
BRANCH  22  26
ATOM     26  O   LIG    1        1.579  -2.930   2.356  0.00  0.00    -0.300 OA
ATOM     27  C   LIG    1        1.333  -3.674   3.551  0.00  0.00    +0.250 C 
ENDBRANCH  22  26
ENDBRANCH   1  21
TORSDOF 3
