REMARK  Name = ZINCrD00000F5Lv8.0
REMARK                            x       y       z     vdW  Elec       q    Type
REMARK                         _______ _______ _______ _____ _____    ______ ____
ROOT
ATOM      1  N   LIG    1        2.200   7.177   0.417  0.00  0.00    -0.600 N 
ATOM      2  C   LIG    1        3.086   6.218   0.753  0.00  0.00    +0.560 C 
ATOM      3  O   LIG    1        4.270   6.489   0.845  0.00  0.00    -0.530 OA
ENDROOT
BRANCH   2   4
ATOM      4  C   LIG    1        2.641   4.899   0.999  0.00  0.00    -0.110 C 
ATOM      5  C   LIG    1        3.534   3.933   1.338  0.00  0.00    +0.170 C 
BRANCH   5   6
ATOM      6  C   LIG    1        3.089   2.614   1.584  0.00  0.00    -0.190 A 
ATOM      7  C   LIG    1        3.895   1.561   1.931  0.00  0.00    +0.060 A 
ATOM      8  C   LIG    1        3.237   0.377   2.118  0.00  0.00    +0.020 A 
ATOM      9  C   LIG    1        1.886   0.437   1.928  0.00  0.00    -0.140 A 
ATOM     10  S   LIG    1        1.419   2.074   1.490  0.00  0.00    +0.170 S 
BRANCH   9  11
ATOM     11  C   LIG    1        0.957  -0.703   2.070  0.00  0.00    -0.030 A 
ATOM     12  C   LIG    1        1.443  -1.965   2.419  0.00  0.00    +0.070 A 
ATOM     13  C   LIG    1        0.571  -3.024   2.555  0.00  0.00    -0.010 A 
ATOM     14  C   LIG    1       -0.785  -2.840   2.336  0.00  0.00    +0.100 A 
ATOM     15  C   LIG    1       -1.273  -1.591   1.984  0.00  0.00    -0.010 A 
ATOM     16  F   LIG    1       -1.635  -3.882   2.465  0.00  0.00    -0.140 F 
ATOM     17  C   LIG    1       -0.411  -0.524   1.851  0.00  0.00    +0.050 A 
ENDBRANCH   9  11
ENDBRANCH   5   6
ENDBRANCH   2   4
BRANCH   1  18
ATOM     18  C   LIG    1        2.660   8.544   0.162  0.00  0.00    +0.350 C 
BRANCH  18  19
ATOM     19  C   LIG    1        3.002   8.698  -1.321  0.00  0.00    +0.280 C 
BRANCH  19  21
ATOM     20  C   LIG    1        4.825   8.182  -2.789  0.00  0.00    +0.200 C 
ATOM     21  O   LIG    1        4.035   7.775  -1.671  0.00  0.00    -0.370 OA
ENDBRANCH  19  21
BRANCH  19  22
ATOM     22  O   LIG    1        1.839   8.433  -2.108  0.00  0.00    -0.390 OA
ATOM     23  C   LIG    1        1.953   8.848  -3.471  0.00  0.00    +0.200 C 
ENDBRANCH  19  22
ENDBRANCH  18  19
ENDBRANCH   1  18
BRANCH   1  24
ATOM     24  C   LIG    1        0.775   6.851   0.307  0.00  0.00    +0.290 C 
BRANCH  24  25
ATOM     25  C   LIG    1        0.098   7.059   1.663  0.00  0.00    +0.000 C 
BRANCH  25  26
ATOM     26  C   LIG    1       -1.389   6.719   1.548  0.00  0.00    +0.180 C 
BRANCH  26  27
ATOM     27  O   LIG    1       -2.021   6.913   2.815  0.00  0.00    -0.570 OA
ATOM     28  H   LIG    1       -2.968   6.716   2.816  0.00  0.00    +0.380 HD
ENDBRANCH  26  27
ENDBRANCH  25  26
ENDBRANCH  24  25
ENDBRANCH   1  24
TORSDOF 11
