REMARK  Name = ZINC9u0000000C6d.0
REMARK                            x       y       z     vdW  Elec       q    Type
REMARK                         _______ _______ _______ _____ _____    ______ ____
ROOT
ATOM      1  C   LIG    1        1.226   3.566   0.009  0.00  0.00    +0.110 C 
ATOM      2  C   LIG    1        1.194   2.059   0.002  0.00  0.00    -0.130 A 
ATOM      3  C   LIG    1        2.370   1.334  -0.014  0.00  0.00    +0.270 A 
ATOM      4  N   LIG    1        2.351   0.016  -0.021  0.00  0.00    -0.480 NA
ATOM      5  C   LIG    1        1.219  -0.661  -0.013  0.00  0.00    +0.290 A 
ATOM      6  C   LIG    1        0.002  -0.004   0.002  0.00  0.00    -0.150 A 
ATOM      7 BR   LIG    1       -1.615  -0.984   0.013  0.00  0.00    -0.030 Br
ATOM      8  C   LIG    1       -0.017   1.383   0.010  0.00  0.00    -0.020 A 
ATOM      9  C   LIG    1       -1.322   2.137   0.020  0.00  0.00    +0.120 C 
ENDROOT
TORSDOF 0
