REMARK  Name = ZINCqH0000004ElC.0
REMARK                            x       y       z     vdW  Elec       q    Type
REMARK                         _______ _______ _______ _____ _____    ______ ____
ROOT
ATOM      1  C   LIG    1       -1.258  -0.751   0.016  0.00  0.00    +0.240 C 
ATOM      2  C   LIG    1       -1.782  -0.889  -1.415  0.00  0.00    +0.050 C 
ENDROOT
BRANCH   1   5
ATOM      3  N   LIG    1       -2.047  -2.991   0.710  0.00  0.00    -0.670 N 
ATOM      4  H   LIG    1       -2.946  -2.713   0.477  0.00  0.00    +0.410 HD
ATOM      5  C   LIG    1       -1.023  -2.121   0.599  0.00  0.00    +0.510 C 
ATOM      6  O   LIG    1        0.087  -2.440   0.969  0.00  0.00    -0.510 OA
BRANCH   3  10
ATOM      7  C   LIG    1       -1.345  -6.872   2.052  0.00  0.00    -0.090 A 
ATOM      8  C   LIG    1       -0.611  -5.820   2.568  0.00  0.00    +0.030 A 
ATOM      9  C   LIG    1       -0.841  -4.532   2.125  0.00  0.00    +0.020 A 
ATOM     10  C   LIG    1       -1.811  -4.294   1.161  0.00  0.00    +0.130 A 
ATOM     11  C   LIG    1       -2.551  -5.352   0.649  0.00  0.00    -0.010 A 
ATOM     12  C   LIG    1       -2.312  -6.638   1.091  0.00  0.00    +0.030 A 
BRANCH   7  14
ATOM     13  C   LIG    1       -1.992  -8.572   3.737  0.00  0.00    +0.030 C 
ATOM     14  C   LIG    1       -1.091  -8.276   2.537  0.00  0.00    +0.050 C 
ENDBRANCH   7  14
ENDBRANCH   3  10
ENDBRANCH   1   5
BRANCH   1  15
ATOM     15  N   LIG    1        0.001  -0.003   0.004  0.00  0.00    -0.720 N 
ATOM     16  H   LIG    1        0.847  -0.477  -0.013  0.00  0.00    +0.410 HD
BRANCH  15  17
ATOM     17  C   LIG    1       -0.016   1.396   0.019  0.00  0.00    +0.290 A 
ATOM     18  C   LIG    1       -1.227   2.075   0.038  0.00  0.00    -0.180 A 
ATOM     19  C   LIG    1       -1.246   3.461   0.057  0.00  0.00    +0.190 A 
ATOM     20  C   LIG    1       -0.051   4.171   0.046  0.00  0.00    -0.030 A 
ATOM     21  C   LIG    1        1.161   3.491   0.021  0.00  0.00    +0.200 A 
ATOM     22  C   LIG    1        1.177   2.105   0.008  0.00  0.00    -0.170 A 
BRANCH  21  23
ATOM     23  O   LIG    1        2.330   4.185   0.010  0.00  0.00    -0.300 OA
ATOM     24  C   LIG    1        3.538   3.422  -0.015  0.00  0.00    +0.240 C 
ENDBRANCH  21  23
BRANCH  20  25
ATOM     25  O   LIG    1       -0.068   5.533   0.059  0.00  0.00    -0.310 OA
ATOM     26  C   LIG    1       -0.095   6.193  -1.208  0.00  0.00    +0.200 C 
ENDBRANCH  20  25
BRANCH  19  27
ATOM     27  O   LIG    1       -2.432   4.125   0.081  0.00  0.00    -0.300 OA
ATOM     28  C   LIG    1       -3.620   3.331   0.091  0.00  0.00    +0.240 C 
ENDBRANCH  19  27
ENDBRANCH  15  17
ENDBRANCH   1  15
TORSDOF 8
