REMARK  Name = ZINCtV000002IL8V.0
REMARK                            x       y       z     vdW  Elec       q    Type
REMARK                         _______ _______ _______ _____ _____    ______ ____
ROOT
ATOM      1  C   LIG    1       -4.499   3.824  -0.157  0.00  0.00    +0.570 C 
ATOM      2  N   LIG    1       -3.431   4.159   0.594  0.00  0.00    -0.510 N 
ATOM      3  O   LIG    1       -5.256   4.688  -0.555  0.00  0.00    -0.450 OA
ENDROOT
BRANCH   1   9
ATOM      4  C   LIG    1       -4.956  -0.938   1.261  0.00  0.00    +0.090 C 
ATOM      5  C   LIG    1       -4.971   0.114   0.182  0.00  0.00    -0.090 A 
ATOM      6  C   LIG    1       -5.221  -0.246  -1.130  0.00  0.00    +0.030 A 
ATOM      7  C   LIG    1       -5.237   0.713  -2.127  0.00  0.00    +0.020 A 
ATOM      8  C   LIG    1       -5.008   2.038  -1.817  0.00  0.00    +0.070 A 
ATOM      9  C   LIG    1       -4.750   2.408  -0.495  0.00  0.00    -0.110 A 
ATOM     10  C   LIG    1       -4.736   1.435   0.505  0.00  0.00    +0.030 A 
ENDBRANCH   1   9
BRANCH   2  11
ATOM     11  C   LIG    1       -3.264   5.470   1.019  0.00  0.00    +0.310 A 
ATOM     12  N   LIG    1       -4.069   6.452   0.754  0.00  0.00    -0.450 NA
ATOM     13  C   LIG    1       -3.749   7.641   1.245  0.00  0.00    +0.130 A 
ATOM     14  C   LIG    1       -2.615   7.681   1.966  0.00  0.00    -0.070 A 
ATOM     15  S   LIG    1       -1.930   6.058   2.007  0.00  0.00    +0.080 S 
BRANCH  13  16
ATOM     16  C   LIG    1       -4.585   8.844   1.014  0.00  0.00    -0.020 A 
ATOM     17  C   LIG    1       -4.206  10.073   1.552  0.00  0.00    +0.060 A 
ATOM     18  C   LIG    1       -4.987  11.190   1.334  0.00  0.00    +0.030 A 
ATOM     19  C   LIG    1       -6.146  11.092   0.583  0.00  0.00    -0.020 A 
ATOM     20  C   LIG    1       -6.528   9.874   0.046  0.00  0.00    +0.040 A 
ATOM     21 CL   LIG    1       -7.124  12.501   0.315  0.00  0.00    -0.060 Cl
ATOM     22  C   LIG    1       -5.751   8.752   0.253  0.00  0.00    -0.010 A 
ATOM     23 CL   LIG    1       -6.227   7.227  -0.427  0.00  0.00    +0.010 Cl
ENDBRANCH  13  16
ENDBRANCH   2  11
BRANCH   2  24
ATOM     24  C   LIG    1       -2.446   3.139   0.963  0.00  0.00    +0.310 C 
BRANCH  24  25
ATOM     25  C   LIG    1       -1.282   3.172  -0.030  0.00  0.00    +0.140 C 
ATOM     26  C   LIG    1       -0.272   2.031   0.268  0.00  0.00    +0.020 C 
ATOM     27  C   LIG    1        0.401   1.830  -1.111  0.00  0.00    +0.010 C 
ATOM     28  C   LIG    1       -0.601   2.432  -2.116  0.00  0.00    +0.200 C 
ATOM     29  O   LIG    1       -1.744   2.875  -1.365  0.00  0.00    -0.360 OA
ENDBRANCH  24  25
ENDBRANCH   2  24
TORSDOF 5
