REMARK  Name = ZINCqH00000345za.0
REMARK                            x       y       z     vdW  Elec       q    Type
REMARK                         _______ _______ _______ _____ _____    ______ ____
ROOT
ATOM      1  N   LIG    1       -0.645   3.040   1.336  0.00  0.00    -0.740 N 
ATOM      2  H   LIG    1        0.060   3.462   1.852  0.00  0.00    +0.390 HD
ATOM      3  C   LIG    1       -1.547   3.799   0.682  0.00  0.00    +0.700 C 
ATOM      4  N   LIG    1       -1.469   5.143   0.745  0.00  0.00    -0.740 N 
ATOM      5  H   LIG    1       -0.764   5.564   1.261  0.00  0.00    +0.400 HD
ATOM      6  O   LIG    1       -2.430   3.270   0.035  0.00  0.00    -0.580 OA
ENDROOT
BRANCH   1   7
ATOM      7  C   LIG    1       -0.729   1.579   1.267  0.00  0.00    +0.260 C 
BRANCH   7   8
ATOM      8  C   LIG    1       -0.064   0.971   2.503  0.00  0.00    -0.010 C 
ATOM      9  C   LIG    1       -0.224  -0.564   2.514  0.00  0.00    +0.100 C 
ATOM     10  C   LIG    1       -0.394  -0.931   3.976  0.00  0.00    -0.100 A 
ATOM     11  C   LIG    1       -0.265  -2.154   4.613  0.00  0.00    +0.010 A 
ATOM     12  C   LIG    1       -0.466  -2.252   5.976  0.00  0.00    +0.000 A 
ATOM     13  C   LIG    1       -0.797  -1.126   6.707  0.00  0.00    +0.000 A 
ATOM     14  C   LIG    1       -0.926   0.094   6.073  0.00  0.00    +0.010 A 
ATOM     15  C   LIG    1       -0.725   0.195   4.707  0.00  0.00    -0.100 A 
ATOM     16  C   LIG    1       -0.804   1.396   3.789  0.00  0.00    +0.080 C 
ENDBRANCH   7   8
BRANCH   7  18
ATOM     17  C   LIG    1       -0.753   1.593  -1.232  0.00  0.00    +0.020 C 
ATOM     18  C   LIG    1       -0.013   1.086   0.008  0.00  0.00    -0.010 C 
ENDBRANCH   7  18
ENDBRANCH   1   7
BRANCH   4  19
ATOM     19  C   LIG    1       -2.450   5.967   0.034  0.00  0.00    +0.330 C 
BRANCH  19  20
ATOM     20  C   LIG    1       -2.143   7.424   0.265  0.00  0.00    -0.060 A 
ATOM     21  C   LIG    1       -2.712   8.089   1.336  0.00  0.00    -0.040 A 
ATOM     22  C   LIG    1       -2.429   9.424   1.555  0.00  0.00    +0.050 A 
ATOM     23  C   LIG    1       -1.584  10.102   0.698  0.00  0.00    -0.070 A 
ATOM     24  C   LIG    1       -1.014   9.439  -0.382  0.00  0.00    +0.210 A 
ATOM     25  C   LIG    1       -1.297   8.096  -0.596  0.00  0.00    -0.060 A 
BRANCH  24  26
ATOM     26  N   LIG    1       -0.160  10.122  -1.251  0.00  0.00    -0.640 N 
ATOM     27  C   LIG    1        0.137  11.538  -1.024  0.00  0.00    +0.280 C 
ATOM     28  C   LIG    1        0.439   9.421  -2.389  0.00  0.00    +0.260 C 
ENDBRANCH  24  26
ENDBRANCH  19  20
ENDBRANCH   4  19
TORSDOF 6
