REMARK  Name = ZINCrD000000B0BY.0
REMARK                            x       y       z     vdW  Elec       q    Type
REMARK                         _______ _______ _______ _____ _____    ______ ____
ROOT
ATOM      1  C   LIG    1       -5.714  -2.414  -1.899  0.00  0.00    -0.010 C 
ATOM      2  C   LIG    1       -5.812  -0.892  -2.026  0.00  0.00    +0.030 C 
ATOM      3  C   LIG    1       -6.113  -0.523  -3.482  0.00  0.00    +0.280 C 
ATOM      4  N   LIG    1       -7.319  -1.243  -3.913  0.00  0.00    -0.610 N 
ATOM      5  C   LIG    1       -7.367  -2.702  -3.750  0.00  0.00    +0.280 C 
ATOM      6  C   LIG    1       -8.362  -0.577  -4.446  0.00  0.00    +0.560 C 
ATOM      7  O   LIG    1       -9.327  -1.190  -4.861  0.00  0.00    -0.530 OA
ATOM      8  C   LIG    1       -7.052  -3.047  -2.291  0.00  0.00    +0.060 C 
ENDROOT
BRANCH   6   9
ATOM      9  C   LIG    1       -8.334   0.898  -4.526  0.00  0.00    -0.120 A 
ATOM     10  C   LIG    1       -9.412   1.647  -4.048  0.00  0.00    +0.080 A 
ATOM     11  C   LIG    1       -9.378   3.023  -4.121  0.00  0.00    +0.030 A 
ATOM     12  C   LIG    1       -8.282   3.663  -4.676  0.00  0.00    -0.020 A 
ATOM     13  C   LIG    1       -7.213   2.926  -5.156  0.00  0.00    +0.030 A 
ATOM     14 CL   LIG    1       -8.249   5.397  -4.770  0.00  0.00    -0.060 Cl
ATOM     15  C   LIG    1       -7.233   1.549  -5.084  0.00  0.00    +0.060 A 
ENDBRANCH   6   9
BRANCH   1  17
ATOM     16  O   LIG    1       -6.144  -3.476   0.164  0.00  0.00    -0.530 OA
ATOM     17  C   LIG    1       -5.385  -2.779  -0.475  0.00  0.00    +0.520 C 
ATOM     18  N   LIG    1       -4.246  -2.331   0.090  0.00  0.00    -0.730 N 
ATOM     19  H   LIG    1       -3.638  -1.774  -0.421  0.00  0.00    +0.400 HD
BRANCH  18  20
ATOM     20  C   LIG    1       -3.925  -2.686   1.474  0.00  0.00    +0.290 C 
BRANCH  20  21
ATOM     21  C   LIG    1       -2.588  -2.054   1.866  0.00  0.00    +0.200 C 
BRANCH  21  22
ATOM     22  O   LIG    1       -2.714  -0.631   1.860  0.00  0.00    -0.310 OA
BRANCH  22  23
ATOM     23  C   LIG    1       -1.608   0.088   2.189  0.00  0.00    +0.130 A 
ATOM     24  C   LIG    1       -1.659   1.474   2.203  0.00  0.00    -0.020 A 
ATOM     25  C   LIG    1       -0.534   2.203   2.538  0.00  0.00    +0.050 A 
ATOM     26  C   LIG    1        0.642   1.551   2.857  0.00  0.00    -0.040 A 
ATOM     27  C   LIG    1        0.696   0.169   2.844  0.00  0.00    +0.050 A 
ATOM     28  C   LIG    1       -0.426  -0.564   2.510  0.00  0.00    -0.080 A 
ENDBRANCH  22  23
ENDBRANCH  21  22
ENDBRANCH  20  21
ENDBRANCH  18  20
ENDBRANCH   1  17
TORSDOF 6
