REMARK  Name = ZINCb70000002JAP.0
REMARK                            x       y       z     vdW  Elec       q    Type
REMARK                         _______ _______ _______ _____ _____    ______ ____
ROOT
ATOM      1  C   LIG    1        2.329   1.316   0.690  0.00  0.00    +0.170 C 
ATOM      2  C   LIG    1        2.432  -0.039  -0.017  0.00  0.00    +0.270 C 
ATOM      3  N   LIG    1        1.123  -0.688  -0.009  0.00  0.00    -0.650 NA
ATOM      4  C   LIG    1        0.002  -0.004   0.002  0.00  0.00    +0.480 C 
ATOM      5  C   LIG    1       -1.226  -0.715   0.007  0.00  0.00    -0.030 C 
ATOM      6  C   LIG    1       -2.397  -0.030   0.020  0.00  0.00    +0.210 C 
ATOM      7  C   LIG    1       -2.378   1.376   0.029  0.00  0.00    +0.000 C 
ATOM      8  C   LIG    1       -1.205   2.040   0.019  0.00  0.00    +0.340 C 
ATOM      9  N   LIG    1       -0.017   1.367   0.010  0.00  0.00    -0.450 N 
ATOM     10  H   LIG    1        1.081  -1.657  -0.012  0.00  0.00    +0.440 HD
ATOM     11  C   LIG    1        1.233   2.136   0.002  0.00  0.00    +0.330 C 
ENDROOT
BRANCH   1  12
ATOM     12  O   LIG    1        3.578   2.005   0.595  0.00  0.00    -0.540 OA
ATOM     13  H   LIG    1        4.320   1.532   0.996  0.00  0.00    +0.410 HD
ENDBRANCH   1  12
TORSDOF 1
