REMARK  Name = ZINCvU00000003WP.0
REMARK                            x       y       z     vdW  Elec       q    Type
REMARK                         _______ _______ _______ _____ _____    ______ ____
ROOT
ATOM      1  C   LIG    1        7.258   5.702   0.212  0.00  0.00    +0.260 A 
ATOM      2  C   LIG    1        6.115   6.470   0.019  0.00  0.00    -0.080 A 
ATOM      3  C   LIG    1        4.896   5.858  -0.169  0.00  0.00    +0.150 A 
ATOM      4  C   LIG    1        4.807   4.464  -0.157  0.00  0.00    -0.190 A 
ATOM      5  C   LIG    1        5.959   3.696   0.036  0.00  0.00    +0.240 A 
ATOM      6  C   LIG    1        7.175   4.315   0.219  0.00  0.00    -0.730 A 
ENDROOT
BRANCH   4   7
ATOM      7  C   LIG    1        3.502   3.804  -0.353  0.00  0.00    +0.560 C 
ATOM      8  N   LIG    1        2.393   4.547  -0.539  0.00  0.00    -0.670 N 
ATOM      9  H   LIG    1        2.462   5.511  -0.615  0.00  0.00    +0.410 HD
ATOM     10  O   LIG    1        3.427   2.591  -0.347  0.00  0.00    -0.500 OA
BRANCH   8  11
ATOM     11  C   LIG    1        1.142   3.927  -0.624  0.00  0.00    +0.140 A 
ATOM     12  C   LIG    1        1.027   2.667  -1.197  0.00  0.00    +0.020 A 
ATOM     13  C   LIG    1       -0.210   2.058  -1.279  0.00  0.00    +0.030 A 
ATOM     14  C   LIG    1       -1.333   2.703  -0.797  0.00  0.00    -0.010 A 
ATOM     15  C   LIG    1       -1.222   3.955  -0.220  0.00  0.00    -0.070 A 
ATOM     16  C   LIG    1       -2.448   4.651   0.310  0.00  0.00    +0.090 C 
ATOM     17  C   LIG    1        0.012   4.570  -0.135  0.00  0.00    -0.110 A 
ATOM     18  C   LIG    1        0.132   5.936   0.488  0.00  0.00    +0.090 C 
ENDBRANCH   8  11
ENDBRANCH   4   7
BRANCH   6  19
ATOM     19  S   LIG    1        8.627   3.347   0.462  0.00  0.00    +2.700 S 
ATOM     20  O   LIG    1        8.229   1.989   0.343  0.00  0.00    -0.930 OA
ATOM     21  O   LIG    1        9.268   3.870   1.617  0.00  0.00    -0.920 OA
BRANCH  19  22
ATOM     22  N   LIG    1        9.639   3.652  -0.813  0.00  0.00    -1.040 N 
ATOM     23  H   LIG    1       10.475   4.121  -0.667  0.00  0.00    +0.430 HD
BRANCH  22  24
ATOM     24  C   LIG    1        9.287   3.235  -2.099  0.00  0.00    +0.200 A 
ATOM     25  C   LIG    1        7.952   3.192  -2.476  0.00  0.00    -0.010 A 
ATOM     26  C   LIG    1        7.607   2.782  -3.751  0.00  0.00    +0.010 A 
ATOM     27  C   LIG    1        8.592   2.405  -4.647  0.00  0.00    +0.030 A 
ATOM     28  C   LIG    1        9.923   2.442  -4.273  0.00  0.00    +0.090 A 
ATOM     29 CL   LIG    1        5.938   2.734  -4.225  0.00  0.00    -0.050 Cl
ATOM     30  C   LIG    1       10.274   2.855  -3.002  0.00  0.00    -0.060 A 
ATOM     31 CL   LIG    1       11.944   2.899  -2.533  0.00  0.00    -0.050 Cl
ENDBRANCH  22  24
ENDBRANCH  19  22
ENDBRANCH   6  19
BRANCH   1  33
ATOM     32  C   LIG    1        8.473   7.738   0.374  0.00  0.00    +0.270 C 
ATOM     33  O   LIG    1        8.459   6.309   0.392  0.00  0.00    -0.300 OA
ENDBRANCH   1  33
TORSDOF 6
