REMARK  Name = ZINCrD000000C0AT.0
REMARK                            x       y       z     vdW  Elec       q    Type
REMARK                         _______ _______ _______ _____ _____    ______ ____
ROOT
ATOM      1  O   LIG    1       -4.189   8.879   1.095  0.00  0.00    -0.510 OA
ATOM      2  C   LIG    1       -3.379   9.570   0.508  0.00  0.00    +0.560 C 
ATOM      3  N   LIG    1       -2.267   9.013  -0.011  0.00  0.00    -0.660 N 
ATOM      4  H   LIG    1       -1.588   9.573  -0.418  0.00  0.00    +0.410 HD
ENDROOT
BRANCH   2   5
ATOM      5  C   LIG    1       -3.613  11.023   0.365  0.00  0.00    -0.070 A 
ATOM      6  C   LIG    1       -2.682  11.821  -0.302  0.00  0.00    +0.030 A 
ATOM      7  C   LIG    1       -2.910  13.174  -0.438  0.00  0.00    +0.130 A 
ATOM      8  C   LIG    1       -4.052  13.744   0.096  0.00  0.00    -0.640 A 
ATOM      9  C   LIG    1       -4.976  12.960   0.764  0.00  0.00    +0.140 A 
ATOM     10  C   LIG    1       -4.763  11.604   0.902  0.00  0.00    +0.070 A 
BRANCH   8  11
ATOM     11  S   LIG    1       -4.332  15.475  -0.075  0.00  0.00    +2.470 S 
ATOM     12  O   LIG    1       -5.745  15.610  -0.010  0.00  0.00    -0.880 OA
ATOM     13  O   LIG    1       -3.615  15.831  -1.250  0.00  0.00    -0.880 OA
BRANCH  11  14
ATOM     14  C   LIG    1       -3.554  16.207   1.391  0.00  0.00    -0.050 C 
ATOM     15  F   LIG    1       -2.190  15.896   1.400  0.00  0.00    -0.160 F 
ATOM     16  F   LIG    1       -4.157  15.692   2.544  0.00  0.00    -0.160 F 
ENDBRANCH  11  14
ENDBRANCH   8  11
ENDBRANCH   2   5
BRANCH   3  17
ATOM     17  C   LIG    1       -2.092   7.624   0.039  0.00  0.00    +0.060 A 
ATOM     18  C   LIG    1       -2.556   6.892   1.131  0.00  0.00    +0.100 A 
ATOM     19  C   LIG    1       -2.366   5.522   1.134  0.00  0.00    -0.030 A 
ATOM     20  C   LIG    1       -1.714   4.925   0.061  0.00  0.00    +0.300 A 
ATOM     21  N   LIG    1       -1.286   5.651  -0.960  0.00  0.00    -0.500 NA
ATOM     22  C   LIG    1       -1.455   6.959  -0.999  0.00  0.00    +0.270 A 
BRANCH  20  23
ATOM     23  N   LIG    1       -1.514   3.547   0.058  0.00  0.00    -0.470 N 
ATOM     24  C   LIG    1       -0.816   3.120  -1.162  0.00  0.00    +0.210 C 
ATOM     25  C   LIG    1       -0.742   1.592  -1.200  0.00  0.00    +0.020 C 
ATOM     26  C   LIG    1        0.004   1.091   0.039  0.00  0.00    +0.010 C 
ATOM     27  C   LIG    1       -0.714   1.590   1.296  0.00  0.00    +0.020 C 
ATOM     28  C   LIG    1       -0.790   3.118   1.261  0.00  0.00    +0.190 C 
ENDBRANCH  20  23
ENDBRANCH   3  17
TORSDOF 5
