REMARK  Name = ZINCrH00000No4J8.0
REMARK                            x       y       z     vdW  Elec       q    Type
REMARK                         _______ _______ _______ _____ _____    ______ ____
ROOT
ATOM      1  C   LIG    1        3.696  -0.705  -0.036  0.00  0.00    +0.590 C 
ATOM      2  N   LIG    1        4.856  -0.028  -0.144  0.00  0.00    -0.630 N 
ATOM      3  C   LIG    1        5.270   1.385  -0.184  0.00  0.00    +0.270 C 
ATOM      4  C   LIG    1        6.614   0.938   0.430  0.00  0.00    +0.000 C 
ATOM      5  C   LIG    1        6.584   0.931   1.945  0.00  0.00    +0.030 C 
ATOM      6  C   LIG    1        6.996  -0.389   2.565  0.00  0.00    +0.000 C 
ATOM      7  C   LIG    1        6.277  -1.560   1.903  0.00  0.00    +0.030 C 
ATOM      8  C   LIG    1        6.705  -1.635   0.435  0.00  0.00    +0.050 C 
ATOM      9  C   LIG    1        6.275  -0.365  -0.283  0.00  0.00    +0.220 C 
ATOM     10  O   LIG    1        3.706  -1.917   0.061  0.00  0.00    -0.520 OA
ENDROOT
BRANCH   1  13
ATOM     11  C   LIG    1        0.015   0.016   0.224  0.00  0.00    +0.080 A 
ATOM     12  C   LIG    1        1.218  -0.660   0.220  0.00  0.00    +0.040 A 
ATOM     13  C   LIG    1        2.412   0.025  -0.034  0.00  0.00    -0.110 A 
ATOM     14  C   LIG    1        2.391   1.394  -0.284  0.00  0.00    +0.080 A 
ATOM     15  C   LIG    1        1.175   2.082  -0.281  0.00  0.00    -0.190 A 
ATOM     16  C   LIG    1       -0.018   1.387  -0.025  0.00  0.00    +0.170 A 
BRANCH  11  18
ATOM     17  C   LIG    1       -1.034  -2.060   0.720  0.00  0.00    +0.250 C 
ATOM     18  O   LIG    1       -1.141  -0.656   0.472  0.00  0.00    -0.300 OA
ENDBRANCH  11  18
BRANCH  15  19
ATOM     19  C   LIG    1        1.146   3.526  -0.545  0.00  0.00    +0.490 C 
ATOM     20  O   LIG    1        0.089   4.122  -0.542  0.00  0.00    -0.430 OA
ENDBRANCH  15  19
BRANCH  16  21
ATOM     21  O   LIG    1       -1.202   2.048  -0.026  0.00  0.00    -0.470 OA
ATOM     22  H   LIG    1       -1.457   2.399   0.838  0.00  0.00    +0.400 HD
ENDBRANCH  16  21
ENDBRANCH   1  13
BRANCH   9  23
ATOM     23  C   LIG    1        6.732  -0.348  -1.719  0.00  0.00    -0.090 A 
ATOM     24  C   LIG    1        7.872   0.347  -2.074  0.00  0.00    +0.020 A 
ATOM     25  C   LIG    1        8.293   0.358  -3.390  0.00  0.00    +0.010 A 
ATOM     26  C   LIG    1        7.569  -0.318  -4.354  0.00  0.00    +0.000 A 
ATOM     27  C   LIG    1        6.425  -1.009  -4.000  0.00  0.00    +0.000 A 
ATOM     28  C   LIG    1        6.007  -1.025  -2.682  0.00  0.00    +0.020 A 
ENDBRANCH   9  23
TORSDOF 5
