REMARK  Name = ZINCrH000004tYRG.0
REMARK                            x       y       z     vdW  Elec       q    Type
REMARK                         _______ _______ _______ _____ _____    ______ ____
ROOT
ATOM      1  O   LIG    1        2.082   9.441   0.132  0.00  0.00    -0.440 OA
ATOM      2  C   LIG    1        1.058  10.081   0.147  0.00  0.00    +0.450 C 
ENDROOT
BRANCH   2   3
ATOM      3  O   LIG    1       -0.126   9.456   0.050  0.00  0.00    -0.290 OA
BRANCH   3   4
ATOM      4  C   LIG    1       -0.109   8.097   0.060  0.00  0.00    +0.090 A 
ATOM      5  C   LIG    1        0.234   7.417   1.220  0.00  0.00    +0.010 A 
ATOM      6  C   LIG    1        0.252   6.038   1.234  0.00  0.00    +0.040 A 
ATOM      7  C   LIG    1       -0.075   5.327   0.080  0.00  0.00    -0.040 A 
ATOM      8  C   LIG    1       -0.415   6.013  -1.085  0.00  0.00    +0.040 A 
ATOM      9  C   LIG    1       -0.436   7.392  -1.090  0.00  0.00    +0.030 A 
BRANCH   7  10
ATOM     10  C   LIG    1       -0.057   3.844   0.091  0.00  0.00    -0.050 A 
ATOM     11  C   LIG    1       -0.384   3.132  -1.062  0.00  0.00    +0.020 A 
ATOM     12  C   LIG    1       -0.365   1.752  -1.046  0.00  0.00    +0.010 A 
ATOM     13  C   LIG    1       -0.022   1.076   0.111  0.00  0.00    +0.000 A 
ATOM     14  C   LIG    1        0.298   1.777   1.259  0.00  0.00    +0.010 A 
ATOM     15  C   LIG    1        0.288   3.157   1.254  0.00  0.00    +0.020 A 
ENDBRANCH   7  10
ENDBRANCH   3   4
ENDBRANCH   2   3
BRANCH   2  16
ATOM     16  C   LIG    1        1.110  11.582   0.274  0.00  0.00    +0.240 C 
BRANCH  16  17
ATOM     17  C   LIG    1        2.546  12.029   0.365  0.00  0.00    +0.110 A 
ATOM     18  N   LIG    1        3.503  11.151   0.327  0.00  0.00    -0.170 NA
ATOM     19  N   LIG    1        4.851  11.503   0.407  0.00  0.00    -0.530 N 
ATOM     20  H   LIG    1        5.524  10.804   0.374  0.00  0.00    +0.440 HD
ATOM     21  C   LIG    1        5.244  12.788   0.528  0.00  0.00    +0.530 A 
ATOM     22  C   LIG    1        4.220  13.838   0.577  0.00  0.00    -0.130 A 
ATOM     23  C   LIG    1        4.551  15.186   0.701  0.00  0.00    +0.090 A 
ATOM     24  C   LIG    1        3.549  16.132   0.725  0.00  0.00    +0.030 A 
ATOM     25  C   LIG    1        2.215  15.754   0.645  0.00  0.00    +0.060 A 
ATOM     26  C   LIG    1        1.864  14.428   0.527  0.00  0.00    +0.040 A 
ATOM     27  O   LIG    1        6.427  13.071   0.595  0.00  0.00    -0.520 OA
ATOM     28  C   LIG    1        2.862  13.452   0.489  0.00  0.00    -0.050 A 
ENDBRANCH  16  17
ENDBRANCH   2  16
TORSDOF 5
