REMARK  Name = ZINCpk00000FhRX9.0
REMARK                            x       y       z     vdW  Elec       q    Type
REMARK                         _______ _______ _______ _____ _____    ______ ____
ROOT
ATOM      1  C   LIG    1        1.268  -0.372  -0.012  0.00  0.00    +0.250 A 
ATOM      2  N   LIG    1        0.002  -0.004   0.002  0.00  0.00    -0.310 NA
ATOM      3  N   LIG    1       -0.017   1.397   0.010  0.00  0.00    -0.320 N 
ATOM      4  C   LIG    1        1.288   1.803  -0.001  0.00  0.00    +0.470 A 
ATOM      5  N   LIG    1        1.589   3.107   0.003  0.00  0.00    -0.460 NA
ATOM      6  C   LIG    1        0.641   4.017   0.017  0.00  0.00    +0.260 A 
ATOM      7  C   LIG    1       -0.705   3.635   0.027  0.00  0.00    -0.190 A 
ATOM      8  C   LIG    1        1.006   5.479   0.021  0.00  0.00    +0.170 C 
ATOM      9  C   LIG    1       -1.020   2.313   0.029  0.00  0.00    +0.230 A 
ATOM     10  C   LIG    1       -2.460   1.870   0.047  0.00  0.00    +0.180 C 
ATOM     11  N   LIG    1        2.043   0.710  -0.014  0.00  0.00    -0.530 NA
ENDROOT
BRANCH   1  13
ATOM     12  C   LIG    1        3.647  -1.845  -0.043  0.00  0.00    +0.150 C 
ATOM     13  S   LIG    1        1.843  -2.037  -0.026  0.00  0.00    +0.040 S 
ENDBRANCH   1  13
BRANCH   7  14
ATOM     14  C   LIG    1       -1.793   4.678   0.042  0.00  0.00    +0.200 C 
BRANCH  14  15
ATOM     15  C   LIG    1       -2.058   5.108   1.462  0.00  0.00    +0.460 C 
ATOM     16  O   LIG    1       -1.427   4.619   2.369  0.00  0.00    -0.500 OA
BRANCH  15  17
ATOM     17  O   LIG    1       -2.993   6.035   1.719  0.00  0.00    -0.320 OA
BRANCH  17  18
ATOM     18  C   LIG    1       -3.194   6.401   3.109  0.00  0.00    +0.180 C 
ATOM     19  C   LIG    1       -2.272   7.568   3.468  0.00  0.00    +0.070 C 
BRANCH  18  20
ATOM     20  C   LIG    1       -4.629   6.812   3.318  0.00  0.00    +0.520 C 
ATOM     21  N   LIG    1       -5.049   7.196   4.540  0.00  0.00    -0.720 N 
ATOM     22  H   LIG    1       -4.428   7.207   5.285  0.00  0.00    +0.400 HD
ATOM     23  O   LIG    1       -5.406   6.798   2.387  0.00  0.00    -0.510 OA
BRANCH  21  24
ATOM     24  C   LIG    1       -6.444   7.595   4.744  0.00  0.00    +0.230 C 
ATOM     25  C   LIG    1       -6.535   8.535   5.947  0.00  0.00    +0.040 C 
ATOM     26  C   LIG    1       -7.298   6.353   5.001  0.00  0.00    +0.020 C 
ENDBRANCH  21  24
ENDBRANCH  18  20
ENDBRANCH  17  18
ENDBRANCH  15  17
ENDBRANCH  14  15
ENDBRANCH   7  14
TORSDOF 7
