REMARK  Name = ZINCqH00000098Ir.0
REMARK                            x       y       z     vdW  Elec       q    Type
REMARK                         _______ _______ _______ _____ _____    ______ ____
ROOT
ATOM      1  N   LIG    1       -0.011   0.966   0.007  0.00  0.00    -0.720 N 
ATOM      2  H   LIG    1        0.002  -0.004   0.002  0.00  0.00    +0.400 HD
ATOM      3  C   LIG    1        1.147   1.655   0.000  0.00  0.00    +0.510 C 
ATOM      4  O   LIG    1        1.130   2.868   0.007  0.00  0.00    -0.530 OA
ENDROOT
BRANCH   1   6
ATOM      5  C   LIG    1       -1.680   2.047  -1.416  0.00  0.00    +0.040 C 
ATOM      6  C   LIG    1       -1.290   1.681   0.017  0.00  0.00    +0.290 C 
BRANCH   6   7
ATOM      7  C   LIG    1       -2.354   0.799   0.618  0.00  0.00    -0.090 A 
ATOM      8  C   LIG    1       -2.383  -0.549   0.317  0.00  0.00    +0.040 A 
ATOM      9  C   LIG    1       -3.357  -1.363   0.865  0.00  0.00    +0.050 A 
ATOM     10  C   LIG    1       -4.308  -0.827   1.718  0.00  0.00    +0.040 A 
ATOM     11  O   LIG    1       -5.356  -1.399   2.380  0.00  0.00    -0.310 OA
ATOM     12  C   LIG    1       -6.210  -0.306   2.765  0.00  0.00    +0.440 C 
ATOM     13  O   LIG    1       -5.308   0.811   2.874  0.00  0.00    -0.310 OA
ATOM     14  C   LIG    1       -4.279   0.533   2.022  0.00  0.00    +0.040 A 
ATOM     15  C   LIG    1       -3.296   1.340   1.474  0.00  0.00    +0.050 A 
ENDBRANCH   6   7
ENDBRANCH   1   6
BRANCH   3  16
ATOM     16  C   LIG    1        2.462   0.920  -0.017  0.00  0.00    +0.280 C 
BRANCH  16  17
ATOM     17  N   LIG    1        3.562   1.887  -0.022  0.00  0.00    -0.730 N 
ATOM     18  H   LIG    1        3.372   2.838  -0.015  0.00  0.00    +0.410 HD
BRANCH  17  19
ATOM     19  C   LIG    1        4.885   1.439  -0.037  0.00  0.00    +0.220 A 
ATOM     20  C   LIG    1        5.160   0.078  -0.041  0.00  0.00    -0.040 A 
ATOM     21  C   LIG    1        6.469  -0.361  -0.060  0.00  0.00    +0.070 A 
ATOM     22  C   LIG    1        7.506   0.553  -0.065  0.00  0.00    +0.000 A 
ATOM     23  C   LIG    1        7.237   1.909  -0.056  0.00  0.00    -0.130 A 
ATOM     24  C   LIG    1        5.930   2.355  -0.042  0.00  0.00    +0.000 A 
BRANCH  23  25
ATOM     25  C   LIG    1        8.371   2.902  -0.062  0.00  0.00    +0.510 C 
ATOM     26  F   LIG    1        7.963   4.072  -0.712  0.00  0.00    -0.180 F 
ATOM     27  F   LIG    1        9.468   2.353  -0.734  0.00  0.00    -0.180 F 
ATOM     28  F   LIG    1        8.734   3.202   1.255  0.00  0.00    -0.180 F 
ENDBRANCH  23  25
ENDBRANCH  17  19
ENDBRANCH  16  17
ENDBRANCH   3  16
TORSDOF 6
