REMARK  Name = ZINCbw0000000Hdr.0
REMARK                            x       y       z     vdW  Elec       q    Type
REMARK                         _______ _______ _______ _____ _____    ______ ____
ROOT
ATOM      1  C   LIG    1       -0.018  -3.836   1.982  0.00  0.00    +0.080 C 
ATOM      2  C   LIG    1       -0.022  -2.513   1.260  0.00  0.00    -0.030 C 
ATOM      3  C   LIG    1       -1.169  -2.096   0.752  0.00  0.00    -0.110 C 
ATOM      4  C   LIG    1       -1.241  -0.820   0.016  0.00  0.00    +0.420 C 
ATOM      5  C   LIG    1        0.002  -0.004   0.002  0.00  0.00    -0.220 C 
ATOM      6  C   LIG    1        1.294  -0.802  -0.015  0.00  0.00    +0.090 C 
ATOM      7  C   LIG    1       -0.016   1.327   0.009  0.00  0.00    -0.040 C 
ATOM      8  C   LIG    1       -1.331   2.063   0.020  0.00  0.00    +0.090 C 
ATOM      9  C   LIG    1        1.279   2.098   0.001  0.00  0.00    +0.090 C 
ATOM     10  O   LIG    1       -2.257  -0.459  -0.548  0.00  0.00    -0.450 OA
ATOM     11  C   LIG    1        1.273  -1.769   1.170  0.00  0.00    +0.080 C 
ENDROOT
TORSDOF 0
