REMARK  Name = ZINC9p0000002o0A.0
REMARK                            x       y       z     vdW  Elec       q    Type
REMARK                         _______ _______ _______ _____ _____    ______ ____
ROOT
ATOM      1  C   LIG    1       -2.904   1.556   0.038  0.00  0.00    -0.010 C 
ATOM      2  C   LIG    1       -2.188   1.063  -1.221  0.00  0.00    +0.050 C 
ATOM      3  C   LIG    1       -0.753   1.593  -1.232  0.00  0.00    +0.020 C 
ATOM      4  C   LIG    1       -0.013   1.086   0.008  0.00  0.00    +0.040 C 
ATOM      5  C   LIG    1       -0.729   1.579   1.267  0.00  0.00    +0.040 C 
ATOM      6  C   LIG    1       -2.164   1.050   1.278  0.00  0.00    +0.170 C 
ENDROOT
BRANCH   6   7
ATOM      7  N   LIG    1       -2.852   1.523   2.486  0.00  0.00    -0.640 N 
ATOM      8  H   LIG    1       -2.865   2.532   2.492  0.00  0.00    +0.430 HD
ATOM      9  H   LIG    1       -2.364   1.189   3.304  0.00  0.00    +0.440 HD
ATOM     10  H   LIG    1       -3.798   1.174   2.494  0.00  0.00    +0.440 HD
ENDBRANCH   6   7
BRANCH   1  12
ATOM     11  C   LIG    1       -3.770   3.591  -1.124  0.00  0.00    +0.040 C 
ATOM     12  C   LIG    1       -2.925   3.086   0.047  0.00  0.00    -0.000 C 
ENDBRANCH   1  12
TORSDOF 2
