REMARK  Name = ZINCrD00000F5Lvp.0
REMARK                            x       y       z     vdW  Elec       q    Type
REMARK                         _______ _______ _______ _____ _____    ______ ____
ROOT
ATOM      1  C   LIG    1       -1.251   7.477   0.807  0.00  0.00    +0.030 C 
ATOM      2  C   LIG    1        0.194   7.189   1.220  0.00  0.00    +0.260 C 
ENDROOT
BRANCH   2   3
ATOM      3  N   LIG    1        0.359   5.752   1.454  0.00  0.00    -0.710 N 
ATOM      4  H   LIG    1        0.276   5.395   2.351  0.00  0.00    +0.400 HD
ATOM      5  C   LIG    1        0.626   4.928   0.422  0.00  0.00    +0.570 C 
ATOM      6  O   LIG    1        0.730   5.377  -0.704  0.00  0.00    -0.510 OA
BRANCH   5   7
ATOM      7  C   LIG    1        0.792   3.481   0.657  0.00  0.00    -0.200 A 
ATOM      8  C   LIG    1        2.056   2.955   0.945  0.00  0.00    +0.160 A 
ATOM      9  C   LIG    1        2.202   1.598   1.164  0.00  0.00    -0.010 A 
ATOM     10  C   LIG    1        1.103   0.761   1.099  0.00  0.00    +0.110 A 
ATOM     11  C   LIG    1       -0.149   1.271   0.810  0.00  0.00    -0.010 A 
ATOM     12  F   LIG    1        3.130   3.771   1.009  0.00  0.00    -0.120 F 
ATOM     13  C   LIG    1       -0.315   2.627   0.594  0.00  0.00    +0.160 A 
ATOM     14  F   LIG    1       -1.540   3.124   0.316  0.00  0.00    -0.120 F 
ENDBRANCH   5   7
ENDBRANCH   2   3
BRANCH   2  15
ATOM     15  C   LIG    1        0.520   7.956   2.503  0.00  0.00    -0.020 C 
ATOM     16  C   LIG    1       -0.427   7.509   3.619  0.00  0.00    +0.060 C 
BRANCH  15  17
ATOM     17  C   LIG    1        0.351   9.434   2.263  0.00  0.00    +0.540 C 
ATOM     18  N   LIG    1        0.593  10.310   3.257  0.00  0.00    -0.620 N 
ATOM     19  C   LIG    1        0.366  11.761   3.194  0.00  0.00    +0.260 C 
ATOM     20  C   LIG    1        0.808  12.354   4.549  0.00  0.00    +0.040 C 
ATOM     21  C   LIG    1        1.787  11.280   5.094  0.00  0.00    +0.100 C 
ATOM     22  C   LIG    1        1.123   9.972   4.591  0.00  0.00    +0.260 C 
ATOM     23  O   LIG    1       -0.003   9.834   1.174  0.00  0.00    -0.520 OA
BRANCH  21  24
ATOM     24  C   LIG    1        1.839  11.312   6.600  0.00  0.00    -0.010 A 
ATOM     25  C   LIG    1        2.940  11.513   7.345  0.00  0.00    -0.050 A 
ATOM     26  C   LIG    1        2.534  11.466   8.699  0.00  0.00    -0.060 A 
ATOM     27  C   LIG    1        1.210  11.231   8.700  0.00  0.00    +0.160 A 
ATOM     28  O   LIG    1        0.794  11.138   7.426  0.00  0.00    -0.170 OA
ENDBRANCH  21  24
ENDBRANCH  15  17
ENDBRANCH   2  15
TORSDOF 5
