REMARK  Name = ZINCrH000004vAnm.0
REMARK                            x       y       z     vdW  Elec       q    Type
REMARK                         _______ _______ _______ _____ _____    ______ ____
ROOT
ATOM      1  O   LIG    1       -2.456   5.064  -0.377  0.00  0.00    -0.530 OA
ATOM      2  C   LIG    1       -2.436   3.925   0.047  0.00  0.00    +0.580 C 
ATOM      3  N   LIG    1       -3.558   3.372   0.548  0.00  0.00    -0.620 N 
ATOM      4  C   LIG    1       -3.651   2.052   1.198  0.00  0.00    +0.270 C 
ATOM      5  C   LIG    1       -4.901   2.148   2.111  0.00  0.00    +0.050 C 
ATOM      6  C   LIG    1       -5.856   3.004   1.237  0.00  0.00    +0.240 C 
ATOM      7  C   LIG    1       -4.895   3.984   0.532  0.00  0.00    +0.240 C 
ENDROOT
BRANCH   2   8
ATOM      8  C   LIG    1       -1.183   3.146   0.013  0.00  0.00    -0.220 A 
ATOM      9  C   LIG    1       -1.216   1.744  -0.001  0.00  0.00    +0.120 A 
ATOM     10  C   LIG    1       -0.029   1.062  -0.028  0.00  0.00    -0.060 A 
ATOM     11  C   LIG    1        1.168   1.775  -0.052  0.00  0.00    +0.350 A 
ATOM     12  N   LIG    1        1.172   3.102  -0.044  0.00  0.00    -0.520 NA
ATOM     13  C   LIG    1        0.053   3.795  -0.013  0.00  0.00    +0.360 A 
BRANCH  11  14
ATOM     14  N   LIG    1        2.370   1.089  -0.084  0.00  0.00    -0.490 N 
ATOM     15  C   LIG    1        2.428   0.070   0.987  0.00  0.00    +0.200 C 
ATOM     16  C   LIG    1        3.804  -0.510   1.167  0.00  0.00    +0.040 C 
ATOM     17  C   LIG    1        4.531   0.287   2.271  0.00  0.00    +0.010 C 
ATOM     18  C   LIG    1        5.045   1.562   1.781  0.00  0.00    +0.000 C 
ATOM     19  C   LIG    1        3.920   2.485   1.269  0.00  0.00    +0.010 C 
ATOM     20  C   LIG    1        3.515   2.027  -0.105  0.00  0.00    +0.230 C 
ENDBRANCH  11  14
ENDBRANCH   2   8
BRANCH   6  21
ATOM     21  N   LIG    1       -6.815   3.729   2.074  0.00  0.00    -0.740 N 
ATOM     22  H   LIG    1       -6.626   3.873   3.014  0.00  0.00    +0.400 HD
BRANCH  21  23
ATOM     23  C   LIG    1       -8.001   4.213   1.518  0.00  0.00    +0.210 A 
ATOM     24  C   LIG    1       -8.271   4.013   0.170  0.00  0.00    -0.080 A 
ATOM     25  C   LIG    1       -9.447   4.490  -0.375  0.00  0.00    +0.050 A 
ATOM     26  C   LIG    1      -10.351   5.174   0.416  0.00  0.00    -0.060 A 
ATOM     27  C   LIG    1      -10.083   5.380   1.757  0.00  0.00    +0.050 A 
ATOM     28  C   LIG    1       -8.911   4.902   2.310  0.00  0.00    -0.070 A 
ENDBRANCH  21  23
ENDBRANCH   6  21
TORSDOF 4
