REMARK  Name = ZINCrD000000CaaK.0
REMARK                            x       y       z     vdW  Elec       q    Type
REMARK                         _______ _______ _______ _____ _____    ______ ____
ROOT
ATOM      1  O   LIG    1        4.596  -3.948  -5.090  0.00  0.00    -0.570 OA
ATOM      2  C   LIG    1        5.415  -3.256  -4.516  0.00  0.00    +0.710 C 
ATOM      3  N   LIG    1        5.006  -2.256  -3.710  0.00  0.00    -0.620 N 
ATOM      4  C   LIG    1        5.974  -1.482  -2.917  0.00  0.00    +0.280 C 
ATOM      5  C   LIG    1        5.502  -1.460  -1.460  0.00  0.00    +0.170 C 
ATOM      6  N   LIG    1        4.119  -0.969  -1.403  0.00  0.00    -0.530 NA
ATOM      7  C   LIG    1        3.204  -1.871  -2.114  0.00  0.00    +0.160 C 
ATOM      8  C   LIG    1        3.581  -1.911  -3.599  0.00  0.00    +0.310 C 
ATOM      9  N   LIG    1        6.732  -3.489  -4.686  0.00  0.00    -0.680 N 
ATOM     10  H   LIG    1        7.384  -2.975  -4.185  0.00  0.00    +0.410 HD
ENDROOT
BRANCH   9  11
ATOM     11  C   LIG    1        7.158  -4.473  -5.589  0.00  0.00    +0.170 A 
ATOM     12  C   LIG    1        6.325  -5.535  -5.904  0.00  0.00    +0.070 A 
ATOM     13  C   LIG    1        6.745  -6.501  -6.800  0.00  0.00    +0.030 A 
ATOM     14  C   LIG    1        8.000  -6.417  -7.373  0.00  0.00    +0.040 A 
ATOM     15  C   LIG    1        8.839  -5.364  -7.059  0.00  0.00    -0.030 A 
ATOM     16  C   LIG    1        8.423  -4.389  -6.168  0.00  0.00    +0.070 A 
BRANCH  16  17
ATOM     17  O   LIG    1        9.247  -3.352  -5.857  0.00  0.00    -0.320 OA
BRANCH  17  18
ATOM     18  C   LIG    1       10.529  -3.331  -6.489  0.00  0.00    +0.610 C 
ATOM     19  F   LIG    1       11.236  -4.489  -6.147  0.00  0.00    -0.160 F 
ATOM     20  F   LIG    1       11.241  -2.206  -6.060  0.00  0.00    -0.130 F 
ATOM     21  F   LIG    1       10.364  -3.278  -7.877  0.00  0.00    -0.160 F 
ENDBRANCH  17  18
ENDBRANCH  16  17
ENDBRANCH   9  11
BRANCH   6  22
ATOM     22  C   LIG    1        3.687  -0.769  -0.013  0.00  0.00    +0.230 C 
BRANCH  22  23
ATOM     23  C   LIG    1        2.368  -0.040   0.003  0.00  0.00    -0.040 A 
ATOM     24  C   LIG    1        1.171  -0.739  -0.018  0.00  0.00    -0.040 A 
ATOM     25  C   LIG    1       -0.019  -0.036  -0.003  0.00  0.00    +0.260 A 
ATOM     26  N   LIG    1       -0.024   1.282   0.032  0.00  0.00    -0.480 NA
ATOM     27  C   LIG    1        1.095   1.979   0.053  0.00  0.00    +0.260 A 
ATOM     28  C   LIG    1        2.323   1.345   0.040  0.00  0.00    -0.010 A 
ENDBRANCH  22  23
ENDBRANCH   6  22
TORSDOF 5
