REMARK  Name = ZINCpk00000y6ueU.0
REMARK                            x       y       z     vdW  Elec       q    Type
REMARK                         _______ _______ _______ _____ _____    ______ ____
ROOT
ATOM      1  C   LIG    1        0.608   6.067  -0.905  0.00  0.00    +0.260 C 
ATOM      2  C   LIG    1        0.411   4.554  -0.632  0.00  0.00    +0.250 C 
ATOM      3  N   LIG    1        1.257   4.270   0.541  0.00  0.00    -0.610 N 
ATOM      4  C   LIG    1        1.445   5.515   1.300  0.00  0.00    +0.260 C 
ATOM      5  C   LIG    1        1.768   3.066   0.868  0.00  0.00    +0.540 C 
ATOM      6  O   LIG    1        2.453   2.947   1.861  0.00  0.00    -0.510 OA
ATOM      7  C   LIG    1        0.705   6.633   0.536  0.00  0.00    -0.010 C 
ATOM      8  C   LIG    1        1.510   7.934   0.553  0.00  0.00    +0.060 C 
ENDROOT
BRANCH   5   9
ATOM      9  C   LIG    1        1.488   1.867  -0.002  0.00  0.00    +0.140 C 
ATOM     10  C   LIG    1       -0.018   1.513   0.010  0.00  0.00    +0.080 C 
ATOM     11  C   LIG    1        0.002  -0.004   0.002  0.00  0.00    +0.090 C 
ATOM     12  N   LIG    1        1.178  -0.394   0.308  0.00  0.00    -0.280 NA
ATOM     13  O   LIG    1        2.071   0.673   0.560  0.00  0.00    -0.170 OA
BRANCH  11  14
ATOM     14  C   LIG    1       -1.169  -0.899  -0.313  0.00  0.00    +0.070 C 
ATOM     15  C   LIG    1       -2.248  -0.723   0.756  0.00  0.00    +0.040 C 
ATOM     16  C   LIG    1       -0.705  -2.357  -0.335  0.00  0.00    +0.040 C 
ENDBRANCH  11  14
ENDBRANCH   5   9
BRANCH   1  18
ATOM     17  C   LIG    1        1.847   6.245  -2.995  0.00  0.00    +0.520 C 
ATOM     18  N   LIG    1        1.846   6.309  -1.649  0.00  0.00    -0.720 N 
ATOM     19  H   LIG    1        2.665   6.517  -1.173  0.00  0.00    +0.400 HD
ATOM     20  O   LIG    1        0.822   5.986  -3.591  0.00  0.00    -0.530 OA
BRANCH  17  21
ATOM     21  C   LIG    1        3.120   6.495  -3.761  0.00  0.00    +0.060 C 
BRANCH  21  22
ATOM     22  C   LIG    1        2.849   6.361  -5.261  0.00  0.00    +0.020 C 
ATOM     23  C   LIG    1        2.460   4.917  -5.582  0.00  0.00    +0.030 C 
BRANCH  22  24
ATOM     24  C   LIG    1        4.109   6.736  -6.043  0.00  0.00    +0.160 C 
BRANCH  24  26
ATOM     25  C   LIG    1        4.939   7.063  -8.268  0.00  0.00    +0.200 C 
ATOM     26  O   LIG    1        3.822   6.725  -7.443  0.00  0.00    -0.390 OA
ENDBRANCH  24  26
ENDBRANCH  22  24
ENDBRANCH  21  22
ENDBRANCH  17  21
ENDBRANCH   1  18
TORSDOF 7
