REMARK  Name = ZINCrD000000CV5b.0
REMARK                            x       y       z     vdW  Elec       q    Type
REMARK                         _______ _______ _______ _____ _____    ______ ____
ROOT
ATOM      1  O   LIG    1        3.033   4.409  -1.662  0.00  0.00    -0.520 OA
ATOM      2  C   LIG    1        3.735   3.519  -2.103  0.00  0.00    +0.700 C 
ATOM      3  N   LIG    1        4.244   3.514  -3.351  0.00  0.00    -0.710 N 
ATOM      4  H   LIG    1        4.121   4.192  -4.034  0.00  0.00    +0.440 HD
ATOM      5  C   LIG    1        5.018   2.278  -3.470  0.00  0.00    +0.160 C 
ATOM      6  C   LIG    1        4.874   1.609  -2.129  0.00  0.00    +0.530 C 
ATOM      7  O   LIG    1        5.359   0.554  -1.776  0.00  0.00    -0.440 OA
ATOM      8  C   LIG    1        6.490   2.570  -3.787  0.00  0.00    +0.080 C 
ATOM      9  C   LIG    1        6.529   2.418  -5.325  0.00  0.00    +0.100 C 
ATOM     10  C   LIG    1        5.385   1.484  -5.661  0.00  0.00    -0.070 A 
ATOM     11  C   LIG    1        5.126   0.761  -6.813  0.00  0.00    +0.020 A 
ATOM     12  C   LIG    1        4.002  -0.036  -6.897  0.00  0.00    +0.030 A 
ATOM     13  C   LIG    1        3.130  -0.113  -5.827  0.00  0.00    +0.010 A 
ATOM     14  C   LIG    1        3.385   0.607  -4.676  0.00  0.00    +0.030 A 
ATOM     15  C   LIG    1        4.512   1.407  -4.588  0.00  0.00    -0.110 A 
ATOM     16  N   LIG    1        4.089   2.434  -1.402  0.00  0.00    -0.570 N 
ENDROOT
BRANCH  16  17
ATOM     17  C   LIG    1        3.681   2.176  -0.019  0.00  0.00    +0.400 C 
BRANCH  17  18
ATOM     18  C   LIG    1        2.385   1.408  -0.012  0.00  0.00    -0.180 A 
ATOM     19  C   LIG    1        2.399   0.025  -0.021  0.00  0.00    +0.160 A 
ATOM     20  C   LIG    1        1.207  -0.680  -0.014  0.00  0.00    -0.040 A 
ATOM     21  C   LIG    1        0.002  -0.004   0.002  0.00  0.00    +0.100 A 
ATOM     22  C   LIG    1       -0.017   1.377   0.010  0.00  0.00    -0.070 A 
ATOM     23  F   LIG    1        3.576  -0.638  -0.035  0.00  0.00    -0.120 F 
ATOM     24  C   LIG    1        1.175   2.087   0.002  0.00  0.00    +0.160 A 
BRANCH  24  25
ATOM     25  O   LIG    1        1.158   3.446   0.009  0.00  0.00    -0.290 OA
BRANCH  25  26
ATOM     26  C   LIG    1       -0.123   4.079   0.024  0.00  0.00    +0.600 C 
ATOM     27  F   LIG    1       -0.823   3.688   1.171  0.00  0.00    -0.200 F 
ATOM     28  F   LIG    1       -0.844   3.699  -1.113  0.00  0.00    -0.200 F 
ENDBRANCH  25  26
ENDBRANCH  24  25
ENDBRANCH  17  18
ENDBRANCH  16  17
TORSDOF 4
