REMARK  Name = ZINCkj000005fl1r.1
REMARK                            x       y       z     vdW  Elec       q    Type
REMARK                         _______ _______ _______ _____ _____    ______ ____
ROOT
ATOM      1  C   LIG    1       -2.513  -3.113  -0.471  0.00  0.00    +0.110 C 
ATOM      2  C   LIG    1       -2.868  -1.910  -1.347  0.00  0.00    +0.060 C 
ATOM      3  C   LIG    1       -3.274  -2.403  -2.738  0.00  0.00    +0.110 C 
ATOM      4  C   LIG    1       -4.183  -1.364  -3.365  0.00  0.00    +0.510 C 
ATOM      5  N   LIG    1       -3.683  -0.183  -3.739  0.00  0.00    -0.730 N 
ATOM      6  H   LIG    1       -4.263   0.485  -4.137  0.00  0.00    +0.420 HD
ATOM      7  C   LIG    1       -2.250   0.105  -3.549  0.00  0.00    +0.330 C 
ATOM      8  C   LIG    1       -1.983   0.265  -2.050  0.00  0.00    +0.230 C 
ATOM      9  O   LIG    1       -5.361  -1.604  -3.526  0.00  0.00    -0.500 OA
ATOM     10  C   LIG    1       -4.043  -1.159  -0.716  0.00  0.00    +0.090 C 
ATOM     11  N   LIG    1       -1.720  -1.021  -1.426  0.00  0.00    -0.370 N 
ATOM     12  H   LIG    1       -0.994  -1.485  -1.951  0.00  0.00    +0.420 HD
ENDROOT
BRANCH  11  13
ATOM     13  C   LIG    1       -1.224  -0.783  -0.064  0.00  0.00    +0.330 C 
BRANCH  13  14
ATOM     14  C   LIG    1        0.051   0.019  -0.127  0.00  0.00    -0.120 A 
ATOM     15  C   LIG    1       -0.022   1.373  -0.101  0.00  0.00    +0.140 A 
ATOM     16  C   LIG    1        1.164   2.130  -0.160  0.00  0.00    -0.000 A 
ATOM     17  N   LIG    1        1.527   3.389  -0.161  0.00  0.00    -0.320 NA
ATOM     18  O   LIG    1        2.738   3.453  -0.232  0.00  0.00    +0.410 OA
ATOM     19  N   LIG    1        3.331   2.394  -0.285  0.00  0.00    -0.320 NA
ATOM     20  C   LIG    1        2.462   1.415  -0.249  0.00  0.00    +0.020 A 
ATOM     21  C   LIG    1        2.457   0.006  -0.271  0.00  0.00    +0.130 A 
ATOM     22  C   LIG    1        1.275  -0.656  -0.211  0.00  0.00    +0.050 A 
ENDBRANCH  13  14
ENDBRANCH  11  13
TORSDOF 2
