REMARK  Name = ZINCkj000005fl1r.0
REMARK                            x       y       z     vdW  Elec       q    Type
REMARK                         _______ _______ _______ _____ _____    ______ ____
ROOT
ATOM      1  C   LIG    1        3.745   6.112  -0.700  0.00  0.00    +0.090 C 
ATOM      2  C   LIG    1        4.199   4.812  -1.368  0.00  0.00    +0.060 C 
ATOM      3  C   LIG    1        4.934   5.145  -2.669  0.00  0.00    +0.110 C 
ATOM      4  C   LIG    1        4.267   6.352  -3.298  0.00  0.00    +0.510 C 
ATOM      5  N   LIG    1        3.041   6.238  -3.816  0.00  0.00    -0.730 N 
ATOM      6  H   LIG    1        2.610   7.010  -4.216  0.00  0.00    +0.420 HD
ATOM      7  C   LIG    1        2.344   4.941  -3.782  0.00  0.00    +0.330 C 
ATOM      8  C   LIG    1        1.953   4.639  -2.333  0.00  0.00    +0.230 C 
ATOM      9  O   LIG    1        4.845   7.418  -3.330  0.00  0.00    -0.500 OA
ATOM     10  C   LIG    1        5.152   4.072  -0.427  0.00  0.00    +0.110 C 
ATOM     11  N   LIG    1        3.038   3.977  -1.627  0.00  0.00    -0.370 N 
ATOM     12  H   LIG    1        3.333   3.182  -2.174  0.00  0.00    +0.420 HD
ENDROOT
BRANCH  11  13
ATOM     13  C   LIG    1        2.523   3.487  -0.341  0.00  0.00    +0.330 C 
BRANCH  13  14
ATOM     14  C   LIG    1        1.409   2.503  -0.588  0.00  0.00    -0.120 A 
ATOM     15  C   LIG    1        0.135   2.959  -0.673  0.00  0.00    +0.140 A 
ATOM     16  C   LIG    1       -0.912   2.046  -0.903  0.00  0.00    -0.000 A 
ATOM     17  N   LIG    1       -2.215   2.061  -1.046  0.00  0.00    -0.320 NA
ATOM     18  O   LIG    1       -2.607   0.926  -1.231  0.00  0.00    +0.410 OA
ATOM     19  N   LIG    1       -1.756   0.059  -1.245  0.00  0.00    -0.320 NA
ATOM     20  C   LIG    1       -0.582   0.607  -1.051  0.00  0.00    +0.020 A 
ATOM     21  C   LIG    1        0.764   0.208  -0.946  0.00  0.00    +0.130 A 
ATOM     22  C   LIG    1        1.720   1.144  -0.723  0.00  0.00    +0.050 A 
ENDBRANCH  13  14
ENDBRANCH  11  13
TORSDOF 2
