REMARK  Name = ZINCrD00000eNQWy.0
REMARK                            x       y       z     vdW  Elec       q    Type
REMARK                         _______ _______ _______ _____ _____    ______ ____
ROOT
ATOM      1  C   LIG    1       -0.368  -0.499   5.244  0.00  0.00    +0.030 C 
ATOM      2  C   LIG    1       -1.003  -0.800   3.885  0.00  0.00    +0.230 C 
ATOM      3  C   LIG    1       -2.479  -0.399   3.913  0.00  0.00    +0.290 C 
ATOM      4  N   LIG    1       -2.569   1.067   3.945  0.00  0.00    -0.600 N 
ATOM      5  C   LIG    1       -1.891   1.841   2.896  0.00  0.00    +0.280 C 
ATOM      6  C   LIG    1       -0.410   1.441   2.871  0.00  0.00    +0.280 C 
ATOM      7  C   LIG    1       -3.261   1.691   4.919  0.00  0.00    +0.600 C 
ATOM      8  O   LIG    1       -3.699   1.053   5.858  0.00  0.00    -0.510 OA
ATOM      9  N   LIG    1       -0.320  -0.025   2.839  0.00  0.00    -0.610 N 
ATOM     10  C   LIG    1        0.371  -0.649   1.865  0.00  0.00    +0.560 C 
ATOM     11  O   LIG    1        1.004   0.003   1.056  0.00  0.00    -0.530 OA
ENDROOT
BRANCH   7  12
ATOM     12  C   LIG    1       -3.487   3.141   4.846  0.00  0.00    -0.030 A 
ATOM     13  C   LIG    1       -4.044   3.895   5.829  0.00  0.00    +0.090 A 
ATOM     14  C   LIG    1       -4.067   5.265   5.321  0.00  0.00    -0.190 A 
ATOM     15  C   LIG    1       -4.501   6.492   5.831  0.00  0.00    +0.140 A 
ATOM     16  C   LIG    1       -4.363   7.612   5.033  0.00  0.00    -0.040 A 
ATOM     17  C   LIG    1       -3.805   7.481   3.770  0.00  0.00    +0.340 A 
ATOM     18  N   LIG    1       -3.401   6.316   3.310  0.00  0.00    -0.470 NA
ATOM     19  C   LIG    1       -3.509   5.207   4.029  0.00  0.00    +0.270 A 
ATOM     20  O   LIG    1       -3.179   3.923   3.790  0.00  0.00    -0.170 OA
ENDBRANCH   7  12
BRANCH  10  21
ATOM     21  C   LIG    1        0.361  -2.117   1.780  0.00  0.00    -0.160 C 
ATOM     22  C   LIG    1        1.152  -2.824   2.558  0.00  0.00    +0.000 C 
ATOM     23  C   LIG    1        1.149  -4.336   2.479  0.00  0.00    +0.060 C 
ATOM     24  C   LIG    1        1.816  -4.756   1.167  0.00  0.00    +0.010 C 
ATOM     25  C   LIG    1        0.810  -4.766   0.030  0.00  0.00    +0.000 C 
ATOM     26  C   LIG    1        0.287  -3.390  -0.338  0.00  0.00    +0.020 C 
ATOM     27  C   LIG    1       -0.560  -2.809   0.797  0.00  0.00    +0.080 C 
ENDBRANCH  10  21
TORSDOF 2
