REMARK  Name = ZINCpe00000yf1ri.0
REMARK                            x       y       z     vdW  Elec       q    Type
REMARK                         _______ _______ _______ _____ _____    ______ ____
ROOT
ATOM      1  N   LIG    1       -1.099   2.010   0.017  0.00  0.00    -0.570 N 
ATOM      2  C   LIG    1       -0.756   3.304   0.026  0.00  0.00    +0.710 C 
ATOM      3  N   LIG    1        0.579   3.481   0.014  0.00  0.00    -0.710 N 
ATOM      4  H   LIG    1        1.053   4.327   0.014  0.00  0.00    +0.440 HD
ATOM      5  C   LIG    1        1.176   2.139   0.002  0.00  0.00    +0.130 C 
ATOM      6  C   LIG    1        2.028   1.922   1.248  0.00  0.00    +0.050 C 
ATOM      7  C   LIG    1        3.210   2.894   1.237  0.00  0.00    +0.020 C 
ATOM      8  C   LIG    1        4.048   2.662  -0.021  0.00  0.00    +0.010 C 
ATOM      9  C   LIG    1        3.187   2.906  -1.262  0.00  0.00    +0.040 C 
ATOM     10  C   LIG    1        2.005   1.934  -1.261  0.00  0.00    +0.010 C 
ATOM     11  C   LIG    1        1.132   2.192  -2.491  0.00  0.00    +0.020 C 
ATOM     12  O   LIG    1       -1.558   4.216   0.037  0.00  0.00    -0.540 OA
ATOM     13  C   LIG    1       -0.014   1.208   0.009  0.00  0.00    +0.540 C 
ATOM     14  O   LIG    1        0.002  -0.004   0.002  0.00  0.00    -0.450 OA
ENDROOT
BRANCH   1  15
ATOM     15  C   LIG    1       -2.482   1.525   0.020  0.00  0.00    +0.420 C 
BRANCH  15  16
ATOM     16  C   LIG    1       -2.950   1.351   1.442  0.00  0.00    +0.450 C 
ATOM     17  O   LIG    1       -2.205   1.606   2.359  0.00  0.00    -0.500 OA
BRANCH  16  18
ATOM     18  O   LIG    1       -4.194   0.913   1.690  0.00  0.00    -0.330 OA
BRANCH  18  19
ATOM     19  C   LIG    1       -4.577   0.769   3.083  0.00  0.00    +0.250 C 
BRANCH  19  21
ATOM     20  N   LIG    1       -6.569   0.062   4.367  0.00  0.00    -0.610 N 
ATOM     21  C   LIG    1       -5.997   0.271   3.165  0.00  0.00    +0.520 C 
ATOM     22  O   LIG    1       -6.624   0.058   2.149  0.00  0.00    -0.510 OA
BRANCH  20  24
ATOM     23  C   LIG    1       -7.953  -1.952   4.465  0.00  0.00    +0.020 C 
ATOM     24  C   LIG    1       -7.950  -0.423   4.447  0.00  0.00    +0.280 C 
ENDBRANCH  20  24
BRANCH  20  25
ATOM     25  C   LIG    1       -5.811   0.319   5.594  0.00  0.00    +0.270 C 
ATOM     26  C   LIG    1       -6.025   1.770   6.031  0.00  0.00    +0.010 C 
ENDBRANCH  20  25
ENDBRANCH  19  21
ENDBRANCH  18  19
ENDBRANCH  16  18
ENDBRANCH  15  16
ENDBRANCH   1  15
TORSDOF 7
