REMARK  Name = ZINCrD000000ffVK.0
REMARK                            x       y       z     vdW  Elec       q    Type
REMARK                         _______ _______ _______ _____ _____    ______ ____
ROOT
ATOM      1  C   LIG    1       -6.894   2.326   1.524  0.00  0.00    +0.520 C 
ATOM      2  N   LIG    1       -7.569   2.300   2.691  0.00  0.00    -0.670 N 
ATOM      3  H   LIG    1       -7.086   2.226   3.529  0.00  0.00    +0.410 HD
ATOM      4  O   LIG    1       -7.500   2.334   0.473  0.00  0.00    -0.520 OA
ENDROOT
BRANCH   2   5
ATOM      5  C   LIG    1       -8.968   2.380   2.693  0.00  0.00    +0.130 A 
ATOM      6  C   LIG    1       -9.623   3.049   3.718  0.00  0.00    +0.010 A 
ATOM      7  C   LIG    1      -11.002   3.132   3.717  0.00  0.00    +0.050 A 
ATOM      8  C   LIG    1      -11.732   2.537   2.697  0.00  0.00    +0.140 A 
ATOM      9  C   LIG    1      -11.077   1.863   1.675  0.00  0.00    +0.010 A 
ATOM     10  C   LIG    1       -9.699   1.784   1.673  0.00  0.00    +0.050 A 
BRANCH   8  11
ATOM     11  N   LIG    1      -13.131   2.617   2.699  0.00  0.00    -0.650 N 
ATOM     12  H   LIG    1      -13.660   1.872   2.372  0.00  0.00    +0.420 HD
ATOM     13  C   LIG    1      -13.742   3.728   3.156  0.00  0.00    +0.650 C 
ATOM     14  O   LIG    1      -13.085   4.626   3.643  0.00  0.00    -0.550 OA
BRANCH  13  15
ATOM     15  O   LIG    1      -15.081   3.842   3.072  0.00  0.00    -0.370 OA
ATOM     16  C   LIG    1      -15.671   5.066   3.584  0.00  0.00    +0.310 C 
ENDBRANCH  13  15
ENDBRANCH   8  11
ENDBRANCH   2   5
BRANCH   1  17
ATOM     17  C   LIG    1       -5.388   2.346   1.526  0.00  0.00    +0.050 C 
BRANCH  17  18
ATOM     18  C   LIG    1       -4.877   2.374   0.084  0.00  0.00    +0.340 C 
BRANCH  18  29
ATOM     19  C   LIG    1       -3.078   4.804   0.135  0.00  0.00    +0.060 C 
ATOM     20  C   LIG    1       -2.627   3.547   0.114  0.00  0.00    +0.130 C 
ATOM     21  C   LIG    1       -1.212   3.129   0.103  0.00  0.00    -0.050 A 
ATOM     22  C   LIG    1       -0.004   3.816   0.109  0.00  0.00    +0.040 A 
ATOM     23  C   LIG    1        1.185   3.112   0.094  0.00  0.00    +0.050 A 
ATOM     24  C   LIG    1        1.181   1.727   0.073  0.00  0.00    +0.020 A 
ATOM     25  C   LIG    1       -0.009   1.028   0.068  0.00  0.00    +0.100 A 
ATOM     26  C   LIG    1       -1.217   1.720   0.077  0.00  0.00    -0.160 A 
ATOM     27  C   LIG    1       -2.627   1.300   0.070  0.00  0.00    +0.560 C 
ATOM     28  O   LIG    1       -3.021   0.149   0.053  0.00  0.00    -0.500 OA
ATOM     29  N   LIG    1       -3.412   2.393   0.085  0.00  0.00    -0.560 N 
ENDBRANCH  18  29
ENDBRANCH  17  18
ENDBRANCH   1  17
TORSDOF 6
