REMARK  Name = ZINCnE000001DFA2.0
REMARK                            x       y       z     vdW  Elec       q    Type
REMARK                         _______ _______ _______ _____ _____    ______ ____
ROOT
ATOM      1  C   LIG    1       -3.305  -5.085  -6.362  0.00  0.00    +0.540 C 
ATOM      2  N   LIG    1       -4.522  -5.664  -6.361  0.00  0.00    -0.550 N 
ATOM      3  C   LIG    1       -5.484  -5.378  -5.288  0.00  0.00    +0.280 C 
ATOM      4  C   LIG    1       -6.107  -6.709  -4.849  0.00  0.00    +0.020 C 
ATOM      5  C   LIG    1       -6.880  -7.305  -6.025  0.00  0.00    +0.080 C 
ATOM      6  C   LIG    1       -6.014  -7.353  -7.256  0.00  0.00    -0.120 A 
ATOM      7  C   LIG    1       -6.352  -8.221  -8.280  0.00  0.00    +0.020 A 
ATOM      8  C   LIG    1       -5.579  -8.286  -9.423  0.00  0.00    -0.020 A 
ATOM      9  C   LIG    1       -4.460  -7.483  -9.552  0.00  0.00    +0.020 A 
ATOM     10  C   LIG    1       -4.115  -6.615  -8.534  0.00  0.00    +0.020 A 
ATOM     11  C   LIG    1       -4.893  -6.545  -7.386  0.00  0.00    +0.160 A 
ATOM     12  O   LIG    1       -2.543  -5.277  -7.286  0.00  0.00    -0.500 OA
ENDROOT
BRANCH   1  13
ATOM     13  C   LIG    1       -2.890  -4.200  -5.215  0.00  0.00    +0.100 C 
BRANCH  13  14
ATOM     14  S   LIG    1       -1.162  -3.696  -5.435  0.00  0.00    +0.030 S 
BRANCH  14  19
ATOM     15  N   LIG    1        0.635  -0.367  -1.263  0.00  0.00    -0.630 NA
ATOM     16  C   LIG    1        0.009  -1.143  -2.114  0.00  0.00    +0.340 A 
ATOM     17  N   LIG    1       -1.280  -1.587  -2.047  0.00  0.00    -0.510 NA
ATOM     18  N   LIG    1       -1.700  -2.395  -3.079  0.00  0.00    -0.250 NA
ATOM     19  C   LIG    1       -0.862  -2.685  -4.023  0.00  0.00    -0.080 A 
ATOM     20  S   LIG    1        0.649  -1.856  -3.607  0.00  0.00    -0.100 S 
BRANCH  15  22
ATOM     21  C   LIG    1       -0.083   1.661  -0.099  0.00  0.00    +0.000 C 
ATOM     22  C   LIG    1       -0.062   0.131  -0.075  0.00  0.00    +0.150 C 
ATOM     23  C   LIG    1        0.665  -0.349   1.183  0.00  0.00    +0.000 C 
ENDBRANCH  15  22
ENDBRANCH  14  19
ENDBRANCH  13  14
ENDBRANCH   1  13
TORSDOF 4
