REMARK  Name = ZINCqH0000000kzg.0
REMARK                            x       y       z     vdW  Elec       q    Type
REMARK                         _______ _______ _______ _____ _____    ______ ____
ROOT
ATOM      1  C   LIG    1        2.413  -0.255   0.078  0.00  0.00    +0.530 C 
ATOM      2  N   LIG    1        2.393   1.090  -0.015  0.00  0.00    -0.660 N 
ATOM      3  H   LIG    1        3.224   1.582  -0.102  0.00  0.00    +0.410 HD
ATOM      4  O   LIG    1        1.372  -0.877   0.085  0.00  0.00    -0.460 OA
ENDROOT
BRANCH   2   5
ATOM      5  C   LIG    1        1.176   1.774   0.011  0.00  0.00    +0.150 A 
ATOM      6  C   LIG    1        0.076   1.212   0.621  0.00  0.00    +0.020 A 
ATOM      7  C   LIG    1       -1.143   1.883   0.648  0.00  0.00    +0.040 A 
ATOM      8  C   LIG    1       -1.280   3.114   0.085  0.00  0.00    +0.010 A 
ATOM      9  C   LIG    1       -0.183   3.723  -0.548  0.00  0.00    -0.030 A 
ATOM     10  C   LIG    1       -0.296   4.990  -1.144  0.00  0.00    +0.030 A 
ATOM     11  C   LIG    1        0.787   5.550  -1.748  0.00  0.00    +0.020 A 
ATOM     12  C   LIG    1        2.011   4.885  -1.786  0.00  0.00    +0.020 A 
ATOM     13  C   LIG    1        2.157   3.656  -1.218  0.00  0.00    +0.010 A 
ATOM     14  C   LIG    1        1.062   3.047  -0.587  0.00  0.00    -0.060 A 
ENDBRANCH   2   5
BRANCH   1  15
ATOM     15  C   LIG    1        3.728  -0.984   0.175  0.00  0.00    +0.130 C 
BRANCH  15  16
ATOM     16  C   LIG    1        3.474  -2.467   0.269  0.00  0.00    +0.430 C 
ATOM     17  O   LIG    1        2.493  -2.949  -0.259  0.00  0.00    -0.410 OA
BRANCH  16  22
ATOM     18  N   LIG    1        4.271  -4.659   1.143  0.00  0.00    -0.400 N 
ATOM     19  C   LIG    1        5.326  -5.088   1.865  0.00  0.00    +0.210 A 
ATOM     20  C   LIG    1        6.112  -4.027   2.175  0.00  0.00    -0.060 A 
ATOM     21  C   LIG    1        5.531  -2.886   1.620  0.00  0.00    +0.040 A 
ATOM     22  C   LIG    1        4.378  -3.295   0.972  0.00  0.00    -0.100 A 
BRANCH  18  23
ATOM     23  C   LIG    1        3.192  -5.503   0.624  0.00  0.00    +0.340 C 
BRANCH  23  25
ATOM     24  C   LIG    1        3.527  -7.166  -1.132  0.00  0.00    +0.050 C 
ATOM     25  C   LIG    1        3.504  -5.900  -0.796  0.00  0.00    -0.060 C 
ENDBRANCH  23  25
ENDBRANCH  18  23
ENDBRANCH  16  22
ENDBRANCH  15  16
BRANCH  15  26
ATOM     26  C   LIG    1        4.536  -0.700  -1.022  0.00  0.00    +0.200 C 
ATOM     27  N   LIG    1        5.160  -0.480  -1.946  0.00  0.00    -0.370 NA
ENDBRANCH  15  26
ENDBRANCH   1  15
TORSDOF 7
