REMARK  Name = ZINCrD00000hQ4WD.0
REMARK                            x       y       z     vdW  Elec       q    Type
REMARK                         _______ _______ _______ _____ _____    ______ ____
ROOT
ATOM      1  N   LIG    1       -0.081   8.523   2.937  0.00  0.00    -0.640 N 
ATOM      2  H   LIG    1       -0.550   7.848   2.421  0.00  0.00    +0.410 HD
ATOM      3  C   LIG    1        0.056   8.377   4.270  0.00  0.00    +0.720 C 
ATOM      4  N   LIG    1       -0.457   7.293   4.886  0.00  0.00    -0.680 N 
ATOM      5  H   LIG    1       -0.983   6.653   4.382  0.00  0.00    +0.410 HD
ATOM      6  O   LIG    1        0.644   9.222   4.917  0.00  0.00    -0.550 OA
ENDROOT
BRANCH   1   9
ATOM      7  C   LIG    1        1.499  11.588   1.961  0.00  0.00    +0.110 A 
ATOM      8  C   LIG    1        1.151  10.697   2.918  0.00  0.00    -0.090 A 
ATOM      9  C   LIG    1        0.453   9.649   2.297  0.00  0.00    +0.320 A 
ATOM     10  N   LIG    1        0.388   9.909   1.012  0.00  0.00    -0.320 NA
ATOM     11  N   LIG    1        1.036  11.128   0.780  0.00  0.00    -0.460 N 
ATOM     12  H   LIG    1        1.137  11.565  -0.081  0.00  0.00    +0.440 HD
BRANCH   7  14
ATOM     13  C   LIG    1        1.748  13.938   1.211  0.00  0.00    +0.030 C 
ATOM     14  C   LIG    1        2.262  12.869   2.178  0.00  0.00    +0.070 C 
ATOM     15  C   LIG    1        3.751  12.625   1.923  0.00  0.00    +0.030 C 
ENDBRANCH   7  14
ENDBRANCH   1   9
BRANCH   4  16
ATOM     16  C   LIG    1       -0.232   7.093   6.253  0.00  0.00    +0.160 A 
ATOM     17  C   LIG    1       -0.076   5.806   6.750  0.00  0.00    -0.010 A 
ATOM     18  C   LIG    1        0.153   5.611   8.098  0.00  0.00    +0.050 A 
ATOM     19  C   LIG    1        0.215   6.696   8.954  0.00  0.00    -0.100 A 
ATOM     20  C   LIG    1        0.054   7.978   8.462  0.00  0.00    +0.030 A 
ATOM     21  C   LIG    1       -0.169   8.180   7.114  0.00  0.00    +0.020 A 
BRANCH  19  22
ATOM     22  C   LIG    1        0.459   6.480  10.425  0.00  0.00    +0.210 C 
BRANCH  22  23
ATOM     23  C   LIG    1       -0.861   6.316  11.135  0.00  0.00    +0.200 A 
ATOM     24  N   LIG    1       -1.495   5.194  11.340  0.00  0.00    -0.280 NA
ATOM     25  N   LIG    1       -2.588   5.425  11.976  0.00  0.00    -0.280 NA
ATOM     26  C   LIG    1       -2.699   6.706  12.207  0.00  0.00    +0.150 A 
ATOM     27  C   LIG    1       -3.600   7.740  12.848  0.00  0.00    +0.160 C 
ATOM     28  C   LIG    1       -2.691   8.983  13.013  0.00  0.00    +0.070 C 
ATOM     29  C   LIG    1       -1.646   8.758  11.899  0.00  0.00    +0.300 C 
ATOM     30  N   LIG    1       -1.607   7.306  11.684  0.00  0.00    -0.490 N 
ENDBRANCH  22  23
ENDBRANCH  19  22
ENDBRANCH   4  16
TORSDOF 5
