REMARK  Name = ZINCqH0000001K4p.0
REMARK                            x       y       z     vdW  Elec       q    Type
REMARK                         _______ _______ _______ _____ _____    ______ ____
ROOT
ATOM      1  C   LIG    1        3.257  -3.452  -0.045  0.00  0.00    +0.110 A 
ATOM      2  N   LIG    1        3.005  -2.178  -0.037  0.00  0.00    -0.420 NA
ATOM      3  C   LIG    1        1.723  -1.843  -0.024  0.00  0.00    +0.130 A 
ATOM      4  C   LIG    1        0.858  -2.881  -0.015  0.00  0.00    -0.040 A 
ATOM      5  S   LIG    1        1.740  -4.346  -0.036  0.00  0.00    +0.210 S 
ENDROOT
BRANCH   1   9
ATOM      6  C   LIG    1        7.133  -5.190  -0.092  0.00  0.00    -0.050 A 
ATOM      7  C   LIG    1        6.013  -6.003  -0.085  0.00  0.00    +0.010 A 
ATOM      8  C   LIG    1        4.752  -5.445  -0.070  0.00  0.00    +0.040 A 
ATOM      9  C   LIG    1        4.606  -4.057  -0.061  0.00  0.00    -0.040 A 
ATOM     10  C   LIG    1        5.739  -3.243  -0.074  0.00  0.00    +0.080 A 
ATOM     11  C   LIG    1        6.995  -3.814  -0.084  0.00  0.00    +0.010 A 
BRANCH   6  13
ATOM     12  C   LIG    1        9.255  -5.351  -1.364  0.00  0.00    +0.030 C 
ATOM     13  C   LIG    1        8.508  -5.807  -0.110  0.00  0.00    +0.020 C 
ATOM     14  C   LIG    1        9.281  -5.364   1.134  0.00  0.00    +0.030 C 
ENDBRANCH   6  13
ENDBRANCH   1   9
BRANCH   3  15
ATOM     15  C   LIG    1        1.272  -0.439  -0.012  0.00  0.00    +0.250 A 
ATOM     16  N   LIG    1        2.041   0.638  -0.014  0.00  0.00    -0.430 NA
ATOM     17  C   LIG    1        1.197   1.681  -0.000  0.00  0.00    +0.180 A 
ATOM     18  N   LIG    1       -0.014   1.209   0.009  0.00  0.00    -0.370 NA
ATOM     19  O   LIG    1        0.002  -0.004   0.002  0.00  0.00    +0.090 OA
BRANCH  17  20
ATOM     20  C   LIG    1        1.584   3.138   0.004  0.00  0.00    +0.310 C 
BRANCH  20  21
ATOM     21  C   LIG    1        1.727   3.615   1.426  0.00  0.00    +0.270 A 
ATOM     22  N   LIG    1        2.823   3.588   2.139  0.00  0.00    -0.520 NA
ATOM     23  C   LIG    1        2.587   4.088   3.351  0.00  0.00    +0.420 A 
ATOM     24  N   LIG    1        1.331   4.443   3.426  0.00  0.00    -0.310 NA
ATOM     25  N   LIG    1        0.751   4.150   2.181  0.00  0.00    -0.370 N 
ATOM     26  C   LIG    1       -0.640   4.378   1.785  0.00  0.00    +0.360 C 
ENDBRANCH  20  21
ENDBRANCH  17  20
ENDBRANCH   3  15
TORSDOF 5
