REMARK  Name = ZINC650000003Wll.0
REMARK                            x       y       z     vdW  Elec       q    Type
REMARK                         _______ _______ _______ _____ _____    ______ ____
ROOT
ATOM      1  C   LIG    1       -0.033   1.727   0.015  0.00  0.00    +0.570 C 
ATOM      2  S   LIG    1        0.055   0.017  -0.002  0.00  0.00    -0.650 S 
ENDROOT
BRANCH   1   4
ATOM      3  C   LIG    1       -2.460   1.548   0.130  0.00  0.00    +0.340 C 
ATOM      4  N   LIG    1       -1.233   2.340   0.022  0.00  0.00    -0.580 N 
ATOM      5  C   LIG    1       -1.310   3.800  -0.079  0.00  0.00    +0.300 C 
ENDBRANCH   1   4
BRANCH   1   6
ATOM      6  N   LIG    1        1.099   2.460   0.018  0.00  0.00    -0.810 N 
ATOM      7  H   LIG    1        1.050   3.426  -0.045  0.00  0.00    +0.390 HD
ATOM      8  H   LIG    1        1.961   2.020   0.082  0.00  0.00    +0.430 HD
ENDBRANCH   1   6
TORSDOF 2
