REMARK  Name = ZINCvU00000009Sg.0
REMARK                            x       y       z     vdW  Elec       q    Type
REMARK                         _______ _______ _______ _____ _____    ______ ____
ROOT
ATOM      1  C   LIG    1       -1.325   7.803   0.146  0.00  0.00    +0.060 A 
ATOM      2  C   LIG    1       -0.166   8.562   0.138  0.00  0.00    +0.130 A 
ATOM      3  C   LIG    1       -0.241   9.940   0.231  0.00  0.00    -0.230 A 
ATOM      4  C   LIG    1       -1.469  10.564   0.340  0.00  0.00    +0.110 A 
ATOM      5  C   LIG    1       -2.631   9.814   0.354  0.00  0.00    -0.050 A 
ATOM      6  C   LIG    1       -2.566   8.432   0.257  0.00  0.00    +0.230 A 
ENDROOT
BRANCH   1   8
ATOM      7  C   LIG    1       -0.226   5.745   0.618  0.00  0.00    +0.560 C 
ATOM      8  N   LIG    1       -1.252   6.408   0.048  0.00  0.00    -0.660 N 
ATOM      9  H   LIG    1       -1.940   5.918  -0.430  0.00  0.00    +0.410 HD
ATOM     10  O   LIG    1        0.678   6.363   1.146  0.00  0.00    -0.510 OA
BRANCH   7  14
ATOM     11  C   LIG    1       -0.151   1.499   0.568  0.00  0.00    -0.060 A 
ATOM     12  C   LIG    1       -1.203   2.176  -0.023  0.00  0.00    +0.030 A 
ATOM     13  C   LIG    1       -1.236   3.555  -0.005  0.00  0.00    +0.050 A 
ATOM     14  C   LIG    1       -0.200   4.267   0.601  0.00  0.00    -0.130 A 
ATOM     15  C   LIG    1        0.861   3.578   1.190  0.00  0.00    +0.100 A 
ATOM     16  C   LIG    1        0.880   2.199   1.170  0.00  0.00    +0.030 A 
BRANCH  11  17
ATOM     17  C   LIG    1       -0.124  -0.008   0.550  0.00  0.00    -0.280 C 
BRANCH  17  19
ATOM     18  C   LIG    1       -0.809  -2.438   1.801  0.00  0.00    -0.270 C 
ATOM     19  S   LIG    1       -0.959  -0.645   2.029  0.00  0.00    +2.420 S 
ATOM     20  O   LIG    1       -2.334  -0.293   1.959  0.00  0.00    -0.930 OA
ATOM     21  O   LIG    1       -0.204  -0.270   3.173  0.00  0.00    -0.930 OA
ENDBRANCH  17  19
ENDBRANCH  11  17
ENDBRANCH   7  14
ENDBRANCH   1   8
BRANCH   3  22
ATOM     22  C   LIG    1        1.021  10.764   0.216  0.00  0.00    +0.510 C 
ATOM     23  F   LIG    1        1.708  10.545  -0.983  0.00  0.00    -0.180 F 
ATOM     24  F   LIG    1        1.833  10.392   1.293  0.00  0.00    -0.180 F 
ATOM     25  F   LIG    1        0.695  12.120   0.326  0.00  0.00    -0.180 F 
ENDBRANCH   3  22
BRANCH   6  26
ATOM     26  N   LIG    1       -3.740   7.672   0.271  0.00  0.00    -0.740 N 
ATOM     27  H   LIG    1       -3.692   6.705   0.204  0.00  0.00    +0.400 HD
BRANCH  26  28
ATOM     28  C   LIG    1       -5.041   8.335   0.388  0.00  0.00    +0.230 C 
ATOM     29  C   LIG    1       -5.357   8.581   1.865  0.00  0.00    +0.000 C 
ATOM     30  C   LIG    1       -6.716   9.274   1.987  0.00  0.00    +0.010 C 
ATOM     31  C   LIG    1       -7.799   8.383   1.375  0.00  0.00    +0.010 C 
ATOM     32  C   LIG    1       -7.483   8.137  -0.101  0.00  0.00    +0.020 C 
ATOM     33  C   LIG    1       -6.124   7.444  -0.224  0.00  0.00    +0.010 C 
ENDBRANCH  26  28
ENDBRANCH   6  26
TORSDOF 7
