REMARK  Name = ZINCpe00000VVGhW.0
REMARK                            x       y       z     vdW  Elec       q    Type
REMARK                         _______ _______ _______ _____ _____    ______ ____
ROOT
ATOM      1  N   LIG    1        4.167   2.991   0.425  0.00  0.00    -0.530 NA
ATOM      2  C   LIG    1        3.267   2.681   1.544  0.00  0.00    +0.180 C 
ATOM      3  C   LIG    1        4.033   2.814   2.863  0.00  0.00    +0.200 C 
ATOM      4  N   LIG    1        4.566   4.179   2.981  0.00  0.00    -0.520 NA
ATOM      5  C   LIG    1        5.466   4.489   1.862  0.00  0.00    +0.200 C 
ATOM      6  C   LIG    1        4.700   4.356   0.543  0.00  0.00    +0.200 C 
ENDROOT
BRANCH   1   7
ATOM      7  C   LIG    1        3.489   2.801  -0.864  0.00  0.00    +0.270 C 
ATOM      8  C   LIG    1        4.481   3.040  -2.003  0.00  0.00    +0.080 C 
BRANCH   7  13
ATOM      9  C   LIG    1        0.587  -1.208  -1.629  0.00  0.00    +0.210 C 
ATOM     10  C   LIG    1        1.741  -0.309  -1.267  0.00  0.00    +0.170 A 
ATOM     11  N   LIG    1        2.895  -0.688  -0.803  0.00  0.00    -0.390 NA
ATOM     12  O   LIG    1        3.607   0.275  -0.614  0.00  0.00    +0.090 OA
ATOM     13  C   LIG    1        2.957   1.393  -0.949  0.00  0.00    +0.190 A 
ATOM     14  N   LIG    1        1.768   1.032  -1.367  0.00  0.00    -0.480 NA
ENDBRANCH   7  13
ENDBRANCH   1   7
BRANCH   4  15
ATOM     15  C   LIG    1        5.244   4.369   4.270  0.00  0.00    +0.140 C 
ATOM     16  C   LIG    1        4.307   3.956   5.406  0.00  0.00    +0.080 C 
BRANCH  15  17
ATOM     17  C   LIG    1        5.619   5.820   4.431  0.00  0.00    +0.510 C 
ATOM     18  N   LIG    1        6.673   6.162   5.198  0.00  0.00    -0.640 N 
ATOM     19  H   LIG    1        7.191   5.475   5.646  0.00  0.00    +0.420 HD
ATOM     20  O   LIG    1        4.972   6.679   3.871  0.00  0.00    -0.440 OA
BRANCH  18  21
ATOM     21  C   LIG    1        7.019   7.500   5.346  0.00  0.00    +0.540 A 
ATOM     22  N   LIG    1        6.305   8.425   4.723  0.00  0.00    -0.500 NA
ATOM     23  C   LIG    1        6.604   9.707   4.847  0.00  0.00    +0.350 A 
ATOM     24  C   LIG    1        7.685  10.077   5.632  0.00  0.00    -0.110 A 
ATOM     25  C   LIG    1        8.414   9.082   6.266  0.00  0.00    +0.350 A 
ATOM     26  N   LIG    1        8.057   7.819   6.103  0.00  0.00    -0.550 NA
ENDBRANCH  18  21
ENDBRANCH  15  17
ENDBRANCH   4  15
TORSDOF 5
