REMARK  Name = ZINCvU000000087f.0
REMARK                            x       y       z     vdW  Elec       q    Type
REMARK                         _______ _______ _______ _____ _____    ______ ____
ROOT
ATOM      1  C   LIG    1        0.016   1.266  -0.202  0.00  0.00    +0.090 A 
ATOM      2  C   LIG    1        1.186   1.996  -0.271  0.00  0.00    +0.000 A 
ATOM      3  C   LIG    1        2.406   1.387   0.050  0.00  0.00    -0.100 A 
ATOM      4  C   LIG    1        2.431   0.042   0.438  0.00  0.00    +0.100 A 
ATOM      5  C   LIG    1        1.258  -0.678   0.503  0.00  0.00    -0.040 A 
ATOM      6  C   LIG    1        0.050  -0.073   0.186  0.00  0.00    +0.130 A 
ENDROOT
BRANCH   3   7
ATOM      7  C   LIG    1        3.654   2.156  -0.021  0.00  0.00    +0.230 C 
ATOM      8  C   LIG    1        4.775   1.586  -0.531  0.00  0.00    -0.240 C 
ATOM      9  S   LIG    1        6.422   2.247  -0.541  0.00  0.00    +0.010 S 
ATOM     10  C   LIG    1        7.134   0.854  -1.372  0.00  0.00    +0.390 C 
ATOM     11  N   LIG    1        6.115  -0.027  -1.607  0.00  0.00    -0.640 N 
ATOM     12  H   LIG    1        6.283  -0.868  -2.061  0.00  0.00    +0.430 HD
ATOM     13  N   LIG    1        8.397   0.699  -1.703  0.00  0.00    -0.470 NA
ATOM     14  C   LIG    1        4.896   0.289  -1.204  0.00  0.00    +0.560 C 
ATOM     15  O   LIG    1        3.941  -0.445  -1.379  0.00  0.00    -0.470 OA
BRANCH  13  16
ATOM     16  C   LIG    1        9.308   1.673  -1.399  0.00  0.00    +0.100 A 
ATOM     17  C   LIG    1        9.008   3.015  -1.643  0.00  0.00    -0.020 A 
ATOM     18  C   LIG    1        9.930   3.993  -1.330  0.00  0.00    +0.040 A 
ATOM     19  C   LIG    1       11.153   3.646  -0.785  0.00  0.00    +0.010 A 
ATOM     20  C   LIG    1       11.459   2.318  -0.545  0.00  0.00    -0.070 A 
ATOM     21  C   LIG    1       12.794   1.950   0.049  0.00  0.00    +0.090 C 
ATOM     22  C   LIG    1       10.546   1.330  -0.849  0.00  0.00    +0.030 A 
ENDBRANCH  13  16
ENDBRANCH   3   7
BRANCH   1  24
ATOM     23  C   LIG    1       -1.131   3.227  -0.907  0.00  0.00    +0.230 C 
ATOM     24  O   LIG    1       -1.170   1.853  -0.518  0.00  0.00    -0.300 OA
ENDBRANCH   1  24
BRANCH   6  25
ATOM     25  O   LIG    1       -1.104  -0.788   0.252  0.00  0.00    -0.290 OA
BRANCH  25  26
ATOM     26  C   LIG    1       -0.998  -2.155   0.657  0.00  0.00    +0.240 C 
BRANCH  26  27
ATOM     27  C   LIG    1       -2.368  -2.782   0.672  0.00  0.00    -0.100 A 
ATOM     28  C   LIG    1       -3.131  -2.747   1.824  0.00  0.00    +0.030 A 
ATOM     29  C   LIG    1       -4.389  -3.318   1.837  0.00  0.00    +0.010 A 
ATOM     30  C   LIG    1       -4.881  -3.933   0.701  0.00  0.00    +0.010 A 
ATOM     31  C   LIG    1       -4.116  -3.973  -0.449  0.00  0.00    +0.010 A 
ATOM     32  C   LIG    1       -2.859  -3.397  -0.464  0.00  0.00    +0.030 A 
ENDBRANCH  26  27
ENDBRANCH  25  26
ENDBRANCH   6  25
TORSDOF 6
