REMARK  Name = ZINCpk00000y6tUU.0
REMARK                            x       y       z     vdW  Elec       q    Type
REMARK                         _______ _______ _______ _____ _____    ______ ____
ROOT
ATOM      1  C   LIG    1       -4.958   3.905   0.067  0.00  0.00    +0.400 C 
ENDROOT
BRANCH   1   4
ATOM      2  O   LIG    1       -2.534   5.085   0.051  0.00  0.00    -0.530 OA
ATOM      3  C   LIG    1       -2.522   3.870   0.044  0.00  0.00    +0.570 C 
ATOM      4  N   LIG    1       -3.683   3.185   0.051  0.00  0.00    -0.730 N 
ATOM      5  H   LIG    1       -3.673   2.215   0.046  0.00  0.00    +0.410 HD
BRANCH   3   6
ATOM      6  C   LIG    1       -1.234   3.143   0.029  0.00  0.00    -0.140 A 
ATOM      7  C   LIG    1       -1.217   1.748   0.017  0.00  0.00    +0.050 A 
ATOM      8  C   LIG    1       -0.013   1.076   0.008  0.00  0.00    +0.000 A 
ATOM      9  C   LIG    1        1.177   1.782   0.000  0.00  0.00    +0.040 A 
ATOM     10  C   LIG    1        1.167   3.166   0.008  0.00  0.00    +0.000 A 
ATOM     11  C   LIG    1       -0.031   3.850   0.022  0.00  0.00    +0.080 A 
ENDBRANCH   3   6
ENDBRANCH   1   4
BRANCH   1  12
ATOM     12  C   LIG    1       -5.880   3.272   1.076  0.00  0.00    +0.430 C 
ATOM     13  O   LIG    1       -5.422   2.728   2.061  0.00  0.00    -0.440 OA
BRANCH  12  14
ATOM     14  C   LIG    1       -7.278   3.310   0.878  0.00  0.00    -0.320 A 
ATOM     15  C   LIG    1       -8.217   2.768   1.718  0.00  0.00    +0.110 A 
ATOM     16  C   LIG    1       -9.505   2.954   1.283  0.00  0.00    -0.020 A 
ATOM     17  C   LIG    1       -9.625   3.616   0.124  0.00  0.00    -0.100 A 
ATOM     18  S   LIG    1       -8.095   4.054  -0.490  0.00  0.00    +0.320 S 
ENDBRANCH  12  14
ENDBRANCH   1  12
BRANCH   1  19
ATOM     19  N   LIG    1       -5.573   3.840  -1.266  0.00  0.00    -0.670 NA
ATOM     20  H   LIG    1       -5.178   3.088  -1.810  0.00  0.00    +0.370 HD
BRANCH  19  21
ATOM     21  C   LIG    1       -5.442   5.123  -1.969  0.00  0.00    +0.200 C 
ATOM     22  C   LIG    1       -6.564   5.257  -3.014  0.00  0.00    +0.100 C 
ATOM     23  C   LIG    1       -6.179   6.449  -3.928  0.00  0.00    -0.310 C 
ATOM     24  S   LIG    1       -4.384   6.186  -4.192  0.00  0.00    +2.390 S 
ATOM     25  O   LIG    1       -3.703   7.427  -4.073  0.00  0.00    -0.930 OA
ATOM     26  O   LIG    1       -4.191   5.378  -5.345  0.00  0.00    -0.930 OA
ATOM     27  C   LIG    1       -4.082   5.183  -2.692  0.00  0.00    -0.350 C 
ENDBRANCH  19  21
ENDBRANCH   1  19
TORSDOF 6
