REMARK  Name = ZINCpe00000ca0bA.0
REMARK                            x       y       z     vdW  Elec       q    Type
REMARK                         _______ _______ _______ _____ _____    ______ ____
ROOT
ATOM      1  O   LIG    1        1.198   0.749   2.353  0.00  0.00    -0.530 OA
ATOM      2  C   LIG    1        0.123   1.294   2.483  0.00  0.00    +0.530 C 
ATOM      3  N   LIG    1       -0.311   1.644   3.710  0.00  0.00    -0.710 N 
ATOM      4  H   LIG    1       -1.171   2.080   3.814  0.00  0.00    +0.410 HD
ENDROOT
BRANCH   2   5
ATOM      5  C   LIG    1       -0.728   1.579   1.273  0.00  0.00    +0.110 C 
ATOM      6  C   LIG    1       -0.013   1.086   0.008  0.00  0.00    +0.070 C 
ATOM      7  C   LIG    1       -0.750   1.591  -1.234  0.00  0.00    +0.040 C 
ATOM      8  C   LIG    1       -0.533   3.103  -1.388  0.00  0.00    +0.140 C 
ATOM      9  C   LIG    1       -0.850   3.758  -0.070  0.00  0.00    +0.020 A 
ATOM     10  N   LIG    1       -1.088   5.008   0.209  0.00  0.00    -0.270 NA
ATOM     11  N   LIG    1       -1.314   5.106   1.476  0.00  0.00    -0.260 N 
ATOM     12  H   LIG    1       -1.519   5.936   1.936  0.00  0.00    +0.470 HD
ATOM     13  N   LIG    1       -1.230   3.953   2.049  0.00  0.00    -0.270 NA
ATOM     14  C   LIG    1       -0.942   3.063   1.142  0.00  0.00    +0.010 A 
ENDBRANCH   2   5
BRANCH   3  15
ATOM     15  C   LIG    1        0.517   1.367   4.887  0.00  0.00    +0.240 C 
ATOM     16  C   LIG    1       -0.032   0.237   5.777  0.00  0.00    +0.270 C 
ATOM     17  N   LIG    1        0.333   1.097   6.920  0.00  0.00    -0.640 N 
ATOM     18  C   LIG    1        0.633   0.871   8.214  0.00  0.00    +0.550 C 
ATOM     19  O   LIG    1        0.902   1.800   8.945  0.00  0.00    -0.520 OA
ATOM     20  C   LIG    1        0.237   2.304   6.076  0.00  0.00    +0.280 C 
BRANCH  18  21
ATOM     21  C   LIG    1        0.634  -0.536   8.753  0.00  0.00    +0.070 C 
ATOM     22  C   LIG    1       -0.733  -1.137   8.587  0.00  0.00    -0.030 C 
ATOM     23  C   LIG    1       -1.810  -0.564   9.100  0.00  0.00    +0.010 C 
ATOM     24  C   LIG    1       -1.765   0.686   9.837  0.00  0.00    -0.040 C 
ATOM     25  C   LIG    1       -0.827   1.024  10.717  0.00  0.00    +0.040 C 
ATOM     26  C   LIG    1        0.309   0.199  11.087  0.00  0.00    +0.020 C 
ATOM     27  C   LIG    1        0.998  -0.514  10.211  0.00  0.00    -0.010 C 
ENDBRANCH  18  21
ENDBRANCH   3  15
TORSDOF 3
