REMARK  Name = ZINCpe00000ca0bA.1
REMARK                            x       y       z     vdW  Elec       q    Type
REMARK                         _______ _______ _______ _____ _____    ______ ____
ROOT
ATOM      1  O   LIG    1        2.755  -5.968   0.107  0.00  0.00    -0.510 OA
ATOM      2  C   LIG    1        2.067  -6.160   1.088  0.00  0.00    +0.520 C 
ATOM      3  N   LIG    1        1.524  -5.116   1.745  0.00  0.00    -0.730 N 
ATOM      4  H   LIG    1        0.974  -5.270   2.529  0.00  0.00    +0.390 HD
ENDROOT
BRANCH   2   5
ATOM      5  C   LIG    1        1.821  -7.566   1.572  0.00  0.00    +0.090 C 
ATOM      6  C   LIG    1        2.546  -8.562   0.657  0.00  0.00    +0.070 C 
ATOM      7  C   LIG    1        2.088  -9.986   0.985  0.00  0.00    +0.040 C 
ATOM      8  C   LIG    1        0.634 -10.175   0.531  0.00  0.00    +0.140 C 
ATOM      9  C   LIG    1       -0.182  -9.026   1.062  0.00  0.00    +0.010 A 
ATOM     10  N   LIG    1       -1.501  -8.917   1.179  0.00  0.00    -0.250 NA
ATOM     11  N   LIG    1       -1.776  -7.764   1.687  0.00  0.00    -0.070 NA
ATOM     12  N   LIG    1       -0.689  -7.103   1.911  0.00  0.00    -0.380 N 
ATOM     13  H   LIG    1       -0.631  -6.212   2.289  0.00  0.00    +0.440 HD
ATOM     14  C   LIG    1        0.347  -7.867   1.526  0.00  0.00    -0.020 A 
ENDBRANCH   2   5
BRANCH   3  15
ATOM     15  C   LIG    1        1.763  -3.750   1.274  0.00  0.00    +0.250 C 
ATOM     16  C   LIG    1        1.636  -2.677   2.365  0.00  0.00    +0.280 C 
ATOM     17  N   LIG    1        0.957  -1.826   1.376  0.00  0.00    -0.640 N 
ATOM     18  C   LIG    1        0.801  -0.502   1.179  0.00  0.00    +0.560 C 
ATOM     19  O   LIG    1        1.304   0.289   1.948  0.00  0.00    -0.520 OA
ATOM     20  C   LIG    1        0.516  -3.056   0.701  0.00  0.00    +0.260 C 
BRANCH  18  21
ATOM     21  C   LIG    1        0.002  -0.004   0.002  0.00  0.00    +0.070 C 
ATOM     22  C   LIG    1       -0.018   1.499   0.010  0.00  0.00    -0.010 C 
ATOM     23  C   LIG    1        1.099   2.207   0.003  0.00  0.00    +0.020 C 
ATOM     24  C   LIG    1        2.419   1.603   0.008  0.00  0.00    +0.040 C 
ATOM     25  C   LIG    1        2.771   0.525  -0.687  0.00  0.00    -0.040 C 
ATOM     26  C   LIG    1        1.895  -0.226  -1.567  0.00  0.00    +0.020 C 
ATOM     27  C   LIG    1        0.632  -0.490  -1.273  0.00  0.00    -0.030 C 
ENDBRANCH  18  21
ENDBRANCH   3  15
TORSDOF 3
