REMARK  Name = ZINCrH000004q7uk.0
REMARK                            x       y       z     vdW  Elec       q    Type
REMARK                         _______ _______ _______ _____ _____    ______ ____
ROOT
ATOM      1  C   LIG    1        2.269   1.143   0.486  0.00  0.00    +0.570 C 
ATOM      2  N   LIG    1        2.290  -0.154   0.852  0.00  0.00    -0.600 N 
ATOM      3  C   LIG    1        1.048  -0.935   0.914  0.00  0.00    +0.270 C 
ATOM      4  C   LIG    1        1.219  -2.201   0.069  0.00  0.00    +0.040 C 
ATOM      5  C   LIG    1        2.463  -2.960   0.539  0.00  0.00    +0.040 C 
ATOM      6  C   LIG    1        3.701  -2.080   0.349  0.00  0.00    +0.090 C 
ATOM      7  C   LIG    1        3.558  -0.815   1.192  0.00  0.00    +0.300 C 
ATOM      8  O   LIG    1        3.311   1.753   0.347  0.00  0.00    -0.510 OA
ENDROOT
BRANCH   6   9
ATOM      9  C   LIG    1        4.928  -2.840   0.782  0.00  0.00    +0.290 A 
ATOM     10  N   LIG    1        5.704  -3.518  -0.012  0.00  0.00    -0.480 NA
ATOM     11  C   LIG    1        6.714  -4.076   0.704  0.00  0.00    +0.050 A 
ATOM     12  C   LIG    1        7.803  -4.883   0.366  0.00  0.00    +0.070 A 
ATOM     13  C   LIG    1        8.671  -5.297   1.336  0.00  0.00    +0.000 A 
ATOM     14  C   LIG    1        8.484  -4.923   2.659  0.00  0.00    +0.030 A 
ATOM     15  C   LIG    1        7.416  -4.127   3.016  0.00  0.00    +0.010 A 
ATOM     16  C   LIG    1        6.524  -3.697   2.044  0.00  0.00    +0.050 A 
ATOM     17  N   LIG    1        5.390  -2.911   2.060  0.00  0.00    -0.600 N 
ATOM     18  H   LIG    1        4.993  -2.489   2.839  0.00  0.00    +0.420 HD
ENDBRANCH   6   9
BRANCH   1  21
ATOM     19  C   LIG    1        1.796   2.494  -2.028  0.00  0.00    +0.130 C 
ATOM     20  C   LIG    1        0.738   2.478  -0.956  0.00  0.00    +0.040 A 
ATOM     21  C   LIG    1        0.977   1.824   0.254  0.00  0.00    -0.140 A 
ATOM     22  C   LIG    1       -0.009   1.814   1.242  0.00  0.00    +0.120 A 
ATOM     23  C   LIG    1       -1.214   2.446   1.016  0.00  0.00    +0.030 A 
ATOM     24  C   LIG    1       -1.443   3.098  -0.183  0.00  0.00    +0.130 A 
ATOM     25  C   LIG    1       -0.470   3.111  -1.166  0.00  0.00    -0.050 A 
BRANCH  25  26
ATOM     26  N   LIG    1       -0.726   3.806  -2.448  0.00  0.00    +0.030 N 
ATOM     27  O   LIG    1        0.155   3.883  -3.285  0.00  0.00    -0.150 OA
ATOM     28  O   LIG    1       -1.817   4.301  -2.666  0.00  0.00    -0.160 OA
ENDBRANCH  25  26
ENDBRANCH   1  21
TORSDOF 3
