REMARK  Name = ZINCrD00000F5Lon.0
REMARK                            x       y       z     vdW  Elec       q    Type
REMARK                         _______ _______ _______ _____ _____    ______ ____
ROOT
ATOM      1  N   LIG    1        3.387   0.098  -1.156  0.00  0.00    -0.580 N 
ENDROOT
BRANCH   1   2
ATOM      2  C   LIG    1        3.990  -1.149  -1.178  0.00  0.00    +0.450 A 
ATOM      3  C   LIG    1        3.327  -2.249  -1.732  0.00  0.00    -0.080 A 
ATOM      4  C   LIG    1        3.979  -3.477  -1.733  0.00  0.00    +0.160 A 
ATOM      5  N   LIG    1        5.198  -3.562  -1.200  0.00  0.00    -0.540 NA
ATOM      6  C   LIG    1        5.785  -2.503  -0.684  0.00  0.00    +0.400 A 
ATOM      7  N   LIG    1        5.204  -1.320  -0.668  0.00  0.00    -0.550 NA
BRANCH   4   8
ATOM      8  C   LIG    1        3.326  -4.677  -2.313  0.00  0.00    +0.580 C 
ATOM      9  O   LIG    1        2.215  -4.590  -2.796  0.00  0.00    -0.530 OA
ATOM     10  N   LIG    1        3.965  -5.864  -2.303  0.00  0.00    -0.830 N 
ATOM     11  H   LIG    1        3.538  -6.648  -2.681  0.00  0.00    +0.410 HD
ATOM     12  H   LIG    1        4.852  -5.934  -1.917  0.00  0.00    +0.410 HD
ENDBRANCH   4   8
BRANCH   6  13
ATOM     13  C   LIG    1        7.164  -2.648  -0.092  0.00  0.00    +0.030 C 
ATOM     14  C   LIG    1        7.889  -3.978  -0.309  0.00  0.00    +0.060 C 
ATOM     15  C   LIG    1        7.333  -3.626   1.073  0.00  0.00    +0.050 C 
ENDBRANCH   6  13
ENDBRANCH   1   2
BRANCH   1  16
ATOM     16  C   LIG    1        2.006   0.252  -1.622  0.00  0.00    +0.340 C 
BRANCH  16  17
ATOM     17  C   LIG    1        1.044  -0.011  -0.461  0.00  0.00    -0.150 C 
ATOM     18  C   LIG    1        0.983  -1.435   0.096  0.00  0.00    +0.010 C 
ATOM     19  C   LIG    1        1.656  -0.324   0.906  0.00  0.00    +0.040 C 
BRANCH  17  20
ATOM     20  C   LIG    1       -0.256   0.794  -0.486  0.00  0.00    +0.080 C 
BRANCH  20  21
ATOM     21  C   LIG    1        0.006   2.166  -1.110  0.00  0.00    +0.160 C 
BRANCH  21  23
ATOM     22  C   LIG    1       -1.071   4.235  -1.663  0.00  0.00    +0.200 C 
ATOM     23  O   LIG    1       -1.173   2.968  -1.011  0.00  0.00    -0.390 OA
ENDBRANCH  21  23
ENDBRANCH  20  21
ENDBRANCH  17  20
ENDBRANCH  16  17
ENDBRANCH   1  16
BRANCH   1  24
ATOM     24  C   LIG    1        4.130   1.262  -0.668  0.00  0.00    +0.370 C 
BRANCH  24  25
ATOM     25  C   LIG    1        4.036   1.323   0.835  0.00  0.00    -0.120 A 
ATOM     26  C   LIG    1        3.133   2.074   1.467  0.00  0.00    -0.030 A 
ATOM     27  S   LIG    1        3.325   1.889   3.206  0.00  0.00    +0.090 S 
ATOM     28  C   LIG    1        4.667   0.777   2.969  0.00  0.00    -0.060 A 
ATOM     29  C   LIG    1        4.884   0.610   1.664  0.00  0.00    +0.040 A 
ENDBRANCH  24  25
ENDBRANCH   1  24
TORSDOF 10
