REMARK  Name = ZINCtV000002FLxa.0
REMARK                            x       y       z     vdW  Elec       q    Type
REMARK                         _______ _______ _______ _____ _____    ______ ____
ROOT
ATOM      1  C   LIG    1        3.191   4.505  -1.980  0.00  0.00    +0.130 C 
ATOM      2  C   LIG    1        3.993   3.261  -2.264  0.00  0.00    +0.010 A 
ATOM      3  C   LIG    1        4.617   2.984  -3.421  0.00  0.00    +0.000 A 
ATOM      4  C   LIG    1        5.263   1.677  -3.241  0.00  0.00    -0.270 A 
ATOM      5  C   LIG    1        4.963   1.282  -1.951  0.00  0.00    +0.130 A 
ATOM      6  C   LIG    1        5.409   0.003  -1.292  0.00  0.00    +0.150 C 
ATOM      7  N   LIG    1        4.201   2.236  -1.387  0.00  0.00    -0.430 N 
ENDROOT
BRANCH   4   8
ATOM      8  C   LIG    1        6.066   0.947  -4.224  0.00  0.00    +0.430 C 
ATOM      9  O   LIG    1        6.543  -0.132  -3.936  0.00  0.00    -0.450 OA
BRANCH   8  10
ATOM     10  C   LIG    1        6.301   1.534  -5.592  0.00  0.00    +0.210 C 
BRANCH  10  11
ATOM     11  O   LIG    1        7.107   0.640  -6.362  0.00  0.00    -0.300 OA
BRANCH  11  12
ATOM     12  C   LIG    1        7.413   1.022  -7.629  0.00  0.00    +0.130 A 
ATOM     13  C   LIG    1        8.185   0.210  -8.410  0.00  0.00    -0.010 A 
ATOM     14  C   LIG    1        8.499   0.602  -9.722  0.00  0.00    -0.010 A 
ATOM     15  C   LIG    1        9.287  -0.209 -10.556  0.00  0.00    +0.020 A 
ATOM     16  C   LIG    1        9.576   0.205 -11.820  0.00  0.00    +0.010 A 
ATOM     17  C   LIG    1        9.102   1.423 -12.302  0.00  0.00    -0.010 A 
ATOM     18  C   LIG    1        8.336   2.235 -11.523  0.00  0.00    +0.040 A 
ATOM     19  C   LIG    1        8.016   1.842 -10.212  0.00  0.00    -0.090 A 
ATOM     20  C   LIG    1        7.228   2.655  -9.379  0.00  0.00    +0.070 A 
ATOM     21  C   LIG    1        6.938   2.244  -8.115  0.00  0.00    -0.060 A 
ENDBRANCH  11  12
ENDBRANCH  10  11
ENDBRANCH   8  10
ENDBRANCH   4   8
BRANCH   7  22
ATOM     22  C   LIG    1        3.673   2.185  -0.021  0.00  0.00    +0.350 C 
BRANCH  22  23
ATOM     23  C   LIG    1        2.271   1.632  -0.045  0.00  0.00    -0.110 A 
ATOM     24  C   LIG    1        1.197   2.481  -0.238  0.00  0.00    +0.050 A 
ATOM     25  C   LIG    1       -0.089   1.974  -0.260  0.00  0.00    +0.020 A 
ATOM     26  C   LIG    1       -0.302   0.619  -0.090  0.00  0.00    +0.040 A 
ATOM     27  C   LIG    1        0.771  -0.231   0.102  0.00  0.00    +0.030 A 
ATOM     28  C   LIG    1        2.059   0.276   0.125  0.00  0.00    -0.020 A 
ATOM     29 CL   LIG    1        3.407  -0.791   0.366  0.00  0.00    -0.060 Cl
ENDBRANCH  22  23
ENDBRANCH   7  22
TORSDOF 6
