REMARK  Name = ZINCrH000004sKrl.0
REMARK                            x       y       z     vdW  Elec       q    Type
REMARK                         _______ _______ _______ _____ _____    ______ ____
ROOT
ATOM      1  C   LIG    1        4.846   0.779  -1.232  0.00  0.00    -0.100 A 
ATOM      2  C   LIG    1        4.401  -0.276  -2.009  0.00  0.00    +0.050 A 
ATOM      3  C   LIG    1        4.617  -0.272  -3.372  0.00  0.00    +0.050 A 
ATOM      4  C   LIG    1        5.296   0.794  -3.964  0.00  0.00    -0.120 A 
ATOM      5  C   LIG    1        5.746   1.853  -3.173  0.00  0.00    +0.080 A 
ATOM      6  C   LIG    1        5.519   1.839  -1.813  0.00  0.00    +0.020 A 
ENDROOT
BRANCH   4   7
ATOM      7  C   LIG    1        5.537   0.802  -5.423  0.00  0.00    +0.560 C 
ATOM      8  N   LIG    1        5.723  -0.358  -6.081  0.00  0.00    -0.550 N 
ATOM      9  C   LIG    1        5.556  -1.634  -5.380  0.00  0.00    +0.290 C 
ATOM     10  O   LIG    1        5.566   1.856  -6.028  0.00  0.00    -0.500 OA
BRANCH   8  11
ATOM     11  C   LIG    1        6.075  -0.346  -7.435  0.00  0.00    +0.150 A 
ATOM     12  C   LIG    1        6.387   0.854  -8.061  0.00  0.00    +0.010 A 
ATOM     13  C   LIG    1        6.738   0.862  -9.397  0.00  0.00    +0.030 A 
ATOM     14  C   LIG    1        6.771  -0.321 -10.113  0.00  0.00    -0.020 A 
ATOM     15  C   LIG    1        6.456  -1.516  -9.493  0.00  0.00    +0.030 A 
ATOM     16  C   LIG    1        6.108  -1.532  -8.156  0.00  0.00    -0.030 A 
ENDBRANCH   8  11
ENDBRANCH   4   7
BRANCH   1  17
ATOM     17  C   LIG    1        4.601   0.770   0.255  0.00  0.00    +0.410 C 
BRANCH  17  21
ATOM     18  C   LIG    1       -0.306   1.459   1.057  0.00  0.00    +0.170 C 
ATOM     19  C   LIG    1        1.172   1.702   0.891  0.00  0.00    +0.130 A 
ATOM     20  N   LIG    1        2.073   0.794   0.614  0.00  0.00    -0.260 NA
ATOM     21  N   LIG    1        3.322   1.423   0.544  0.00  0.00    -0.350 N 
ATOM     22  C   LIG    1        3.139   2.738   0.789  0.00  0.00    +0.170 A 
ATOM     23  C   LIG    1        4.213   3.794   0.815  0.00  0.00    +0.160 C 
ATOM     24  C   LIG    1        1.819   2.937   1.007  0.00  0.00    -0.190 A 
BRANCH  24  25
ATOM     25  N   LIG    1        1.172   4.233   1.309  0.00  0.00    +0.050 N 
ATOM     26  O   LIG    1        0.765   4.937   0.402  0.00  0.00    -0.140 OA
ATOM     27  O   LIG    1        1.046   4.597   2.465  0.00  0.00    -0.140 OA
ENDBRANCH  24  25
ENDBRANCH  17  21
ENDBRANCH   1  17
TORSDOF 5
