REMARK  Name = ZINCrH00000No4IM.0
REMARK                            x       y       z     vdW  Elec       q    Type
REMARK                         _______ _______ _______ _____ _____    ______ ____
ROOT
ATOM      1  C   LIG    1       -1.218   2.055   2.026  0.00  0.00    +0.310 C 
ENDROOT
BRANCH   1   2
ATOM      2  N   LIG    1       -1.035   3.476   1.719  0.00  0.00    -0.570 N 
ATOM      3  C   LIG    1       -1.875   4.098   0.885  0.00  0.00    +0.530 C 
ATOM      4  S   LIG    1       -1.335   5.782   0.768  0.00  0.00    -0.010 S 
ATOM      5  C   LIG    1        0.035   5.567   1.877  0.00  0.00    -0.240 C 
ATOM      6  C   LIG    1        0.940   6.496   2.274  0.00  0.00    +0.250 C 
ATOM      7  O   LIG    1       -2.829   3.603   0.314  0.00  0.00    -0.420 OA
ATOM      8  C   LIG    1       -0.041   4.153   2.269  0.00  0.00    +0.550 C 
ATOM      9  O   LIG    1        0.751   3.644   3.038  0.00  0.00    -0.450 OA
BRANCH   6  10
ATOM     10  C   LIG    1        2.115   6.088   3.058  0.00  0.00    -0.100 A 
ATOM     11  C   LIG    1        2.561   6.882   4.120  0.00  0.00    +0.050 A 
ATOM     12  C   LIG    1        3.661   6.491   4.854  0.00  0.00    +0.000 A 
ATOM     13  C   LIG    1        4.329   5.321   4.536  0.00  0.00    +0.040 A 
ATOM     14  C   LIG    1        3.897   4.532   3.484  0.00  0.00    +0.000 A 
ATOM     15  C   LIG    1        2.796   4.907   2.744  0.00  0.00    +0.080 A 
ENDBRANCH   6  10
ENDBRANCH   1   2
BRANCH   1  16
ATOM     16  C   LIG    1       -0.434   1.211   1.019  0.00  0.00    +0.270 C 
BRANCH  16  19
ATOM     17  O   LIG    1        0.677  -0.813  -0.372  0.00  0.00    -0.520 OA
ATOM     18  C   LIG    1       -0.015  -1.146   0.566  0.00  0.00    +0.520 C 
ATOM     19  N   LIG    1       -0.617  -0.210   1.326  0.00  0.00    -0.730 N 
ATOM     20  H   LIG    1       -1.171  -0.477   2.076  0.00  0.00    +0.400 HD
BRANCH  18  21
ATOM     21  C   LIG    1       -0.203  -2.608   0.882  0.00  0.00    +0.110 C 
BRANCH  21  22
ATOM     22  C   LIG    1        0.569  -3.439  -0.110  0.00  0.00    -0.060 A 
ATOM     23  C   LIG    1       -0.064  -3.945  -1.230  0.00  0.00    +0.030 A 
ATOM     24  C   LIG    1        0.645  -4.703  -2.142  0.00  0.00    +0.020 A 
ATOM     25  C   LIG    1        1.985  -4.966  -1.929  0.00  0.00    +0.020 A 
ATOM     26  C   LIG    1        2.618  -4.466  -0.807  0.00  0.00    +0.020 A 
ATOM     27  C   LIG    1        1.910  -3.702   0.103  0.00  0.00    -0.020 A 
ATOM     28 CL   LIG    1        2.705  -3.073   1.513  0.00  0.00    -0.070 Cl
ENDBRANCH  21  22
ENDBRANCH  18  21
ENDBRANCH  16  19
ENDBRANCH   1  16
TORSDOF 6
