REMARK  Name = ZINCqH0000000vJN.0
REMARK                            x       y       z     vdW  Elec       q    Type
REMARK                         _______ _______ _______ _____ _____    ______ ____
ROOT
ATOM      1  C   LIG    1       -2.514   0.980   0.019  0.00  0.00    +0.350 C 
ENDROOT
BRANCH   1   2
ATOM      2  C   LIG    1       -1.219   1.751   0.017  0.00  0.00    -0.080 A 
ATOM      3  C   LIG    1       -0.013   1.076   0.008  0.00  0.00    +0.020 A 
ATOM      4  C   LIG    1        1.175   1.783   0.000  0.00  0.00    -0.070 A 
ATOM      5  C   LIG    1        1.156   3.165   0.008  0.00  0.00    +0.000 A 
ATOM      6  C   LIG    1       -0.050   3.840   0.023  0.00  0.00    -0.070 A 
ATOM      7  C   LIG    1       -0.070   5.347   0.031  0.00  0.00    +0.090 C 
ATOM      8  C   LIG    1        2.490   1.048  -0.016  0.00  0.00    +0.090 C 
ATOM      9  C   LIG    1       -1.238   3.133   0.030  0.00  0.00    +0.000 A 
ENDBRANCH   1   2
BRANCH   1  10
ATOM     10  C   LIG    1       -3.065   0.927   1.421  0.00  0.00    -0.140 A 
ATOM     11  C   LIG    1       -2.890  -0.205   2.202  0.00  0.00    +0.080 A 
ATOM     12  C   LIG    1       -3.414  -0.208   3.486  0.00  0.00    -0.030 A 
ATOM     13  C   LIG    1       -4.088   0.908   3.941  0.00  0.00    +0.260 A 
ATOM     14  N   LIG    1       -4.236   1.968   3.170  0.00  0.00    -0.480 NA
ATOM     15  C   LIG    1       -3.747   2.009   1.946  0.00  0.00    +0.260 A 
ENDBRANCH   1  10
BRANCH   1  17
ATOM     16  C   LIG    1       -4.480   0.935  -1.419  0.00  0.00    +0.590 C 
ATOM     17  N   LIG    1       -3.479   1.643  -0.860  0.00  0.00    -0.730 N 
ATOM     18  H   LIG    1       -3.397   2.593  -1.041  0.00  0.00    +0.390 HD
ATOM     19  O   LIG    1       -4.582  -0.256  -1.193  0.00  0.00    -0.510 OA
BRANCH  16  24
ATOM     20  C   LIG    1       -7.165   2.006  -3.669  0.00  0.00    -0.270 A 
ATOM     21  C   LIG    1       -6.474   3.189  -3.460  0.00  0.00    +0.280 A 
ATOM     22  N   LIG    1       -5.445   2.937  -2.638  0.00  0.00    -0.530 N 
ATOM     23  H   LIG    1       -4.800   3.592  -2.329  0.00  0.00    +0.420 HD
ATOM     24  C   LIG    1       -5.447   1.600  -2.301  0.00  0.00    -0.070 A 
ATOM     25  C   LIG    1       -6.497   1.000  -2.929  0.00  0.00    +0.120 A 
BRANCH  20  27
ATOM     26  C   LIG    1       -8.948   3.006  -5.235  0.00  0.00    +0.060 C 
ATOM     27  C   LIG    1       -8.358   1.828  -4.503  0.00  0.00    +0.420 C 
ATOM     28  O   LIG    1       -8.871   0.733  -4.602  0.00  0.00    -0.470 OA
ENDBRANCH  20  27
ENDBRANCH  16  24
ENDBRANCH   1  17
TORSDOF 5
