REMARK  Name = ZINCqH0000003t78.0
REMARK                            x       y       z     vdW  Elec       q    Type
REMARK                         _______ _______ _______ _____ _____    ______ ____
ROOT
ATOM      1  C   LIG    1        0.908   1.165   3.318  0.00  0.00    -0.160 A 
ATOM      2  C   LIG    1       -0.403   1.156   2.818  0.00  0.00    +0.240 A 
ATOM      3  C   LIG    1       -1.377   0.419   3.535  0.00  0.00    -0.120 A 
ATOM      4  C   LIG    1       -2.706   0.355   3.096  0.00  0.00    +0.000 A 
ATOM      5  C   LIG    1       -3.618  -0.369   3.809  0.00  0.00    +0.120 A 
ATOM      6  C   LIG    1       -3.239  -1.050   4.964  0.00  0.00    +0.020 A 
ATOM      7  C   LIG    1       -1.953  -1.011   5.412  0.00  0.00    -0.030 A 
ATOM      8  C   LIG    1       -1.567  -1.756   6.664  0.00  0.00    +0.130 C 
ATOM      9  F   LIG    1       -4.901  -0.427   3.389  0.00  0.00    -0.130 F 
ATOM     10  C   LIG    1       -0.989  -0.276   4.705  0.00  0.00    +0.150 A 
ATOM     11  N   LIG    1        0.282  -0.226   5.130  0.00  0.00    -0.470 NA
ATOM     12  C   LIG    1        1.202   0.450   4.491  0.00  0.00    +0.360 A 
ENDROOT
BRANCH   1  13
ATOM     13  C   LIG    1        1.964   1.916   2.622  0.00  0.00    +0.510 C 
ATOM     14  O   LIG    1        1.710   2.509   1.592  0.00  0.00    -0.460 OA
BRANCH  13  15
ATOM     15  O   LIG    1        3.214   1.947   3.127  0.00  0.00    -0.360 OA
BRANCH  15  17
ATOM     16  C   LIG    1        5.552   2.627   3.107  0.00  0.00    +0.070 C 
ATOM     17  C   LIG    1        4.205   2.707   2.387  0.00  0.00    +0.210 C 
ENDBRANCH  15  17
ENDBRANCH  13  15
ENDBRANCH   1  13
BRANCH   2  18
ATOM     18  N   LIG    1       -0.732   1.845   1.672  0.00  0.00    -0.490 N 
ATOM     19  C   LIG    1       -1.081   0.921   0.585  0.00  0.00    +0.230 C 
BRANCH  18  20
ATOM     20  C   LIG    1       -1.823   2.796   1.925  0.00  0.00    +0.200 C 
BRANCH  20  21
ATOM     21  C   LIG    1       -1.247   4.092   2.498  0.00  0.00    -0.050 C 
ATOM     22  C   LIG    1       -0.258   4.696   1.499  0.00  0.00    +0.040 C 
ATOM     23  C   LIG    1       -0.525   3.792   3.813  0.00  0.00    +0.020 C 
BRANCH  21  24
ATOM     24  C   LIG    1       -2.382   5.085   2.755  0.00  0.00    +0.030 C 
BRANCH  24  25
ATOM     25  C   LIG    1       -1.806   6.381   3.327  0.00  0.00    +0.170 C 
BRANCH  25  26
ATOM     26  O   LIG    1       -2.867   7.309   3.567  0.00  0.00    -0.580 OA
ATOM     27  H   LIG    1       -2.574   8.155   3.932  0.00  0.00    +0.380 HD
ENDBRANCH  25  26
ENDBRANCH  24  25
ENDBRANCH  21  24
ENDBRANCH  20  21
ENDBRANCH  18  20
ENDBRANCH   2  18
TORSDOF 9
