REMARK  Name = ZINCvU0000000BAj.0
REMARK                            x       y       z     vdW  Elec       q    Type
REMARK                         _______ _______ _______ _____ _____    ______ ____
ROOT
ATOM      1  C   LIG    1        7.627   0.916  -1.688  0.00  0.00    +0.290 C 
ATOM      2  N   LIG    1        7.213   0.417  -0.375  0.00  0.00    -0.600 N 
ATOM      3  C   LIG    1        7.819   0.871   0.740  0.00  0.00    +0.520 C 
ATOM      4  O   LIG    1        7.475   0.459   1.828  0.00  0.00    -0.530 OA
ENDROOT
BRANCH   3   5
ATOM      5  C   LIG    1        8.922   1.892   0.636  0.00  0.00    +0.060 C 
BRANCH   5   6
ATOM      6  C   LIG    1        9.434   2.235   2.036  0.00  0.00    +0.040 C 
BRANCH   6   7
ATOM      7  C   LIG    1       10.555   3.271   1.930  0.00  0.00    +0.030 C 
BRANCH   7   8
ATOM      8  C   LIG    1       11.067   3.614   3.330  0.00  0.00    +0.140 C 
BRANCH   8   9
ATOM      9  C   LIG    1       12.171   4.634   3.226  0.00  0.00    +0.100 A 
ATOM     10  N   LIG    1       11.985   5.900   3.241  0.00  0.00    -0.470 NA
ATOM     11  C   LIG    1       13.066   6.696   3.143  0.00  0.00    +0.080 A 
ATOM     12  C   LIG    1       13.151   8.103   3.138  0.00  0.00    +0.070 A 
ATOM     13  C   LIG    1       14.359   8.721   3.022  0.00  0.00    +0.030 A 
ATOM     14  C   LIG    1       15.527   7.981   2.907  0.00  0.00    +0.040 A 
ATOM     15  C   LIG    1       15.475   6.605   2.910  0.00  0.00    +0.060 A 
ATOM     16  C   LIG    1       14.248   5.955   3.027  0.00  0.00    -0.180 A 
ATOM     17  S   LIG    1       13.825   4.247   3.065  0.00  0.00    +0.100 S 
ENDBRANCH   8   9
ENDBRANCH   7   8
ENDBRANCH   6   7
ENDBRANCH   5   6
ENDBRANCH   3   5
BRANCH   2  18
ATOM     18  C   LIG    1        6.140  -0.575  -0.273  0.00  0.00    +0.330 C 
BRANCH  18  19
ATOM     19  C   LIG    1        4.814   0.130  -0.143  0.00  0.00    +0.500 C 
ATOM     20  N   LIG    1        3.678  -0.586  -0.035  0.00  0.00    -0.670 N 
ATOM     21  H   LIG    1        3.719  -1.552   0.040  0.00  0.00    +0.410 HD
ATOM     22  O   LIG    1        4.770   1.342  -0.137  0.00  0.00    -0.500 OA
BRANCH  20  23
ATOM     23  C   LIG    1        2.442   0.062  -0.031  0.00  0.00    +0.150 A 
ATOM     24  C   LIG    1        2.303   1.297  -0.626  0.00  0.00    +0.010 A 
ATOM     25  C   LIG    1        1.074   1.952  -0.628  0.00  0.00    +0.040 A 
ATOM     26  C   LIG    1       -0.021   1.394  -0.043  0.00  0.00    +0.000 A 
ATOM     27  C   LIG    1        0.078   0.136   0.575  0.00  0.00    -0.030 A 
ATOM     28  C   LIG    1       -1.036  -0.465   1.186  0.00  0.00    +0.030 A 
ATOM     29  C   LIG    1       -0.904  -1.685   1.775  0.00  0.00    +0.010 A 
ATOM     30  C   LIG    1        0.320  -2.350   1.782  0.00  0.00    +0.010 A 
ATOM     31  C   LIG    1        1.421  -1.797   1.200  0.00  0.00    +0.010 A 
ATOM     32  C   LIG    1        1.323  -0.541   0.582  0.00  0.00    -0.070 A 
ENDBRANCH  20  23
ENDBRANCH  18  19
ENDBRANCH   2  18
TORSDOF 8
