REMARK  Name = ZINCpe000000Szfl.0
REMARK                            x       y       z     vdW  Elec       q    Type
REMARK                         _______ _______ _______ _____ _____    ______ ____
ROOT
ATOM      1  N   LIG    1        1.121   2.066   0.117  0.00  0.00    -0.520 NA
ATOM      2  C   LIG    1       -0.318   1.809   0.271  0.00  0.00    +0.190 C 
ATOM      3  C   LIG    1       -0.555   0.301   0.382  0.00  0.00    +0.210 C 
ATOM      4  N   LIG    1        0.197  -0.227   1.529  0.00  0.00    -0.490 N 
ATOM      5  C   LIG    1        1.636   0.030   1.375  0.00  0.00    +0.200 C 
ATOM      6  C   LIG    1        1.873   1.538   1.264  0.00  0.00    +0.200 C 
ENDROOT
BRANCH   4   7
ATOM      7  C   LIG    1       -0.051  -1.590   1.706  0.00  0.00    +0.120 A 
ATOM      8  C   LIG    1       -0.917  -2.257   0.848  0.00  0.00    -0.050 A 
ATOM      9  C   LIG    1       -1.160  -3.605   1.025  0.00  0.00    +0.030 A 
ATOM     10  C   LIG    1       -0.543  -4.290   2.055  0.00  0.00    -0.030 A 
ATOM     11  C   LIG    1        0.319  -3.630   2.912  0.00  0.00    -0.060 A 
ATOM     12  C   LIG    1        0.989  -4.382   4.032  0.00  0.00    +0.090 C 
ATOM     13  C   LIG    1        0.570  -2.283   2.737  0.00  0.00    -0.020 A 
ENDBRANCH   4   7
BRANCH   1  14
ATOM     14  C   LIG    1        1.383   3.500  -0.069  0.00  0.00    +0.220 C 
BRANCH  14  22
ATOM     15  C   LIG    1        2.496   9.822  -2.212  0.00  0.00    +0.090 C 
ATOM     16  C   LIG    1        1.905   8.810  -3.160  0.00  0.00    +0.510 C 
ATOM     17  N   LIG    1        1.896   7.503  -2.831  0.00  0.00    -0.620 N 
ATOM     18  C   LIG    1        1.323   6.506  -3.746  0.00  0.00    +0.280 C 
ATOM     19  C   LIG    1        0.250   5.710  -2.993  0.00  0.00    +0.280 C 
ATOM     20  N   LIG    1        0.812   5.257  -1.714  0.00  0.00    -0.620 N 
ATOM     21  C   LIG    1        1.380   6.255  -0.796  0.00  0.00    +0.270 C 
ATOM     22  C   LIG    1        0.802   3.950  -1.385  0.00  0.00    +0.520 C 
ATOM     23  O   LIG    1        0.327   3.136  -2.147  0.00  0.00    -0.510 OA
ATOM     24  C   LIG    1        2.459   7.050  -1.552  0.00  0.00    +0.270 C 
ATOM     25  O   LIG    1        1.438   9.172  -4.219  0.00  0.00    -0.540 OA
ENDBRANCH  14  22
ENDBRANCH   1  14
TORSDOF 3
