REMARK  Name = ZINCqH0000001tgY.0
REMARK                            x       y       z     vdW  Elec       q    Type
REMARK                         _______ _______ _______ _____ _____    ______ ____
ROOT
ATOM      1  N   LIG    1       -1.233  -2.602  -0.629  0.00  0.00    -0.720 N 
ATOM      2  H   LIG    1       -0.397  -3.091  -0.576  0.00  0.00    +0.400 HD
ATOM      3  C   LIG    1       -1.224  -1.276  -0.869  0.00  0.00    +0.560 C 
ATOM      4  O   LIG    1       -2.273  -0.664  -0.936  0.00  0.00    -0.540 OA
ENDROOT
BRANCH   1   8
ATOM      5  C   LIG    1       -1.711  -5.287   1.559  0.00  0.00    +0.150 C 
ATOM      6  C   LIG    1       -1.266  -5.405   0.100  0.00  0.00    +0.020 C 
ATOM      7  C   LIG    1       -2.327  -4.782  -0.810  0.00  0.00    +0.030 C 
ATOM      8  C   LIG    1       -2.505  -3.306  -0.449  0.00  0.00    +0.230 C 
ATOM      9  C   LIG    1       -2.950  -3.188   1.010  0.00  0.00    +0.010 C 
ATOM     10  C   LIG    1       -1.889  -3.811   1.919  0.00  0.00    +0.000 C 
BRANCH   5  11
ATOM     11  O   LIG    1       -0.720  -5.869   2.408  0.00  0.00    -0.380 OA
BRANCH  11  13
ATOM     12  C   LIG    1       -0.343  -7.731   3.902  0.00  0.00    +0.040 C 
ATOM     13  C   LIG    1       -1.256  -6.558   3.539  0.00  0.00    +0.140 C 
ATOM     14  C   LIG    1       -1.347  -5.596   4.726  0.00  0.00    +0.000 C 
ENDBRANCH  11  13
ENDBRANCH   5  11
ENDBRANCH   1   8
BRANCH   3  15
ATOM     15  C   LIG    1        0.057  -0.567  -1.051  0.00  0.00    -0.180 A 
ATOM     16  C   LIG    1        0.068   0.808  -1.300  0.00  0.00    +0.120 A 
ATOM     17  C   LIG    1        1.266   1.466  -1.469  0.00  0.00    -0.090 A 
ATOM     18  C   LIG    1        2.463   0.764  -1.392  0.00  0.00    +0.160 A 
ATOM     19  C   LIG    1        2.457  -0.604  -1.145  0.00  0.00    -0.020 A 
ATOM     20  C   LIG    1        1.263  -1.269  -0.975  0.00  0.00    +0.090 A 
BRANCH  18  21
ATOM     21  O   LIG    1        3.642   1.416  -1.560  0.00  0.00    -0.300 OA
BRANCH  21  22
ATOM     22  C   LIG    1        3.576   2.821  -1.811  0.00  0.00    +0.210 C 
BRANCH  22  23
ATOM     23  C   LIG    1        4.992   3.378  -1.971  0.00  0.00    +0.160 C 
ATOM     24  C   LIG    1        4.940   4.883  -2.334  0.00  0.00    +0.020 C 
ATOM     25  C   LIG    1        6.327   5.357  -1.817  0.00  0.00    +0.010 C 
ATOM     26  C   LIG    1        6.539   4.465  -0.576  0.00  0.00    +0.190 C 
ATOM     27  O   LIG    1        5.696   3.315  -0.721  0.00  0.00    -0.370 OA
ENDBRANCH  22  23
ENDBRANCH  21  22
ENDBRANCH  18  21
ENDBRANCH   3  15
TORSDOF 7
