REMARK  Name = ZINCkj000005fH5h.0
REMARK                            x       y       z     vdW  Elec       q    Type
REMARK                         _______ _______ _______ _____ _____    ______ ____
ROOT
ATOM      1  N   LIG    1       -3.147   0.590   1.602  0.00  0.00    -1.120 NA
ATOM      2  H   LIG    1       -3.170  -0.314   1.955  0.00  0.00    +0.440 HD
ENDROOT
BRANCH   1   3
ATOM      3  S   LIG    1       -2.733   0.849   0.020  0.00  0.00    +2.700 S 
ATOM      4  O   LIG    1       -2.441  -0.427  -0.533  0.00  0.00    -0.910 OA
ATOM      5  O   LIG    1       -3.720   1.720  -0.515  0.00  0.00    -0.980 OA
BRANCH   3   6
ATOM      6  C   LIG    1       -1.219   1.751   0.017  0.00  0.00    -0.650 A 
ATOM      7  C   LIG    1       -0.013   1.076   0.008  0.00  0.00    +0.160 A 
ATOM      8  C   LIG    1        1.175   1.783   0.000  0.00  0.00    +0.100 A 
ATOM      9  C   LIG    1        1.156   3.165   0.008  0.00  0.00    +0.020 A 
ATOM     10  C   LIG    1       -0.050   3.840   0.022  0.00  0.00    +0.100 A 
ATOM     11  C   LIG    1       -1.238   3.133   0.030  0.00  0.00    +0.130 A 
BRANCH   9  12
ATOM     12  N   LIG    1        2.428   3.923  -0.001  0.00  0.00    +0.010 N 
ATOM     13  O   LIG    1        2.411   5.141   0.005  0.00  0.00    -0.130 OA
ATOM     14  O   LIG    1        3.491   3.328  -0.014  0.00  0.00    -0.130 OA
ENDBRANCH   9  12
ENDBRANCH   3   6
ENDBRANCH   1   3
BRANCH   1  15
ATOM     15  C   LIG    1       -3.477   1.724   2.468  0.00  0.00    +0.230 C 
BRANCH  15  16
ATOM     16  C   LIG    1       -2.984   1.442   3.889  0.00  0.00    +0.060 C 
BRANCH  16  17
ATOM     17  C   LIG    1       -1.456   1.362   3.891  0.00  0.00    +0.020 C 
BRANCH  17  19
ATOM     18  C   LIG    1        0.566   1.000   5.315  0.00  0.00    +0.000 C 
ATOM     19  C   LIG    1       -0.962   1.080   5.312  0.00  0.00    +0.010 C 
ENDBRANCH  17  19
ENDBRANCH  16  17
ENDBRANCH  15  16
BRANCH  15  20
ATOM     20  C   LIG    1       -4.993   1.927   2.486  0.00  0.00    +0.260 C 
BRANCH  20  21
ATOM     21  N   LIG    1       -5.483   2.079   1.109  0.00  0.00    -0.630 N 
ATOM     22  H   LIG    1       -6.483   2.213   1.121  0.00  0.00    +0.440 HD
ATOM     23  H   LIG    1       -5.261   1.249   0.580  0.00  0.00    +0.420 HD
ATOM     24  H   LIG    1       -5.042   2.879   0.681  0.00  0.00    +0.440 HD
ENDBRANCH  20  21
ENDBRANCH  15  20
ENDBRANCH   1  15
TORSDOF 9
