REMARK  Name = ZINCtV00000tRQGE.0
REMARK                            x       y       z     vdW  Elec       q    Type
REMARK                         _______ _______ _______ _____ _____    ______ ____
ROOT
ATOM      1  O   LIG    1       -1.273  -3.571   0.270  0.00  0.00    -0.530 OA
ATOM      2  C   LIG    1       -1.550  -4.197   1.275  0.00  0.00    +0.700 C 
ATOM      3  N   LIG    1       -0.898  -3.945   2.427  0.00  0.00    -0.630 N 
ATOM      4  C   LIG    1       -1.145  -4.788   3.598  0.00  0.00    +0.300 C 
ATOM      5  C   LIG    1        0.133  -5.553   3.957  0.00  0.00    +0.100 C 
ATOM      6  S   LIG    1        1.467  -4.356   4.259  0.00  0.00    -0.230 S 
ATOM      7  C   LIG    1        1.463  -3.377   2.728  0.00  0.00    +0.100 C 
ATOM      8  C   LIG    1        0.050  -2.832   2.494  0.00  0.00    +0.310 C 
ATOM      9  N   LIG    1       -2.510  -5.142   1.237  0.00  0.00    -0.690 N 
ATOM     10  H   LIG    1       -2.781  -5.592   2.053  0.00  0.00    +0.410 HD
ENDROOT
BRANCH   8  11
ATOM     11  C   LIG    1        0.016  -2.065   1.197  0.00  0.00    -0.040 A 
ATOM     12  C   LIG    1       -0.930  -1.075   1.004  0.00  0.00    +0.040 A 
ATOM     13  C   LIG    1       -0.961  -0.371  -0.185  0.00  0.00    +0.020 A 
ATOM     14  C   LIG    1       -0.043  -0.654  -1.180  0.00  0.00    +0.060 A 
ATOM     15  C   LIG    1        0.900  -1.647  -0.988  0.00  0.00    -0.170 A 
ATOM     16  C   LIG    1        0.931  -2.350   0.201  0.00  0.00    +0.080 A 
BRANCH  15  17
ATOM     17  C   LIG    1        1.897  -1.958  -2.074  0.00  0.00    +0.510 C 
ATOM     18  F   LIG    1        3.087  -2.415  -1.498  0.00  0.00    -0.180 F 
ATOM     19  F   LIG    1        2.154  -0.800  -2.817  0.00  0.00    -0.180 F 
ATOM     20  F   LIG    1        1.377  -2.946  -2.916  0.00  0.00    -0.180 F 
ENDBRANCH  15  17
ENDBRANCH   8  11
BRANCH   9  21
ATOM     21  C   LIG    1       -3.116  -5.476   0.020  0.00  0.00    +0.190 A 
ATOM     22  C   LIG    1       -3.340  -4.495  -0.937  0.00  0.00    +0.030 A 
ATOM     23  C   LIG    1       -3.934  -4.828  -2.139  0.00  0.00    +0.090 A 
ATOM     24  C   LIG    1       -4.314  -6.134  -2.385  0.00  0.00    -0.200 A 
ATOM     25  C   LIG    1       -4.098  -7.112  -1.432  0.00  0.00    +0.090 A 
ATOM     26  C   LIG    1       -3.500  -6.786  -0.230  0.00  0.00    -0.010 A 
BRANCH  24  27
ATOM     27  C   LIG    1       -4.967  -6.493  -3.696  0.00  0.00    +0.510 C 
ATOM     28  F   LIG    1       -4.655  -7.816  -4.025  0.00  0.00    -0.180 F 
ATOM     29  F   LIG    1       -4.498  -5.639  -4.699  0.00  0.00    -0.180 F 
ATOM     30  F   LIG    1       -6.354  -6.356  -3.578  0.00  0.00    -0.180 F 
ENDBRANCH  24  27
ENDBRANCH   9  21
TORSDOF 4
