REMARK  Name = ZINCwl0000000gK1.1
REMARK                            x       y       z     vdW  Elec       q    Type
REMARK                         _______ _______ _______ _____ _____    ______ ____
ROOT
ATOM      1  C   LIG    1        5.695   3.680   3.105  0.00  0.00    +0.250 C 
ATOM      2  C   LIG    1        5.910   4.251   4.510  0.00  0.00    +0.050 C 
ATOM      3  C   LIG    1        7.401   4.202   4.851  0.00  0.00    +0.280 C 
ATOM      4  N   LIG    1        8.156   4.999   3.876  0.00  0.00    -0.370 N 
ATOM      5  C   LIG    1        8.012   4.415   2.537  0.00  0.00    +0.270 C 
ATOM      6  H   LIG    1        7.802   5.943   3.870  0.00  0.00    +0.430 HD
ATOM      7  C   LIG    1        6.545   4.472   2.107  0.00  0.00    +0.070 C 
ENDROOT
BRANCH   1   9
ATOM      8  C   LIG    1        3.410   2.835   3.116  0.00  0.00    +0.530 C 
ATOM      9  N   LIG    1        4.280   3.793   2.742  0.00  0.00    -0.730 N 
ATOM     10  H   LIG    1        3.970   4.558   2.233  0.00  0.00    +0.410 HD
ATOM     11  O   LIG    1        3.797   1.878   3.753  0.00  0.00    -0.530 OA
BRANCH   8  12
ATOM     12  C   LIG    1        1.954   2.951   2.742  0.00  0.00    +0.050 C 
BRANCH  12  13
ATOM     13  C   LIG    1        1.190   1.742   3.284  0.00  0.00    +0.350 C 
BRANCH  13  20
ATOM     14  C   LIG    1       -0.094   0.634   0.689  0.00  0.00    +0.150 C 
ATOM     15  C   LIG    1       -0.796   1.377   1.796  0.00  0.00    +0.080 A 
ATOM     16  C   LIG    1       -2.112   1.691   1.837  0.00  0.00    -0.120 A 
ATOM     17  C   LIG    1       -2.354   2.377   3.032  0.00  0.00    +0.080 A 
ATOM     18  N   LIG    1       -1.223   2.478   3.681  0.00  0.00    -0.300 NA
ATOM     19  C   LIG    1       -3.687   2.911   3.489  0.00  0.00    +0.150 C 
ATOM     20  N   LIG    1       -0.225   1.855   2.921  0.00  0.00    -0.380 N 
ENDBRANCH  13  20
ENDBRANCH  12  13
ENDBRANCH   8  12
ENDBRANCH   1   9
BRANCH   4  21
ATOM     21  C   LIG    1        9.576   5.013   4.252  0.00  0.00    +0.290 C 
BRANCH  21  22
ATOM     22  C   LIG    1       10.326   5.955   3.347  0.00  0.00    +0.500 C 
ATOM     23  N   LIG    1       11.670   6.035   3.421  0.00  0.00    -0.590 N 
ATOM     24  C   LIG    1       12.426   5.212   4.378  0.00  0.00    +0.260 C 
ATOM     25  C   LIG    1       13.554   4.503   3.620  0.00  0.00    +0.250 C 
ATOM     26  O   LIG    1       14.306   5.470   2.882  0.00  0.00    -0.360 OA
ATOM     27  C   LIG    1       13.553   6.154   1.878  0.00  0.00    +0.260 C 
ATOM     28  C   LIG    1       12.424   6.944   2.543  0.00  0.00    +0.300 C 
ATOM     29  O   LIG    1        9.721   6.643   2.551  0.00  0.00    -0.520 OA
BRANCH  27  30
ATOM     30  C   LIG    1       14.456   7.099   1.128  0.00  0.00    +0.020 A 
ATOM     31  N   LIG    1       14.482   7.234  -0.155  0.00  0.00    -0.460 NA
ATOM     32  C   LIG    1       15.334   8.108  -0.650  0.00  0.00    +0.220 A 
ATOM     33  C   LIG    1       16.068   8.747   0.266  0.00  0.00    -0.060 A 
ATOM     34  S   LIG    1       15.589   8.153   1.854  0.00  0.00    +0.180 S 
ENDBRANCH  27  30
ENDBRANCH  21  22
ENDBRANCH   4  21
TORSDOF 7
