REMARK  Name = ZINCvU0000000FWJ.0
REMARK                            x       y       z     vdW  Elec       q    Type
REMARK                         _______ _______ _______ _____ _____    ______ ____
ROOT
ATOM      1  C   LIG    1       -1.330   3.332   0.237  0.00  0.00    +0.530 C 
ATOM      2  N   LIG    1       -1.284   1.989   0.138  0.00  0.00    -0.670 N 
ATOM      3  H   LIG    1       -2.106   1.477   0.087  0.00  0.00    +0.420 HD
ATOM      4  O   LIG    1       -0.306   3.965   0.384  0.00  0.00    -0.500 OA
ENDROOT
BRANCH   2   5
ATOM      5  C   LIG    1       -0.047   1.331   0.110  0.00  0.00    +0.150 A 
ATOM      6  C   LIG    1        0.118   0.197  -0.675  0.00  0.00    +0.010 A 
ATOM      7  C   LIG    1        1.335  -0.454  -0.699  0.00  0.00    +0.030 A 
ATOM      8  C   LIG    1        2.393   0.023   0.061  0.00  0.00    +0.070 A 
ATOM      9  C   LIG    1        2.229   1.156   0.845  0.00  0.00    +0.040 A 
ATOM     10  C   LIG    1        1.012   1.808   0.870  0.00  0.00    +0.050 A 
BRANCH   8  11
ATOM     11  O   LIG    1        3.591  -0.619   0.038  0.00  0.00    -0.260 OA
BRANCH  11  12
ATOM     12  C   LIG    1        4.388  -0.443  -1.048  0.00  0.00    +0.120 A 
ATOM     13  C   LIG    1        4.020   0.453  -2.042  0.00  0.00    -0.060 A 
ATOM     14  C   LIG    1        4.835   0.634  -3.143  0.00  0.00    +0.050 A 
ATOM     15  C   LIG    1        6.011  -0.084  -3.260  0.00  0.00    -0.020 A 
ATOM     16  C   LIG    1        6.377  -0.981  -2.273  0.00  0.00    +0.050 A 
ATOM     17  C   LIG    1        5.569  -1.162  -1.168  0.00  0.00    -0.020 A 
ENDBRANCH  11  12
ENDBRANCH   8  11
ENDBRANCH   2   5
BRANCH   1  18
ATOM     18  C   LIG    1       -2.654   4.047   0.166  0.00  0.00    +0.120 C 
BRANCH  18  19
ATOM     19  S   LIG    1       -2.387   5.830   0.328  0.00  0.00    +0.050 S 
BRANCH  19  24
ATOM     20  C   LIG    1       -7.624   5.941  -0.164  0.00  0.00    +0.150 C 
ATOM     21  C   LIG    1       -6.207   6.423   0.008  0.00  0.00    +0.000 A 
ATOM     22  C   LIG    1       -5.822   7.704   0.143  0.00  0.00    +0.010 A 
ATOM     23  N   LIG    1       -4.452   7.700   0.274  0.00  0.00    -0.430 N 
ATOM     24  C   LIG    1       -4.050   6.401   0.213  0.00  0.00    +0.170 A 
ATOM     25  C   LIG    1       -6.720   8.914   0.150  0.00  0.00    +0.150 C 
ATOM     26  N   LIG    1       -5.111   5.646   0.048  0.00  0.00    -0.480 NA
BRANCH  23  27
ATOM     27  C   LIG    1       -3.589   8.872   0.447  0.00  0.00    +0.290 C 
BRANCH  27  28
ATOM     28  C   LIG    1       -3.152   9.389  -0.925  0.00  0.00    +0.160 C 
ATOM     29  C   LIG    1       -2.152  10.552  -0.752  0.00  0.00    +0.020 C 
ATOM     30  C   LIG    1       -2.582  11.528  -1.880  0.00  0.00    +0.010 C 
ATOM     31  C   LIG    1       -4.114  11.299  -1.900  0.00  0.00    +0.200 C 
ATOM     32  O   LIG    1       -4.287   9.897  -1.637  0.00  0.00    -0.370 OA
ENDBRANCH  27  28
ENDBRANCH  23  27
ENDBRANCH  19  24
ENDBRANCH  18  19
ENDBRANCH   1  18
TORSDOF 8
