REMARK  Name = ZINCpe000000YNA5.0
REMARK                            x       y       z     vdW  Elec       q    Type
REMARK                         _______ _______ _______ _____ _____    ______ ____
ROOT
ATOM      1  C   LIG    1       -2.635  -0.501   0.006  0.00  0.00    +0.570 C 
ATOM      2  N   LIG    1       -3.847  -1.072  -0.142  0.00  0.00    -0.600 N 
ATOM      3  C   LIG    1       -5.036  -0.249  -0.398  0.00  0.00    +0.270 C 
ATOM      4  C   LIG    1       -6.107  -0.586   0.638  0.00  0.00    +0.020 C 
ATOM      5  C   LIG    1       -6.371  -2.094   0.623  0.00  0.00    +0.000 C 
ATOM      6  C   LIG    1       -5.087  -2.841   0.992  0.00  0.00    +0.020 C 
ATOM      7  C   LIG    1       -4.004  -2.530  -0.046  0.00  0.00    +0.280 C 
ATOM      8  O   LIG    1       -1.646  -1.197   0.133  0.00  0.00    -0.510 OA
ENDROOT
BRANCH   1  10
ATOM      9  C   LIG    1       -2.352   1.655  -1.155  0.00  0.00    +0.110 A 
ATOM     10  C   LIG    1       -2.509   0.967   0.016  0.00  0.00    +0.000 A 
ATOM     11  N   LIG    1       -2.548   1.667   1.212  0.00  0.00    -0.610 N 
ATOM     12  H   LIG    1       -2.659   1.182   2.045  0.00  0.00    +0.440 HD
ATOM     13  C   LIG    1       -2.435   3.005   1.238  0.00  0.00    +0.700 A 
ATOM     14  N   LIG    1       -2.280   3.728   0.116  0.00  0.00    -0.650 N 
ATOM     15  H   LIG    1       -2.201   4.694   0.174  0.00  0.00    +0.440 HD
ATOM     16  O   LIG    1       -2.475   3.580   2.309  0.00  0.00    -0.540 OA
ATOM     17  C   LIG    1       -2.225   3.124  -1.089  0.00  0.00    +0.560 A 
ATOM     18  O   LIG    1       -2.080   3.779  -2.103  0.00  0.00    -0.490 OA
BRANCH   9  19
ATOM     19  N   LIG    1       -2.308   0.990  -2.372  0.00  0.00    -0.830 N 
ATOM     20  H   LIG    1       -2.279   1.495  -3.199  0.00  0.00    +0.420 HD
ATOM     21  H   LIG    1       -2.310   0.021  -2.395  0.00  0.00    +0.410 HD
ENDBRANCH   9  19
ENDBRANCH   1  10
BRANCH   5  22
ATOM     22  C   LIG    1       -7.465  -2.430   1.638  0.00  0.00    +0.080 C 
BRANCH  22  23
ATOM     23  C   LIG    1       -8.761  -1.792   1.209  0.00  0.00    -0.090 A 
ATOM     24  C   LIG    1       -9.081  -0.519   1.641  0.00  0.00    +0.040 A 
ATOM     25  C   LIG    1      -10.267   0.069   1.242  0.00  0.00    -0.010 A 
ATOM     26  C   LIG    1      -11.140  -0.623   0.421  0.00  0.00    +0.090 A 
ATOM     27  C   LIG    1      -10.822  -1.901  -0.007  0.00  0.00    -0.010 A 
ATOM     28  F   LIG    1      -12.303  -0.052   0.036  0.00  0.00    -0.140 F 
ATOM     29  C   LIG    1       -9.632  -2.484   0.388  0.00  0.00    +0.040 A 
ENDBRANCH  22  23
ENDBRANCH   5  22
TORSDOF 4
