REMARK  Name = ZINCqH0000051JmW.0
REMARK                            x       y       z     vdW  Elec       q    Type
REMARK                         _______ _______ _______ _____ _____    ______ ____
ROOT
ATOM      1  N   LIG    1       -2.544  -0.339   0.012  0.00  0.00    -0.660 N 
ATOM      2  C   LIG    1       -1.305  -1.119  -0.114  0.00  0.00    +0.270 C 
ATOM      3  C   LIG    1       -1.450  -2.100  -1.275  0.00  0.00    +0.030 C 
ATOM      4  C   LIG    1       -2.708  -2.948  -1.069  0.00  0.00    -0.040 C 
ATOM      5  C   LIG    1       -3.939  -2.039  -1.046  0.00  0.00    +0.020 C 
ATOM      6  C   LIG    1       -3.821  -1.057   0.124  0.00  0.00    +0.280 C 
ENDROOT
BRANCH   1  10
ATOM      7  O   LIG    1       -1.652   3.737  -2.040  0.00  0.00    -0.550 OA
ATOM      8  C   LIG    1       -2.044   3.137  -1.053  0.00  0.00    +0.550 A 
ATOM      9  C   LIG    1       -2.073   1.736  -1.076  0.00  0.00    -0.110 A 
ATOM     10  C   LIG    1       -2.510   1.039   0.019  0.00  0.00    +0.290 A 
ATOM     11  C   LIG    1       -2.942   1.798   1.202  0.00  0.00    -0.140 A 
ATOM     12  C   LIG    1       -3.397   1.149   2.351  0.00  0.00    +0.080 A 
ATOM     13  C   LIG    1       -3.788   1.891   3.443  0.00  0.00    -0.020 A 
ATOM     14  C   LIG    1       -3.736   3.277   3.405  0.00  0.00    +0.070 A 
ATOM     15  C   LIG    1       -3.295   3.933   2.275  0.00  0.00    -0.040 A 
ATOM     16  C   LIG    1       -2.896   3.203   1.162  0.00  0.00    +0.190 A 
ATOM     17  N   LIG    1       -2.450   3.837   0.020  0.00  0.00    -0.640 N 
ATOM     18  H   LIG    1       -2.415   4.806  -0.004  0.00  0.00    +0.410 HD
ENDBRANCH   1  10
BRANCH   4  19
ATOM     19  C   LIG    1       -2.604  -3.700   0.260  0.00  0.00    +0.070 C 
BRANCH  19  20
ATOM     20  C   LIG    1       -1.391  -4.595   0.237  0.00  0.00    -0.060 A 
ATOM     21  C   LIG    1       -1.500  -5.895  -0.219  0.00  0.00    +0.050 A 
ATOM     22  C   LIG    1       -0.387  -6.714  -0.244  0.00  0.00    -0.020 A 
ATOM     23  C   LIG    1        0.833  -6.236   0.196  0.00  0.00    -0.010 A 
ATOM     24  C   LIG    1        0.941  -4.937   0.657  0.00  0.00    -0.020 A 
ATOM     25  C   LIG    1       -0.171  -4.117   0.678  0.00  0.00    -0.010 A 
ENDBRANCH  19  20
ENDBRANCH   4  19
BRANCH   4  26
ATOM     26  C   LIG    1       -2.837  -3.954  -2.215  0.00  0.00    +0.160 C 
BRANCH  26  27
ATOM     27  O   LIG    1       -1.688  -4.802  -2.236  0.00  0.00    -0.550 OA
ATOM     28  H   LIG    1       -1.702  -5.466  -2.939  0.00  0.00    +0.370 HD
ENDBRANCH  26  27
ENDBRANCH   4  26
TORSDOF 5
