REMARK  Name = ZINCpk000004ATLp.0
REMARK                            x       y       z     vdW  Elec       q    Type
REMARK                         _______ _______ _______ _____ _____    ______ ____
ROOT
ATOM      1  C   LIG    1        0.025   1.188   0.443  0.00  0.00    +0.560 C 
ATOM      2  N   LIG    1       -1.013   1.981   0.774  0.00  0.00    -0.590 N 
ATOM      3  O   LIG    1       -0.169   0.024   0.151  0.00  0.00    -0.520 OA
ENDROOT
BRANCH   2   4
ATOM      4  C   LIG    1       -2.354   1.410   0.921  0.00  0.00    +0.260 C 
ATOM      5  C   LIG    1       -2.793   0.711  -0.382  0.00  0.00    +0.100 C 
ATOM      6  C   LIG    1       -2.986  -0.733   0.043  0.00  0.00    +0.540 C 
ATOM      7  N   LIG    1       -2.713  -0.849   1.348  0.00  0.00    -0.560 N 
ATOM      8  C   LIG    1       -2.807  -2.122   2.067  0.00  0.00    +0.320 C 
ATOM      9  O   LIG    1       -3.333  -1.637  -0.686  0.00  0.00    -0.480 OA
ATOM     10  C   LIG    1       -2.348   0.294   1.942  0.00  0.00    +0.520 C 
ATOM     11  O   LIG    1       -2.058   0.415   3.114  0.00  0.00    -0.470 OA
ENDBRANCH   2   4
BRANCH   1  16
ATOM     12  C   LIG    1        2.947   3.470  -0.186  0.00  0.00    +0.140 A 
ATOM     13  C   LIG    1        3.979   2.752   0.406  0.00  0.00    +0.040 A 
ATOM     14  C   LIG    1        3.724   1.533   1.006  0.00  0.00    +0.040 A 
ATOM     15  C   LIG    1        2.442   1.021   1.020  0.00  0.00    +0.050 A 
ATOM     16  C   LIG    1        1.398   1.734   0.429  0.00  0.00    -0.110 A 
ATOM     17  C   LIG    1        1.657   2.962  -0.180  0.00  0.00    +0.010 A 
BRANCH  12  19
ATOM     18  C   LIG    1        4.161   5.513  -0.286  0.00  0.00    +0.550 C 
ATOM     19  N   LIG    1        3.210   4.703  -0.792  0.00  0.00    -0.670 N 
ATOM     20  H   LIG    1        2.709   4.975  -1.577  0.00  0.00    +0.410 HD
ATOM     21  O   LIG    1        4.729   5.213   0.747  0.00  0.00    -0.520 OA
BRANCH  18  23
ATOM     22  C   LIG    1        5.451   7.559  -0.484  0.00  0.00    +0.160 C 
ATOM     23  C   LIG    1        4.512   6.759  -0.983  0.00  0.00    -0.090 C 
ENDBRANCH  18  23
ENDBRANCH  12  19
ENDBRANCH   1  16
BRANCH   2  24
ATOM     24  C   LIG    1       -0.800   3.415   0.986  0.00  0.00    +0.280 C 
BRANCH  24  25
ATOM     25  C   LIG    1       -1.199   4.182  -0.277  0.00  0.00    -0.010 C 
ATOM     26  C   LIG    1       -0.838   5.660  -0.112  0.00  0.00    +0.030 C 
ENDBRANCH  24  25
ENDBRANCH   2  24
TORSDOF 6
