REMARK  Name = ZINCrH000004rnCr.0
REMARK                            x       y       z     vdW  Elec       q    Type
REMARK                         _______ _______ _______ _____ _____    ______ ____
ROOT
ATOM      1  N   LIG    1       -4.897   5.056  -0.027  0.00  0.00    -0.600 N 
ATOM      2  C   LIG    1       -3.591   5.026   0.308  0.00  0.00    +0.600 C 
ATOM      3  O   LIG    1       -2.946   6.056   0.332  0.00  0.00    -0.510 OA
ATOM      4  C   LIG    1       -5.679   3.817  -0.036  0.00  0.00    +0.300 C 
ENDROOT
BRANCH   2   5
ATOM      5  C   LIG    1       -2.947   3.746   0.644  0.00  0.00    -0.030 A 
ATOM      6  C   LIG    1       -1.593   3.517   0.799  0.00  0.00    +0.040 A 
ATOM      7  C   LIG    1       -1.482   2.150   1.113  0.00  0.00    +0.070 A 
ATOM      8  N   LIG    1       -2.697   1.645   1.128  0.00  0.00    -0.250 NA
ATOM      9  N   LIG    1       -3.570   2.549   0.864  0.00  0.00    -0.380 N 
ATOM     10  H   LIG    1       -4.528   2.404   0.822  0.00  0.00    +0.450 HD
BRANCH   7  11
ATOM     11  C   LIG    1       -0.221   1.411   1.375  0.00  0.00    -0.000 A 
ATOM     12  C   LIG    1        1.003   2.073   1.314  0.00  0.00    +0.050 A 
ATOM     13  C   LIG    1        2.172   1.380   1.552  0.00  0.00    +0.030 A 
ATOM     14  C   LIG    1        2.130   0.029   1.851  0.00  0.00    -0.030 A 
ATOM     15  C   LIG    1        0.916  -0.634   1.913  0.00  0.00    +0.030 A 
ATOM     16 CL   LIG    1        3.604  -0.838   2.150  0.00  0.00    -0.070 Cl
ATOM     17  C   LIG    1       -0.259   0.051   1.676  0.00  0.00    +0.060 A 
ENDBRANCH   7  11
ENDBRANCH   2   5
BRANCH   1  18
ATOM     18  C   LIG    1       -5.533   6.327  -0.382  0.00  0.00    +0.350 C 
BRANCH  18  21
ATOM     19  N   LIG    1       -5.923   7.668  -2.423  0.00  0.00    -0.670 N 
ATOM     20  H   LIG    1       -6.432   8.291  -1.881  0.00  0.00    +0.410 HD
ATOM     21  C   LIG    1       -5.407   6.555  -1.866  0.00  0.00    +0.500 C 
ATOM     22  O   LIG    1       -4.841   5.736  -2.559  0.00  0.00    -0.510 OA
BRANCH  19  27
ATOM     23  C   LIG    1       -5.115   8.718  -7.939  0.00  0.00    +0.090 C 
ATOM     24  C   LIG    1       -5.329   8.439  -6.474  0.00  0.00    -0.100 A 
ATOM     25  C   LIG    1       -5.493   7.138  -6.036  0.00  0.00    +0.030 A 
ATOM     26  C   LIG    1       -5.690   6.879  -4.694  0.00  0.00    +0.020 A 
ATOM     27  C   LIG    1       -5.723   7.927  -3.783  0.00  0.00    +0.130 A 
ATOM     28  C   LIG    1       -5.563   9.233  -4.227  0.00  0.00    -0.010 A 
ATOM     29  C   LIG    1       -5.362   9.485  -5.570  0.00  0.00    +0.030 A 
ENDBRANCH  19  27
ENDBRANCH  18  21
ENDBRANCH   1  18
TORSDOF 5
