REMARK  Name = ZINCrH000004rnCr.1
REMARK                            x       y       z     vdW  Elec       q    Type
REMARK                         _______ _______ _______ _____ _____    ______ ____
ROOT
ATOM      1  N   LIG    1        0.659   4.142  -0.080  0.00  0.00    -0.590 N 
ATOM      2  C   LIG    1        1.644   3.271   0.219  0.00  0.00    +0.610 C 
ATOM      3  O   LIG    1        2.799   3.647   0.248  0.00  0.00    -0.530 OA
ATOM      4  C   LIG    1       -0.740   3.708  -0.040  0.00  0.00    +0.310 C 
ENDROOT
BRANCH   2   5
ATOM      5  C   LIG    1        1.318   1.860   0.510  0.00  0.00    -0.000 A 
ATOM      6  N   LIG    1        0.111   1.346   0.632  0.00  0.00    -0.240 NA
ATOM      7  N   LIG    1        0.182   0.089   0.887  0.00  0.00    -0.380 N 
ATOM      8  H   LIG    1       -0.581  -0.497   1.017  0.00  0.00    +0.450 HD
ATOM      9  C   LIG    1        1.487  -0.301   0.947  0.00  0.00    +0.060 A 
ATOM     10  C   LIG    1        2.244   0.812   0.710  0.00  0.00    +0.020 A 
BRANCH   9  11
ATOM     11  C   LIG    1        1.988  -1.667   1.218  0.00  0.00    -0.020 A 
ATOM     12  C   LIG    1        3.361  -1.917   1.243  0.00  0.00    +0.060 A 
ATOM     13  C   LIG    1        3.822  -3.191   1.501  0.00  0.00    +0.040 A 
ATOM     14  C   LIG    1        2.926  -4.223   1.724  0.00  0.00    -0.030 A 
ATOM     15  C   LIG    1        1.563  -3.982   1.695  0.00  0.00    +0.040 A 
ATOM     16 CL   LIG    1        3.514  -5.825   2.041  0.00  0.00    -0.060 Cl
ATOM     17  C   LIG    1        1.090  -2.710   1.443  0.00  0.00    +0.030 A 
ENDBRANCH   9  11
ENDBRANCH   2   5
BRANCH   1  18
ATOM     18  C   LIG    1        0.987   5.522  -0.445  0.00  0.00    +0.340 C 
BRANCH  18  21
ATOM     19  N   LIG    1        1.490   6.799  -2.503  0.00  0.00    -0.670 N 
ATOM     20  H   LIG    1        1.526   7.602  -1.960  0.00  0.00    +0.410 HD
ATOM     21  C   LIG    1        1.179   5.616  -1.936  0.00  0.00    +0.500 C 
ATOM     22  O   LIG    1        1.054   4.627  -2.627  0.00  0.00    -0.510 OA
BRANCH  19  27
ATOM     23  C   LIG    1        2.586   7.082  -8.062  0.00  0.00    +0.100 C 
ATOM     24  C   LIG    1        2.295   7.006  -6.585  0.00  0.00    -0.100 A 
ATOM     25  C   LIG    1        1.338   6.126  -6.114  0.00  0.00    +0.020 A 
ATOM     26  C   LIG    1        1.069   6.054  -4.762  0.00  0.00    +0.020 A 
ATOM     27  C   LIG    1        1.760   6.868  -3.874  0.00  0.00    +0.140 A 
ATOM     28  C   LIG    1        2.717   7.755  -4.350  0.00  0.00    -0.010 A 
ATOM     29  C   LIG    1        2.985   7.818  -5.704  0.00  0.00    +0.030 A 
ENDBRANCH  19  27
ENDBRANCH  18  21
ENDBRANCH   1  18
TORSDOF 5
