REMARK  Name = ZINCrH000004mICW.0
REMARK                            x       y       z     vdW  Elec       q    Type
REMARK                         _______ _______ _______ _____ _____    ______ ____
ROOT
ATOM      1  C   LIG    1       -0.431   7.168   0.635  0.00  0.00    +0.240 C 
ATOM      2  C   LIG    1       -1.533   7.751   1.530  0.00  0.00    +0.050 C 
ATOM      3  C   LIG    1       -0.816   6.960   2.629  0.00  0.00    +0.260 C 
ATOM      4  N   LIG    1       -0.325   6.049   1.584  0.00  0.00    -0.630 N 
ATOM      5  C   LIG    1        0.051   4.756   1.522  0.00  0.00    +0.610 C 
ATOM      6  O   LIG    1        0.496   4.301   0.484  0.00  0.00    -0.480 OA
ENDROOT
BRANCH   5   7
ATOM      7  C   LIG    1       -0.072   3.926   2.665  0.00  0.00    -0.070 A 
ATOM      8  C   LIG    1        0.902   3.677   3.618  0.00  0.00    +0.040 A 
ATOM      9  N   LIG    1        0.397   2.848   4.518  0.00  0.00    -0.460 NA
ATOM     10  C   LIG    1       -0.863   2.552   4.203  0.00  0.00    +0.240 A 
ATOM     11  C   LIG    1       -1.818   1.731   4.829  0.00  0.00    +0.080 A 
ATOM     12  C   LIG    1       -3.055   1.601   4.274  0.00  0.00    +0.060 A 
ATOM     13  C   LIG    1       -3.358   2.286   3.088  0.00  0.00    +0.040 A 
ATOM     14  C   LIG    1       -2.425   3.070   2.501  0.00  0.00    +0.210 A 
ATOM     15  N   LIG    1       -1.188   3.205   3.049  0.00  0.00    -0.330 N 
BRANCH   8  16
ATOM     16  C   LIG    1        2.297   4.246   3.625  0.00  0.00    +0.490 C 
ATOM     17  F   LIG    1        2.966   3.856   2.460  0.00  0.00    -0.180 F 
ATOM     18  F   LIG    1        2.231   5.642   3.679  0.00  0.00    -0.190 F 
ENDBRANCH   8  16
ENDBRANCH   5   7
BRANCH   1  19
ATOM     19  C   LIG    1       -0.927   6.747  -0.750  0.00  0.00    +0.080 C 
BRANCH  19  23
ATOM     20  C   LIG    1        2.062   4.375  -2.674  0.00  0.00    +0.130 A 
ATOM     21  C   LIG    1        0.876   3.791  -2.252  0.00  0.00    -0.030 A 
ATOM     22  C   LIG    1       -0.088   4.560  -1.630  0.00  0.00    +0.110 A 
ATOM     23  C   LIG    1        0.127   5.911  -1.428  0.00  0.00    -0.120 A 
ATOM     24  C   LIG    1        1.305   6.497  -1.853  0.00  0.00    +0.040 A 
ATOM     25  C   LIG    1        2.275   5.731  -2.471  0.00  0.00    -0.100 A 
BRANCH  20  27
ATOM     26  C   LIG    1        4.208   4.290  -3.694  0.00  0.00    +0.230 C 
ATOM     27  O   LIG    1        3.012   3.621  -3.286  0.00  0.00    -0.320 OA
ENDBRANCH  20  27
ENDBRANCH  19  23
ENDBRANCH   1  19
TORSDOF 5
