REMARK  Name = ZINCrH000004tp8i.0
REMARK                            x       y       z     vdW  Elec       q    Type
REMARK                         _______ _______ _______ _____ _____    ______ ____
ROOT
ATOM      1  C   LIG    1       -1.244  -2.345  -1.518  0.00  0.00    +0.380 A 
ATOM      2  N   LIG    1       -2.039  -3.345  -1.227  0.00  0.00    -0.540 NA
ATOM      3  C   LIG    1       -1.551  -4.559  -0.879  0.00  0.00    +0.170 A 
ATOM      4  C   LIG    1       -2.399  -5.626  -0.569  0.00  0.00    +0.020 A 
ATOM      5  C   LIG    1       -1.861  -6.845  -0.221  0.00  0.00    +0.070 A 
ATOM      6  C   LIG    1       -0.485  -7.029  -0.174  0.00  0.00    -0.010 A 
ATOM      7  C   LIG    1        0.371  -5.993  -0.476  0.00  0.00    +0.100 A 
ATOM      8  C   LIG    1       -0.151  -4.750  -0.831  0.00  0.00    -0.200 A 
ATOM      9  C   LIG    1        0.716  -3.613  -1.169  0.00  0.00    +0.560 A 
ATOM     10  O   LIG    1        1.929  -3.717  -1.150  0.00  0.00    -0.510 OA
ATOM     11  N   LIG    1        0.117  -2.445  -1.497  0.00  0.00    -0.520 N 
ENDROOT
BRANCH   1  12
ATOM     12  S   LIG    1       -1.967  -0.800  -1.960  0.00  0.00    +0.040 S 
BRANCH  12  13
ATOM     13  C   LIG    1       -3.721  -1.224  -1.829  0.00  0.00    +0.150 C 
BRANCH  13  19
ATOM     14  C   LIG    1       -4.950   0.208  -3.493  0.00  0.00    -0.010 A 
ATOM     15  C   LIG    1       -5.724   1.328  -3.803  0.00  0.00    +0.070 A 
ATOM     16  C   LIG    1       -6.095   2.204  -2.803  0.00  0.00    +0.030 A 
ATOM     17  C   LIG    1       -5.701   1.974  -1.497  0.00  0.00    +0.050 A 
ATOM     18  C   LIG    1       -4.939   0.863  -1.182  0.00  0.00    +0.040 A 
ATOM     19  C   LIG    1       -4.557  -0.018  -2.172  0.00  0.00    -0.040 A 
BRANCH  14  21
ATOM     20  N   LIG    1       -4.255  -1.430  -5.344  0.00  0.00    -0.400 NA
ATOM     21  C   LIG    1       -4.563  -0.706  -4.526  0.00  0.00    +0.240 C 
ENDBRANCH  14  21
ENDBRANCH  13  19
ENDBRANCH  12  13
ENDBRANCH   1  12
BRANCH  11  22
ATOM     22  C   LIG    1        0.937  -1.279  -1.837  0.00  0.00    +0.300 C 
BRANCH  22  23
ATOM     23  C   LIG    1        1.229  -0.474  -0.569  0.00  0.00    +0.160 C 
ATOM     24  C   LIG    1        2.084   0.763  -0.920  0.00  0.00    +0.020 C 
ATOM     25  C   LIG    1        1.473   1.857  -0.002  0.00  0.00    +0.010 C 
ATOM     26  C   LIG    1       -0.017   1.432   0.010  0.00  0.00    +0.200 C 
ATOM     27  O   LIG    1        0.002  -0.004   0.002  0.00  0.00    -0.360 OA
ENDBRANCH  22  23
ENDBRANCH  11  22
TORSDOF 6
