REMARK  Name = ZINCbu0000000GEp.0
REMARK                            x       y       z     vdW  Elec       q    Type
REMARK                         _______ _______ _______ _____ _____    ______ ____
ROOT
ATOM      1  C   LIG    1        2.381   1.409  -0.013  0.00  0.00    -0.180 A 
ATOM      2  C   LIG    1        2.397   0.027  -0.020  0.00  0.00    +0.050 A 
ATOM      3  C   LIG    1        1.209  -0.679  -0.013  0.00  0.00    +0.060 A 
ATOM      4  C   LIG    1        0.002  -0.004   0.002  0.00  0.00    +0.010 A 
ATOM      5  C   LIG    1       -0.017   1.379   0.010  0.00  0.00    +0.030 A 
ATOM      6 CL   LIG    1       -1.489  -0.892   0.012  0.00  0.00    -0.020 Cl
ATOM      7  C   LIG    1        1.173   2.087   0.002  0.00  0.00    +0.150 A 
ATOM      8  F   LIG    1        1.156   3.438   0.009  0.00  0.00    -0.120 F 
ENDROOT
BRANCH   1  10
ATOM      9  C   LIG    1        3.974   2.662  -1.441  0.00  0.00    +0.110 C 
ATOM     10  C   LIG    1        3.676   2.179  -0.020  0.00  0.00    +0.240 C 
BRANCH  10  11
ATOM     11  N   LIG    1        4.766   1.307   0.439  0.00  0.00    -0.640 N 
ATOM     12  H   LIG    1        4.570   0.988   1.376  0.00  0.00    +0.440 HD
ATOM     13  H   LIG    1        5.634   1.822   0.433  0.00  0.00    +0.440 HD
ATOM     14  H   LIG    1        4.843   0.512  -0.178  0.00  0.00    +0.430 HD
ENDBRANCH  10  11
ENDBRANCH   1  10
TORSDOF 2
