REMARK  Name = ZINCpk000000pJCf.0
REMARK                            x       y       z     vdW  Elec       q    Type
REMARK                         _______ _______ _______ _____ _____    ______ ____
ROOT
ATOM      1  C   LIG    1       -0.708   1.659  -1.355  0.00  0.00    +0.480 C 
ATOM      2  N   LIG    1       -0.242   1.576  -2.617  0.00  0.00    -0.540 N 
ATOM      3  C   LIG    1       -0.892   2.321  -3.704  0.00  0.00    +0.290 C 
ATOM      4  C   LIG    1       -1.028   1.376  -4.904  0.00  0.00    -0.010 C 
ATOM      5  C   LIG    1        0.369   0.978  -5.380  0.00  0.00    +0.110 C 
ATOM      6  C   LIG    1        1.194   0.469  -4.227  0.00  0.00    -0.080 A 
ATOM      7  C   LIG    1        2.297  -0.326  -4.492  0.00  0.00    +0.030 A 
ATOM      8  C   LIG    1        3.076  -0.806  -3.457  0.00  0.00    +0.040 A 
ATOM      9  C   LIG    1        2.759  -0.496  -2.147  0.00  0.00    +0.010 A 
ATOM     10  C   LIG    1        1.658   0.295  -1.873  0.00  0.00    +0.080 A 
ATOM     11  F   LIG    1        1.346   0.598  -0.594  0.00  0.00    -0.100 F 
ATOM     12  C   LIG    1        0.876   0.782  -2.914  0.00  0.00    +0.120 A 
ATOM     13  O   LIG    1       -0.400   0.816  -0.539  0.00  0.00    -0.460 OA
ENDROOT
BRANCH   1  14
ATOM     14  C   LIG    1       -1.612   2.797  -0.958  0.00  0.00    +0.290 C 
BRANCH  14  15
ATOM     15  N   LIG    1       -1.653   2.902   0.502  0.00  0.00    -0.360 N 
ATOM     16  C   LIG    1       -1.611   1.884   1.384  0.00  0.00    +0.540 A 
ATOM     17  N   LIG    1       -1.667   2.382   2.589  0.00  0.00    -0.510 NA
ATOM     18  C   LIG    1       -1.757   3.720   2.524  0.00  0.00    +0.300 A 
ATOM     19  N   LIG    1       -1.752   4.081   1.258  0.00  0.00    -0.260 NA
BRANCH  18  20
ATOM     20  C   LIG    1       -1.844   4.606   3.646  0.00  0.00    +0.310 C 
ATOM     21  N   LIG    1       -1.913   5.309   4.535  0.00  0.00    -0.360 NA
ENDBRANCH  18  20
ENDBRANCH  14  15
BRANCH  14  23
ATOM     22  C   LIG    1       -3.898   3.766  -1.233  0.00  0.00    +0.040 C 
ATOM     23  C   LIG    1       -3.022   2.539  -1.492  0.00  0.00    +0.050 C 
ENDBRANCH  14  23
ENDBRANCH   1  14
BRANCH   4  24
ATOM     24  C   LIG    1       -1.774   2.087  -6.035  0.00  0.00    +0.180 C 
BRANCH  24  25
ATOM     25  O   LIG    1       -2.002   1.169  -7.107  0.00  0.00    -0.570 OA
ATOM     26  H   LIG    1       -2.471   1.553  -7.860  0.00  0.00    +0.390 HD
ENDBRANCH  24  25
ENDBRANCH   4  24
TORSDOF 6
