REMARK  Name = ZINCtV00001bB3R0.0
REMARK                            x       y       z     vdW  Elec       q    Type
REMARK                         _______ _______ _______ _____ _____    ______ ____
ROOT
ATOM      1  O   LIG    1       -1.041   6.346   0.896  0.00  0.00    -0.490 OA
ATOM      2  C   LIG    1        0.159   6.451   0.729  0.00  0.00    +0.590 C 
ATOM      3  N   LIG    1        0.890   5.371   0.390  0.00  0.00    -0.470 N 
ATOM      4  N   LIG    1        0.390   4.103   0.069  0.00  0.00    -0.190 NA
ATOM      5  C   LIG    1        1.289   3.289  -0.399  0.00  0.00    +0.110 C 
ATOM      6  C   LIG    1        1.231   1.899  -0.636  0.00  0.00    -0.070 C 
ATOM      7  C   LIG    1        2.477   1.109  -0.896  0.00  0.00    +0.090 C 
ATOM      8  C   LIG    1        3.731   1.949  -1.030  0.00  0.00    +0.020 C 
ATOM      9  C   LIG    1        3.716   3.205  -0.161  0.00  0.00    +0.050 C 
ATOM     10  C   LIG    1        0.032   1.271  -0.633  0.00  0.00    +0.110 C 
ATOM     11  C   LIG    1        2.563   4.095  -0.630  0.00  0.00    +0.020 C 
ATOM     12  C   LIG    1        2.366   5.311   0.290  0.00  0.00    +0.290 C 
ENDROOT
BRANCH   2  13
ATOM     13  C   LIG    1        0.816   7.764   0.899  0.00  0.00    -0.120 A 
ATOM     14  C   LIG    1        0.056   8.935   0.885  0.00  0.00    +0.090 A 
ATOM     15  C   LIG    1        0.675  10.158   1.043  0.00  0.00    +0.030 A 
ATOM     16  C   LIG    1        2.046  10.226   1.215  0.00  0.00    +0.060 A 
ATOM     17  C   LIG    1        2.807   9.069   1.230  0.00  0.00    -0.040 A 
ATOM     18 CL   LIG    1        4.526   9.164   1.447  0.00  0.00    -0.060 Cl
ATOM     19  C   LIG    1        2.199   7.838   1.079  0.00  0.00    +0.050 A 
ENDBRANCH   2  13
BRANCH  10  20
ATOM     20  C   LIG    1       -1.203   2.054  -0.600  0.00  0.00    -0.180 A 
ATOM     21  C   LIG    1       -2.298   1.771   0.166  0.00  0.00    +0.030 A 
ATOM     22  C   LIG    1       -3.337   2.662   0.023  0.00  0.00    +0.000 A 
ATOM     23  C   LIG    1       -3.120   3.656  -0.846  0.00  0.00    -0.040 A 
ATOM     24  S   LIG    1       -1.515   3.503  -1.547  0.00  0.00    +0.170 S 
ENDBRANCH  10  20
BRANCH  12  25
ATOM     25  C   LIG    1        2.991   5.074   1.640  0.00  0.00    -0.210 A 
ATOM     26  C   LIG    1        4.180   5.537   2.030  0.00  0.00    +0.020 A 
ATOM     27  C   LIG    1        4.546   5.193   3.320  0.00  0.00    +0.010 A 
ATOM     28  C   LIG    1        3.658   4.443   3.975  0.00  0.00    -0.040 A 
ATOM     29  S   LIG    1        2.267   4.138   2.942  0.00  0.00    +0.150 S 
ENDBRANCH  12  25
TORSDOF 3
