REMARK  Name = ZINCpe000000T2hs.1
REMARK                            x       y       z     vdW  Elec       q    Type
REMARK                         _______ _______ _______ _____ _____    ______ ____
ROOT
ATOM      1  C   LIG    1       -2.930  -0.126  -0.260  0.00  0.00    +0.440 C 
ATOM      2  O   LIG    1       -1.806  -0.580  -0.189  0.00  0.00    -0.490 OA
ENDROOT
BRANCH   1   3
ATOM      3  C   LIG    1       -3.137   1.266  -0.162  0.00  0.00    -0.440 A 
ATOM      4  C   LIG    1       -2.052   2.155  -0.060  0.00  0.00    +0.550 A 
ATOM      5  N   LIG    1       -2.303   3.494   0.039  0.00  0.00    -0.540 N 
ATOM      6  C   LIG    1       -3.557   3.972   0.030  0.00  0.00    +0.710 A 
ATOM      7  N   LIG    1       -4.631   3.172  -0.065  0.00  0.00    -0.560 N 
ATOM      8  C   LIG    1       -5.973   3.760  -0.062  0.00  0.00    +0.350 C 
ATOM      9  O   LIG    1       -3.727   5.172   0.117  0.00  0.00    -0.530 OA
ATOM     10  C   LIG    1       -1.180   4.428   0.152  0.00  0.00    +0.350 C 
ATOM     11  C   LIG    1       -4.491   1.834  -0.162  0.00  0.00    +0.580 A 
ATOM     12  O   LIG    1       -5.467   1.111  -0.246  0.00  0.00    -0.500 OA
BRANCH   4  13
ATOM     13  N   LIG    1       -0.774   1.689  -0.055  0.00  0.00    -0.800 N 
ATOM     14  H   LIG    1       -0.587   0.789   0.256  0.00  0.00    +0.440 HD
ATOM     15  H   LIG    1       -0.049   2.257  -0.360  0.00  0.00    +0.410 HD
ENDBRANCH   4  13
ENDBRANCH   1   3
BRANCH   1  16
ATOM     16  C   LIG    1       -4.105  -1.050  -0.454  0.00  0.00    +0.210 C 
BRANCH  16  17
ATOM     17  N   LIG    1       -3.629  -2.438  -0.526  0.00  0.00    -0.670 NA
ATOM     18  H   LIG    1       -3.171  -2.708   0.331  0.00  0.00    +0.350 HD
BRANCH  17  19
ATOM     19  C   LIG    1       -4.730  -3.356  -0.846  0.00  0.00    +0.220 C 
BRANCH  19  20
ATOM     20  C   LIG    1       -4.179  -4.587  -1.518  0.00  0.00    -0.060 A 
ATOM     21  C   LIG    1       -2.993  -5.143  -1.077  0.00  0.00    +0.020 A 
ATOM     22  C   LIG    1       -2.490  -6.275  -1.691  0.00  0.00    +0.000 A 
ATOM     23  C   LIG    1       -3.168  -6.845  -2.752  0.00  0.00    +0.000 A 
ATOM     24  C   LIG    1       -4.351  -6.286  -3.197  0.00  0.00    +0.000 A 
ATOM     25  C   LIG    1       -4.857  -5.157  -2.580  0.00  0.00    +0.000 A 
ENDBRANCH  19  20
BRANCH  19  27
ATOM     26  C   LIG    1       -6.666  -4.621   0.101  0.00  0.00    +0.030 C 
ATOM     27  C   LIG    1       -5.450  -3.758   0.443  0.00  0.00    -0.050 C 
ATOM     28  C   LIG    1       -4.494  -4.555   1.333  0.00  0.00    +0.020 C 
ENDBRANCH  19  27
ENDBRANCH  17  19
ENDBRANCH  16  17
ENDBRANCH   1  16
TORSDOF 7
