REMARK  Name = ZINCqH0000035KPg.0
REMARK                            x       y       z     vdW  Elec       q    Type
REMARK                         _______ _______ _______ _____ _____    ______ ____
ROOT
ATOM      1  N   LIG    1       -4.552   4.260   2.410  0.00  0.00    -1.060 N 
ATOM      2  H   LIG    1       -4.836   4.849   3.127  0.00  0.00    +0.430 HD
ENDROOT
BRANCH   1   5
ATOM      3  C   LIG    1       -4.635   5.196  -1.149  0.00  0.00    +0.160 A 
ATOM      4  C   LIG    1       -5.011   4.666   0.076  0.00  0.00    -0.070 A 
ATOM      5  C   LIG    1       -4.172   4.794   1.175  0.00  0.00    +0.200 A 
ATOM      6  C   LIG    1       -2.959   5.458   1.049  0.00  0.00    -0.090 A 
ATOM      7  C   LIG    1       -2.579   5.982  -0.177  0.00  0.00    +0.160 A 
ATOM      8  C   LIG    1       -3.418   5.854  -1.277  0.00  0.00    +0.040 A 
BRANCH   3  10
ATOM      9  C   LIG    1       -6.692   4.381  -2.021  0.00  0.00    +0.260 C 
ATOM     10  O   LIG    1       -5.457   5.070  -2.225  0.00  0.00    -0.300 OA
ENDBRANCH   3  10
BRANCH   7  11
ATOM     11  O   LIG    1       -1.388   6.627  -0.301  0.00  0.00    -0.300 OA
ATOM     12  C   LIG    1       -0.531   6.632   0.842  0.00  0.00    +0.250 C 
ENDBRANCH   7  11
BRANCH   8  13
ATOM     13  O   LIG    1       -3.048   6.375  -2.480  0.00  0.00    -0.310 OA
ATOM     14  C   LIG    1       -3.437   7.724  -2.750  0.00  0.00    +0.220 C 
ENDBRANCH   8  13
ENDBRANCH   1   5
BRANCH   1  15
ATOM     15  S   LIG    1       -4.517   2.622   2.650  0.00  0.00    +2.690 S 
ATOM     16  O   LIG    1       -4.922   2.404   3.995  0.00  0.00    -0.950 OA
ATOM     17  O   LIG    1       -5.178   2.039   1.536  0.00  0.00    -0.940 OA
BRANCH  15  18
ATOM     18  C   LIG    1       -2.832   2.116   2.550  0.00  0.00    -0.680 A 
ATOM     19  C   LIG    1       -2.363   1.495   1.407  0.00  0.00    +0.030 A 
ATOM     20  C   LIG    1       -1.043   1.094   1.330  0.00  0.00    -0.110 A 
ATOM     21  C   LIG    1       -0.188   1.323   2.392  0.00  0.00    +0.080 A 
ATOM     22  C   LIG    1       -0.655   1.949   3.533  0.00  0.00    -0.110 A 
ATOM     23  C   LIG    1        0.277   2.199   4.691  0.00  0.00    +0.090 C 
ATOM     24  C   LIG    1       -0.533   0.413   0.087  0.00  0.00    +0.100 C 
ATOM     25  C   LIG    1       -3.294   1.251   0.247  0.00  0.00    +0.110 C 
ATOM     26  C   LIG    1       -1.977   2.345   3.612  0.00  0.00    +0.020 A 
ATOM     27  C   LIG    1       -2.486   3.027   4.856  0.00  0.00    +0.100 C 
ENDBRANCH  15  18
ENDBRANCH   1  15
TORSDOF 6
