REMARK  Name = ZINCrH000004pehZ.0
REMARK                            x       y       z     vdW  Elec       q    Type
REMARK                         _______ _______ _______ _____ _____    ______ ____
ROOT
ATOM      1  C   LIG    1       -5.260  -3.085  -3.922  0.00  0.00    +0.200 A 
ATOM      2  C   LIG    1       -4.613  -2.689  -5.086  0.00  0.00    -0.050 A 
ATOM      3  C   LIG    1       -3.430  -1.978  -5.013  0.00  0.00    +0.070 A 
ATOM      4  C   LIG    1       -2.891  -1.655  -3.782  0.00  0.00    -0.090 A 
ATOM      5  C   LIG    1       -3.530  -2.052  -2.616  0.00  0.00    +0.150 A 
ATOM      6  C   LIG    1       -4.717  -2.765  -2.686  0.00  0.00    +0.000 A 
ENDROOT
BRANCH   1  10
ATOM      7  N   LIG    1       -7.838  -5.513  -3.206  0.00  0.00    -0.740 N 
ATOM      8  H   LIG    1       -8.440  -5.373  -3.954  0.00  0.00    +0.400 HD
ATOM      9  C   LIG    1       -6.729  -4.756  -3.082  0.00  0.00    +0.710 C 
ATOM     10  N   LIG    1       -6.457  -3.805  -3.997  0.00  0.00    -0.680 N 
ATOM     11  H   LIG    1       -7.092  -3.619  -4.706  0.00  0.00    +0.410 HD
ATOM     12  O   LIG    1       -5.975  -4.932  -2.145  0.00  0.00    -0.560 OA
BRANCH   7  14
ATOM     13  C   LIG    1       -7.392  -7.835  -2.578  0.00  0.00    +0.040 C 
ATOM     14  C   LIG    1       -8.134  -6.548  -2.212  0.00  0.00    +0.250 C 
BRANCH  14  15
ATOM     15  C   LIG    1       -9.640  -6.816  -2.188  0.00  0.00    +0.310 C 
BRANCH  15  16
ATOM     16  N   LIG    1      -10.342  -5.618  -1.722  0.00  0.00    -0.460 N 
ATOM     17  C   LIG    1      -10.656  -5.314  -0.425  0.00  0.00    +0.120 A 
ATOM     18  C   LIG    1      -11.293  -4.127  -0.446  0.00  0.00    +0.140 A 
ATOM     19  N   LIG    1      -11.373  -3.723  -1.722  0.00  0.00    -0.490 NA
ATOM     20  C   LIG    1      -10.806  -4.611  -2.492  0.00  0.00    +0.380 A 
ENDBRANCH  15  16
ENDBRANCH  14  15
ENDBRANCH   7  14
ENDBRANCH   1  10
BRANCH   5  21
ATOM     21  O   LIG    1       -2.997  -1.737  -1.407  0.00  0.00    -0.310 OA
BRANCH  21  22
ATOM     22  C   LIG    1       -1.772  -1.000  -1.410  0.00  0.00    +0.190 C 
BRANCH  22  23
ATOM     23  C   LIG    1       -1.329  -0.741   0.031  0.00  0.00    +0.100 C 
BRANCH  23  24
ATOM     24  C   LIG    1       -0.037   0.036   0.027  0.00  0.00    -0.090 A 
ATOM     25  C   LIG    1       -0.062   1.418   0.031  0.00  0.00    +0.010 A 
ATOM     26  C   LIG    1        1.122   2.131   0.028  0.00  0.00    +0.000 A 
ATOM     27  C   LIG    1        2.332   1.461   0.020  0.00  0.00    +0.000 A 
ATOM     28  C   LIG    1        2.357   0.079   0.017  0.00  0.00    +0.000 A 
ATOM     29  C   LIG    1        1.172  -0.634   0.021  0.00  0.00    +0.010 A 
ENDBRANCH  23  24
ENDBRANCH  22  23
ENDBRANCH  21  22
ENDBRANCH   5  21
TORSDOF 8
