REMARK  Name = ZINCpe00000MJIh2.0
REMARK                            x       y       z     vdW  Elec       q    Type
REMARK                         _______ _______ _______ _____ _____    ______ ____
ROOT
ATOM      1  C   LIG    1        7.731  -2.183   3.284  0.00  0.00    +0.240 C 
ATOM      2  C   LIG    1        7.879  -1.462   1.941  0.00  0.00    +0.030 C 
ATOM      3  C   LIG    1        6.826  -0.356   1.843  0.00  0.00    +0.180 C 
ATOM      4  N   LIG    1        5.485  -0.943   1.958  0.00  0.00    -0.520 NA
ATOM      5  C   LIG    1        5.304  -1.600   3.259  0.00  0.00    +0.180 C 
ATOM      6  C   LIG    1        6.311  -2.743   3.400  0.00  0.00    +0.030 C 
ENDROOT
BRANCH   1   8
ATOM      7  C   LIG    1        9.626  -3.295   4.338  0.00  0.00    +0.550 C 
ATOM      8  N   LIG    1        8.699  -3.280   3.360  0.00  0.00    -0.610 N 
ATOM      9  C   LIG    1        8.658  -4.362   2.372  0.00  0.00    +0.280 C 
ATOM     10  O   LIG    1        9.660  -2.397   5.158  0.00  0.00    -0.550 OA
BRANCH   7  12
ATOM     11  C   LIG    1       11.522  -4.406   5.394  0.00  0.00    +0.110 C 
ATOM     12  C   LIG    1       10.592  -4.391   4.413  0.00  0.00    -0.090 C 
BRANCH  11  15
ATOM     13  C   LIG    1       14.401  -6.646   6.515  0.00  0.00    +0.080 C 
ATOM     14  C   LIG    1       13.406  -5.517   6.437  0.00  0.00    +0.010 C 
ATOM     15  C   LIG    1       12.488  -5.502   5.469  0.00  0.00    -0.040 C 
ENDBRANCH  11  15
ENDBRANCH   7  12
ENDBRANCH   1   8
BRANCH   4  16
ATOM     16  C   LIG    1        4.445   0.069   1.730  0.00  0.00    +0.210 C 
BRANCH  16  17
ATOM     17  C   LIG    1        3.103  -0.606   1.613  0.00  0.00    +0.520 C 
ATOM     18  N   LIG    1        1.995   0.130   1.400  0.00  0.00    -0.620 N 
ATOM     19  C   LIG    1        0.675  -0.509   1.282  0.00  0.00    +0.300 C 
ATOM     20  C   LIG    1        0.002  -0.004   0.002  0.00  0.00    +0.170 C 
ATOM     21  N   LIG    1       -0.018   1.465   0.010  0.00  0.00    -0.540 NA
ATOM     22  C   LIG    1        1.344   2.016   0.000  0.00  0.00    +0.170 C 
ATOM     23  C   LIG    1       -0.806   1.987  -1.115  0.00  0.00    +0.190 C 
ATOM     24  C   LIG    1        2.072   1.594   1.280  0.00  0.00    +0.280 C 
ATOM     25  O   LIG    1        3.021  -1.813   1.710  0.00  0.00    -0.520 OA
ENDBRANCH  16  17
ENDBRANCH   4  16
TORSDOF 5
