REMARK  Name = ZINCrg000000rQDl.0
REMARK                            x       y       z     vdW  Elec       q    Type
REMARK                         _______ _______ _______ _____ _____    ______ ____
ROOT
ATOM      1  N   LIG    1       -6.159   1.570  -5.568  0.00  0.00    -0.670 N 
ATOM      2  H   LIG    1       -6.071   2.410  -6.044  0.00  0.00    +0.420 HD
ATOM      3  C   LIG    1       -5.229   1.208  -4.662  0.00  0.00    +0.500 C 
ATOM      4  O   LIG    1       -5.381   0.200  -4.006  0.00  0.00    -0.510 OA
ENDROOT
BRANCH   1  11
ATOM      5  C   LIG    1      -11.953  -3.547  -5.931  0.00  0.00    +0.100 C 
ATOM      6  C   LIG    1      -10.559  -2.933  -5.784  0.00  0.00    +0.190 C 
ATOM      7  O   LIG    1      -10.480  -1.739  -6.567  0.00  0.00    -0.300 OA
ATOM      8  C   LIG    1       -9.418  -0.922  -6.331  0.00  0.00    +0.070 A 
ATOM      9  C   LIG    1       -8.857  -0.182  -7.357  0.00  0.00    +0.060 A 
ATOM     10  C   LIG    1       -7.781   0.648  -7.102  0.00  0.00    +0.010 A 
ATOM     11  C   LIG    1       -7.254   0.733  -5.820  0.00  0.00    +0.150 A 
ATOM     12  C   LIG    1       -7.814  -0.008  -4.787  0.00  0.00    +0.030 A 
ATOM     13  C   LIG    1       -8.895  -0.834  -5.042  0.00  0.00    +0.110 A 
ATOM     14  N   LIG    1       -9.477  -1.588  -4.013  0.00  0.00    -0.660 N 
ATOM     15  H   LIG    1       -9.287  -1.383  -3.084  0.00  0.00    +0.420 HD
ATOM     16  C   LIG    1      -10.306  -2.605  -4.334  0.00  0.00    +0.490 C 
ATOM     17  O   LIG    1      -10.843  -3.252  -3.461  0.00  0.00    -0.500 OA
ENDBRANCH   1  11
BRANCH   3  18
ATOM     18  C   LIG    1       -3.999   2.057  -4.466  0.00  0.00    +0.370 C 
BRANCH  18  19
ATOM     19  N   LIG    1       -3.150   1.454  -3.435  0.00  0.00    -0.560 N 
ATOM     20  C   LIG    1       -2.186   0.561  -3.683  0.00  0.00    +0.710 C 
ATOM     21  N   LIG    1       -1.552   0.164  -2.564  0.00  0.00    -0.710 N 
ATOM     22  H   LIG    1       -0.825  -0.475  -2.506  0.00  0.00    +0.440 HD
ATOM     23  C   LIG    1       -2.180   0.888  -1.446  0.00  0.00    +0.160 C 
ATOM     24  C   LIG    1       -2.814  -0.093  -0.457  0.00  0.00    +0.090 C 
ATOM     25  O   LIG    1       -1.913   0.152  -4.795  0.00  0.00    -0.540 OA
ATOM     26  C   LIG    1       -3.243   1.733  -2.119  0.00  0.00    +0.540 C 
ATOM     27  O   LIG    1       -4.017   2.499  -1.586  0.00  0.00    -0.450 OA
BRANCH  23  28
ATOM     28  C   LIG    1       -1.155   1.777  -0.737  0.00  0.00    -0.050 C 
ATOM     29  C   LIG    1       -0.015   1.083   0.011  0.00  0.00    +0.040 C 
ATOM     30  C   LIG    1       -1.142   1.760   0.793  0.00  0.00    +0.050 C 
ENDBRANCH  23  28
ENDBRANCH  18  19
ENDBRANCH   3  18
TORSDOF 4
