REMARK  Name = ZINCqH00000056qZ.0
REMARK                            x       y       z     vdW  Elec       q    Type
REMARK                         _______ _______ _______ _____ _____    ______ ____
ROOT
ATOM      1  C   LIG    1       -4.885   1.048   0.032  0.00  0.00    +0.270 A 
ATOM      2  N   LIG    1       -5.011  -0.242   0.020  0.00  0.00    -0.470 NA
ATOM      3  C   LIG    1       -6.241  -0.722   0.028  0.00  0.00    +0.260 A 
ATOM      4  C   LIG    1       -7.199   0.207   0.037  0.00  0.00    -0.240 A 
ATOM      5  S   LIG    1       -6.426   1.790   0.043  0.00  0.00    +0.140 S 
ENDROOT
BRANCH   1   7
ATOM      6  C   LIG    1       -2.515   1.042   0.020  0.00  0.00    +0.560 C 
ATOM      7  N   LIG    1       -3.675   1.729   0.029  0.00  0.00    -0.630 N 
ATOM      8  H   LIG    1       -3.664   2.699   0.034  0.00  0.00    +0.420 HD
ATOM      9  O   LIG    1       -2.529  -0.173   0.014  0.00  0.00    -0.450 OA
BRANCH   6  12
ATOM     10  C   LIG    1        1.175   1.799   0.001  0.00  0.00    +0.400 A 
ATOM     11  C   LIG    1       -0.013   1.076   0.008  0.00  0.00    -0.030 A 
ATOM     12  C   LIG    1       -1.224   1.768   0.017  0.00  0.00    -0.040 A 
ATOM     13  C   LIG    1       -1.187   3.168   0.030  0.00  0.00    -0.080 A 
ATOM     14  C   LIG    1        0.035   3.808   0.021  0.00  0.00    +0.330 A 
ATOM     15  N   LIG    1        1.162   3.122   0.007  0.00  0.00    -0.530 NA
BRANCH  10  17
ATOM     16  C   LIG    1        2.417  -0.336  -0.133  0.00  0.00    +0.300 C 
ATOM     17  N   LIG    1        2.391   1.124  -0.015  0.00  0.00    -0.610 N 
ATOM     18  C   LIG    1        3.646   1.873   0.088  0.00  0.00    +0.300 C 
ENDBRANCH  10  17
ENDBRANCH   6  12
ENDBRANCH   1   7
BRANCH   4  19
ATOM     19  C   LIG    1       -8.683  -0.053   0.042  0.00  0.00    +0.210 C 
BRANCH  19  20
ATOM     20  C   LIG    1       -9.172  -0.148   1.465  0.00  0.00    -0.130 A 
ATOM     21  C   LIG    1       -9.793   0.936   2.056  0.00  0.00    +0.080 A 
ATOM     22  C   LIG    1      -10.242   0.850   3.360  0.00  0.00    -0.010 A 
ATOM     23  C   LIG    1      -10.071  -0.323   4.076  0.00  0.00    +0.130 A 
ATOM     24  C   LIG    1       -9.449  -1.409   3.485  0.00  0.00    -0.040 A 
ATOM     25  F   LIG    1      -10.510  -0.406   5.351  0.00  0.00    -0.130 F 
ATOM     26  C   LIG    1       -9.004  -1.324   2.177  0.00  0.00    +0.140 A 
ATOM     27  F   LIG    1       -8.402  -2.385   1.598  0.00  0.00    -0.130 F 
ENDBRANCH  19  20
ENDBRANCH   4  19
TORSDOF 5
