REMARK  Name = ZINCrD000000CMUR.0
REMARK                            x       y       z     vdW  Elec       q    Type
REMARK                         _______ _______ _______ _____ _____    ______ ____
ROOT
ATOM      1  C   LIG    1        3.562   3.478  -0.114  0.00  0.00    +0.530 C 
ATOM      2  N   LIG    1        3.581   2.134  -0.020  0.00  0.00    -0.660 N 
ATOM      3  H   LIG    1        4.427   1.663   0.036  0.00  0.00    +0.420 HD
ATOM      4  O   LIG    1        2.505   4.072  -0.101  0.00  0.00    -0.480 OA
ENDROOT
BRANCH   1   9
ATOM      5  O   LIG    1        4.287   7.146  -2.053  0.00  0.00    -0.480 OA
ATOM      6  C   LIG    1        4.630   6.060  -1.636  0.00  0.00    +0.550 C 
ATOM      7  C   LIG    1        5.089   4.908  -2.501  0.00  0.00    +0.110 C 
ATOM      8  C   LIG    1        5.654   3.860  -1.491  0.00  0.00    +0.120 C 
ATOM      9  C   LIG    1        4.855   4.243  -0.236  0.00  0.00    +0.120 C 
ATOM     10  S   LIG    1        5.893   4.122   1.265  0.00  0.00    -0.070 S 
ATOM     11  C   LIG    1        5.272   5.628   1.978  0.00  0.00    -0.120 A 
ATOM     12  C   LIG    1        5.324   6.130   3.262  0.00  0.00    +0.090 A 
ATOM     13  C   LIG    1        4.746   7.355   3.547  0.00  0.00    +0.020 A 
ATOM     14  C   LIG    1        4.122   8.060   2.535  0.00  0.00    +0.060 A 
ATOM     15  C   LIG    1        4.069   7.560   1.253  0.00  0.00    +0.020 A 
ATOM     16  C   LIG    1        4.646   6.322   0.940  0.00  0.00    +0.160 A 
ATOM     17  N   LIG    1        4.655   5.705  -0.327  0.00  0.00    -0.550 N 
ENDBRANCH   1   9
BRANCH   2  18
ATOM     18  C   LIG    1        2.381   1.418  -0.004  0.00  0.00    +0.170 A 
ATOM     19  C   LIG    1        2.309   0.170  -0.614  0.00  0.00    +0.000 A 
ATOM     20  C   LIG    1        1.128  -0.538  -0.600  0.00  0.00    +0.110 A 
ATOM     21  C   LIG    1        0.001  -0.003   0.028  0.00  0.00    -0.040 A 
ATOM     22  C   LIG    1        0.077   1.250   0.640  0.00  0.00    +0.080 A 
ATOM     23  C   LIG    1        1.262   1.954   0.623  0.00  0.00    +0.030 A 
BRANCH  21  24
ATOM     24  C   LIG    1       -1.268  -0.759   0.045  0.00  0.00    +0.220 A 
ATOM     25  N   LIG    1       -1.477  -1.941  -0.489  0.00  0.00    -0.280 NA
ATOM     26  N   LIG    1       -2.697  -2.290  -0.281  0.00  0.00    -0.290 NA
ATOM     27  C   LIG    1       -3.311  -1.354   0.388  0.00  0.00    +0.420 A 
ATOM     28  O   LIG    1       -2.425  -0.368   0.615  0.00  0.00    -0.220 OA
ENDBRANCH  21  24
ENDBRANCH   2  18
TORSDOF 3
