REMARK  Name = ZINCvU0000000BOI.0
REMARK                            x       y       z     vdW  Elec       q    Type
REMARK                         _______ _______ _______ _____ _____    ______ ____
ROOT
ATOM      1  C   LIG    1        3.656  -4.851  -0.826  0.00  0.00    -0.010 C 
ATOM      2  C   LIG    1        4.921  -3.998  -0.942  0.00  0.00    +0.060 C 
ATOM      3  C   LIG    1        4.911  -2.926   0.152  0.00  0.00    +0.280 C 
ATOM      4  N   LIG    1        3.659  -2.164   0.057  0.00  0.00    -0.610 N 
ATOM      5  C   LIG    1        2.384  -2.895   0.073  0.00  0.00    +0.270 C 
ATOM      6  C   LIG    1        3.678  -0.820  -0.038  0.00  0.00    +0.570 C 
ATOM      7  O   LIG    1        4.737  -0.233  -0.150  0.00  0.00    -0.530 OA
ATOM      8  C   LIG    1        2.423  -3.968  -1.026  0.00  0.00    +0.030 C 
ENDROOT
BRANCH   6   9
ATOM      9  C   LIG    1        2.414  -0.060  -0.005  0.00  0.00    -0.120 A 
ATOM     10  C   LIG    1        1.514  -0.227   1.038  0.00  0.00    +0.050 A 
ATOM     11  C   LIG    1        0.325   0.490   1.066  0.00  0.00    +0.000 A 
ATOM     12  C   LIG    1       -0.004   1.374   0.086  0.00  0.00    +0.050 A 
ATOM     13  C   LIG    1        0.860   1.593  -1.001  0.00  0.00    -0.060 A 
ATOM     14  C   LIG    1        0.535   2.503  -2.021  0.00  0.00    +0.030 A 
ATOM     15  C   LIG    1        1.398   2.688  -3.058  0.00  0.00    +0.020 A 
ATOM     16  C   LIG    1        2.600   1.989  -3.124  0.00  0.00    +0.020 A 
ATOM     17  C   LIG    1        2.948   1.100  -2.151  0.00  0.00    +0.030 A 
ATOM     18  C   LIG    1        2.084   0.884  -1.071  0.00  0.00    -0.020 A 
ENDBRANCH   6   9
BRANCH   1  21
ATOM     19  N   LIG    1        2.660  -6.805  -1.969  0.00  0.00    -0.720 N 
ATOM     20  H   LIG    1        1.912  -6.744  -1.355  0.00  0.00    +0.400 HD
ATOM     21  C   LIG    1        3.679  -5.928  -1.880  0.00  0.00    +0.520 C 
ATOM     22  O   LIG    1        4.614  -6.005  -2.648  0.00  0.00    -0.530 OA
BRANCH  19  23
ATOM     23  C   LIG    1        2.682  -7.852  -2.993  0.00  0.00    +0.290 C 
BRANCH  23  24
ATOM     24  C   LIG    1        1.837  -9.015  -2.541  0.00  0.00    -0.090 A 
ATOM     25  C   LIG    1        0.640  -8.787  -1.888  0.00  0.00    +0.000 A 
ATOM     26  C   LIG    1       -0.138  -9.854  -1.477  0.00  0.00    +0.000 A 
ATOM     27  C   LIG    1        0.286 -11.149  -1.712  0.00  0.00    +0.000 A 
ATOM     28  C   LIG    1        1.485 -11.377  -2.360  0.00  0.00    +0.020 A 
ATOM     29  C   LIG    1        2.261 -10.310  -2.775  0.00  0.00    +0.010 A 
ENDBRANCH  23  24
BRANCH  23  30
ATOM     30  C   LIG    1        2.123  -7.295  -4.304  0.00  0.00    +0.010 C 
BRANCH  30  32
ATOM     31  C   LIG    1        2.493  -5.640  -6.139  0.00  0.00    +0.000 C 
ATOM     32  C   LIG    1        3.051  -6.197  -4.828  0.00  0.00    +0.010 C 
ENDBRANCH  30  32
ENDBRANCH  23  30
ENDBRANCH  19  23
ENDBRANCH   1  21
TORSDOF 6
