REMARK  Name = ZINCpk00000y4ZmY.0
REMARK                            x       y       z     vdW  Elec       q    Type
REMARK                         _______ _______ _______ _____ _____    ______ ____
ROOT
ATOM      1  C   LIG    1       -4.697   4.900  -1.371  0.00  0.00    +0.520 C 
ATOM      2  N   LIG    1       -4.800   3.561  -1.258  0.00  0.00    -0.610 N 
ATOM      3  C   LIG    1       -6.117   2.916  -1.173  0.00  0.00    +0.260 C 
ATOM      4  C   LIG    1       -6.151   2.026   0.073  0.00  0.00    +0.030 C 
ATOM      5  C   LIG    1       -4.973   1.048   0.030  0.00  0.00    +0.040 C 
ATOM      6  C   LIG    1       -3.658   1.831   0.029  0.00  0.00    +0.140 C 
ATOM      7  C   LIG    1       -3.597   2.719  -1.218  0.00  0.00    +0.260 C 
ATOM      8  O   LIG    1       -3.604   5.421  -1.440  0.00  0.00    -0.520 OA
ENDROOT
BRANCH   6   9
ATOM      9  O   LIG    1       -3.589   2.647   1.200  0.00  0.00    -0.550 OA
ATOM     10  H   LIG    1       -2.780   3.173   1.265  0.00  0.00    +0.390 HD
ENDBRANCH   6   9
BRANCH   1  11
ATOM     11  C   LIG    1       -5.941   5.750  -1.412  0.00  0.00    +0.140 C 
BRANCH  11  14
ATOM     12  N   LIG    1       -5.052   9.304  -1.038  0.00  0.00    -0.480 N 
ATOM     13  C   LIG    1       -5.413   8.082  -0.538  0.00  0.00    +0.230 A 
ATOM     14  C   LIG    1       -5.553   7.201  -1.541  0.00  0.00    -0.160 A 
ATOM     15  C   LIG    1       -5.252   7.915  -2.784  0.00  0.00    -0.090 A 
ATOM     16  C   LIG    1       -5.233   7.552  -4.132  0.00  0.00    +0.050 A 
ATOM     17  C   LIG    1       -4.908   8.481  -5.080  0.00  0.00    -0.030 A 
ATOM     18  C   LIG    1       -4.602   9.784  -4.715  0.00  0.00    +0.020 A 
ATOM     19  C   LIG    1       -4.620  10.166  -3.391  0.00  0.00    -0.010 A 
ATOM     20  C   LIG    1       -4.949   9.237  -2.409  0.00  0.00    +0.100 A 
BRANCH  12  22
ATOM     21  C   LIG    1       -6.088  11.346  -0.179  0.00  0.00    +0.020 C 
ATOM     22  C   LIG    1       -4.812  10.504  -0.233  0.00  0.00    +0.290 C 
ENDBRANCH  12  22
ENDBRANCH  11  14
ENDBRANCH   1  11
BRANCH   6  23
ATOM     23  C   LIG    1       -2.482   0.853   0.018  0.00  0.00    +0.050 C 
BRANCH  23  24
ATOM     24  C   LIG    1       -1.187   1.624   0.017  0.00  0.00    +0.520 C 
ATOM     25  O   LIG    1       -1.204   2.837   0.023  0.00  0.00    -0.540 OA
ATOM     26  N   LIG    1       -0.011   0.966   0.007  0.00  0.00    -0.850 N 
ATOM     27  H   LIG    1        0.822   1.462   0.002  0.00  0.00    +0.400 HD
ATOM     28  H   LIG    1        0.002  -0.004   0.002  0.00  0.00    +0.400 HD
ENDBRANCH  23  24
ENDBRANCH   6  23
TORSDOF 6
