REMARK  Name = ZINCvU00000008gZ.0
REMARK                            x       y       z     vdW  Elec       q    Type
REMARK                         _______ _______ _______ _____ _____    ______ ____
ROOT
ATOM      1  C   LIG    1        0.274   3.936   4.439  0.00  0.00    +0.150 A 
ATOM      2  N   LIG    1       -0.484   3.928   3.367  0.00  0.00    -0.290 NA
ATOM      3  N   LIG    1        0.249   3.938   2.312  0.00  0.00    -0.250 NA
ATOM      4  C   LIG    1        1.510   3.953   2.641  0.00  0.00    +0.200 A 
ATOM      5  N   LIG    1        1.573   3.947   4.010  0.00  0.00    -0.420 N 
ENDROOT
BRANCH   5   6
ATOM      6  C   LIG    1        2.728   3.953   4.805  0.00  0.00    +0.110 A 
ATOM      7  C   LIG    1        3.595   2.869   4.780  0.00  0.00    +0.050 A 
ATOM      8  C   LIG    1        4.735   2.879   5.560  0.00  0.00    +0.060 A 
ATOM      9  C   LIG    1        5.008   3.964   6.374  0.00  0.00    -0.020 A 
ATOM     10  C   LIG    1        4.142   5.044   6.405  0.00  0.00    +0.060 A 
ATOM     11 CL   LIG    1        6.438   3.972   7.358  0.00  0.00    -0.050 Cl
ATOM     12  C   LIG    1        3.003   5.040   5.623  0.00  0.00    +0.060 A 
ENDBRANCH   5   6
BRANCH   4  13
ATOM     13  C   LIG    1        2.681   3.968   1.693  0.00  0.00    +0.230 C 
ATOM     14  C   LIG    1        2.825   5.364   1.084  0.00  0.00    +0.070 C 
BRANCH  13  15
ATOM     15  N   LIG    1        2.457   2.987   0.623  0.00  0.00    -0.530 NA
ATOM     16  C   LIG    1        2.220   1.647   1.178  0.00  0.00    +0.190 C 
ATOM     17  C   LIG    1        3.581   2.974  -0.323  0.00  0.00    +0.210 C 
ENDBRANCH  13  15
ENDBRANCH   4  13
BRANCH   1  18
ATOM     18  S   LIG    1       -0.277   3.929   6.112  0.00  0.00    +0.090 S 
BRANCH  18  19
ATOM     19  C   LIG    1       -2.068   3.908   5.854  0.00  0.00    +0.110 C 
BRANCH  19  22
ATOM     20  N   LIG    1       -4.115   3.882   7.242  0.00  0.00    -0.670 N 
ATOM     21  H   LIG    1       -4.634   3.950   6.426  0.00  0.00    +0.410 HD
ATOM     22  C   LIG    1       -2.769   3.898   7.188  0.00  0.00    +0.540 C 
ATOM     23  O   LIG    1       -2.120   3.905   8.213  0.00  0.00    -0.500 OA
BRANCH  20  28
ATOM     24  C   LIG    1       -6.748   3.417  12.247  0.00  0.00    +0.100 C 
ATOM     25  C   LIG    1       -6.049   3.540  10.918  0.00  0.00    -0.060 A 
ATOM     26  C   LIG    1       -5.810   4.790  10.377  0.00  0.00    +0.020 A 
ATOM     27  C   LIG    1       -5.169   4.906   9.159  0.00  0.00    -0.060 A 
ATOM     28  C   LIG    1       -4.765   3.767   8.477  0.00  0.00    +0.130 A 
ATOM     29  C   LIG    1       -5.011   2.512   9.020  0.00  0.00    -0.020 A 
ATOM     30 CL   LIG    1       -4.514   1.083   8.168  0.00  0.00    -0.060 Cl
ATOM     31  C   LIG    1       -4.909   6.269   8.571  0.00  0.00    +0.110 C 
ATOM     32  C   LIG    1       -5.648   2.402  10.241  0.00  0.00    +0.030 A 
ENDBRANCH  20  28
ENDBRANCH  19  22
ENDBRANCH  18  19
ENDBRANCH   1  18
TORSDOF 7
