REMARK  Name = ZINCqH00000371Zq.0
REMARK                            x       y       z     vdW  Elec       q    Type
REMARK                         _______ _______ _______ _____ _____    ______ ____
ROOT
ATOM      1  N   LIG    1        1.024  -1.935   0.211  0.00  0.00    -0.460 N 
ATOM      2  C   LIG    1        1.163  -0.567   0.120  0.00  0.00    +0.120 A 
ATOM      3  C   LIG    1        2.251   0.291   0.236  0.00  0.00    -0.020 A 
ATOM      4  C   LIG    1        2.071   1.649   0.091  0.00  0.00    +0.020 A 
ATOM      5  C   LIG    1        0.812   2.173  -0.170  0.00  0.00    -0.030 A 
ATOM      6  C   LIG    1       -0.272   1.350  -0.287  0.00  0.00    +0.050 A 
ATOM      7  C   LIG    1       -0.113  -0.031  -0.144  0.00  0.00    -0.100 A 
ATOM      8  C   LIG    1       -1.030  -1.168  -0.206  0.00  0.00    -0.020 A 
ATOM      9  C   LIG    1       -0.291  -2.284   0.014  0.00  0.00    +0.120 A 
ENDROOT
BRANCH   9  10
ATOM     10  C   LIG    1       -0.820  -3.665   0.038  0.00  0.00    -0.030 A 
ATOM     11  C   LIG    1       -2.000  -3.976  -0.639  0.00  0.00    +0.030 A 
ATOM     12  C   LIG    1       -2.486  -5.267  -0.616  0.00  0.00    +0.020 A 
ATOM     13  C   LIG    1       -1.810  -6.251   0.085  0.00  0.00    +0.020 A 
ATOM     14  C   LIG    1       -0.643  -5.948   0.762  0.00  0.00    +0.010 A 
ATOM     15  C   LIG    1       -0.144  -4.662   0.743  0.00  0.00    +0.000 A 
ENDBRANCH   9  10
BRANCH   1  16
ATOM     16  C   LIG    1        2.115  -2.876   0.478  0.00  0.00    +0.320 C 
BRANCH  16  19
ATOM     17  N   LIG    1        3.289  -3.801   2.449  0.00  0.00    -0.720 N 
ATOM     18  H   LIG    1        3.841  -4.316   1.839  0.00  0.00    +0.400 HD
ATOM     19  C   LIG    1        2.330  -2.987   1.965  0.00  0.00    +0.490 C 
ATOM     20  O   LIG    1        1.640  -2.343   2.727  0.00  0.00    -0.500 OA
BRANCH  17  26
ATOM     21  C   LIG    1        4.384  -6.066   2.953  0.00  0.00    +0.020 C 
ATOM     22  C   LIG    1        4.155  -5.259   4.233  0.00  0.00    +0.120 C 
ATOM     23  C   LIG    1        5.507  -4.934   4.903  0.00  0.00    +0.010 C 
ATOM     24  C   LIG    1        5.316  -3.505   5.469  0.00  0.00    +0.020 C 
ATOM     25  C   LIG    1        4.472  -2.812   4.371  0.00  0.00    +0.020 C 
ATOM     26  C   LIG    1        3.498  -3.909   3.894  0.00  0.00    +0.250 C 
BRANCH  22  27
ATOM     27  O   LIG    1        3.325  -5.995   5.134  0.00  0.00    -0.550 OA
ATOM     28  H   LIG    1        3.686  -6.857   5.386  0.00  0.00    +0.380 HD
ENDBRANCH  22  27
ENDBRANCH  17  26
ENDBRANCH  16  19
ENDBRANCH   1  16
TORSDOF 5
