REMARK  Name = ZINCpk00000xI6UE.0
REMARK                            x       y       z     vdW  Elec       q    Type
REMARK                         _______ _______ _______ _____ _____    ______ ____
ROOT
ATOM      1  N   LIG    1       -1.164  -0.730   2.004  0.00  0.00    -1.120 NA
ATOM      2  S   LIG    1        0.082  -1.010   1.229  0.00  0.00    +2.590 S 
ATOM      3  C   LIG    1        1.517  -0.912   2.266  0.00  0.00    -0.590 A 
ATOM      4  C   LIG    1        2.103   0.076   3.001  0.00  0.00    +0.170 A 
ATOM      5  C   LIG    1        3.259  -0.197   3.721  0.00  0.00    +0.060 A 
ATOM      6  C   LIG    1        3.799  -1.470   3.683  0.00  0.00    +0.070 A 
ATOM      7  C   LIG    1        3.209  -2.469   2.943  0.00  0.00    +0.120 A 
ATOM      8  C   LIG    1        2.040  -2.212   2.207  0.00  0.00    -0.130 A 
ATOM      9  C   LIG    1        1.241  -3.109   1.361  0.00  0.00    +0.530 C 
ATOM     10  O   LIG    1        1.561  -4.273   1.213  0.00  0.00    -0.450 OA
ATOM     11  O   LIG    1        0.194  -0.138   0.113  0.00  0.00    -0.910 OA
ATOM     12  N   LIG    1        0.150  -2.615   0.752  0.00  0.00    -0.870 N 
ATOM     13  C   LIG    1       -0.778  -3.325  -0.131  0.00  0.00    +0.400 C 
ENDROOT
BRANCH   1  14
ATOM     14  C   LIG    1       -1.444   0.507   2.383  0.00  0.00    +0.560 C 
ATOM     15  O   LIG    1       -0.737   1.428   2.023  0.00  0.00    -0.550 OA
BRANCH  14  20
ATOM     16  C   LIG    1       -6.237   2.717   3.662  0.00  0.00    +0.550 C 
ATOM     17  N   LIG    1       -5.137   1.962   3.854  0.00  0.00    -0.610 N 
ATOM     18  C   LIG    1       -3.933   2.537   4.469  0.00  0.00    +0.270 C 
ATOM     19  C   LIG    1       -2.736   2.274   3.549  0.00  0.00    +0.050 C 
ATOM     20  C   LIG    1       -2.640   0.774   3.260  0.00  0.00    +0.040 C 
ATOM     21  C   LIG    1       -3.911   0.308   2.546  0.00  0.00    +0.040 C 
ATOM     22  C   LIG    1       -5.120   0.549   3.454  0.00  0.00    +0.280 C 
ATOM     23  O   LIG    1       -7.193   2.259   3.067  0.00  0.00    -0.540 OA
BRANCH  16  25
ATOM     24  C   LIG    1       -7.399   4.808   4.069  0.00  0.00    +0.140 C 
ATOM     25  C   LIG    1       -6.280   4.097   4.171  0.00  0.00    -0.090 C 
ENDBRANCH  16  25
ENDBRANCH  14  20
ENDBRANCH   1  14
TORSDOF 3
