REMARK  Name = ZINCrD000000g7YS.0
REMARK                            x       y       z     vdW  Elec       q    Type
REMARK                         _______ _______ _______ _____ _____    ______ ____
ROOT
ATOM      1  C   LIG    1       -1.267  -0.768  -0.428  0.00  0.00    +0.540 C 
ATOM      2  N   LIG    1       -1.524  -2.024  -0.011  0.00  0.00    -0.610 N 
ATOM      3  C   LIG    1       -0.514  -2.798   0.727  0.00  0.00    +0.240 C 
ATOM      4  C   LIG    1       -0.367  -4.167   0.062  0.00  0.00    +0.220 C 
ATOM      5  O   LIG    1       -1.657  -4.769  -0.070  0.00  0.00    -0.370 OA
ATOM      6  C   LIG    1       -2.560  -4.040  -0.905  0.00  0.00    +0.190 C 
ATOM      7  C   LIG    1       -2.821  -2.663  -0.285  0.00  0.00    +0.270 C 
ATOM      8  O   LIG    1       -2.111  -0.148  -1.039  0.00  0.00    -0.510 OA
ENDROOT
BRANCH   1  15
ATOM      9  C   LIG    1       -1.306   1.196   1.391  0.00  0.00    +0.650 C 
ATOM     10  N   LIG    1       -0.107   0.968   0.819  0.00  0.00    -0.590 N 
ATOM     11  C   LIG    1        1.047   1.821   1.134  0.00  0.00    +0.280 C 
ATOM     12  C   LIG    1        1.634   2.358  -0.175  0.00  0.00    +0.010 C 
ATOM     13  C   LIG    1        1.954   1.186  -1.105  0.00  0.00    +0.020 C 
ATOM     14  C   LIG    1        0.667   0.424  -1.430  0.00  0.00    +0.040 C 
ATOM     15  C   LIG    1        0.069  -0.135  -0.136  0.00  0.00    +0.240 C 
ATOM     16  O   LIG    1       -2.272   0.535   1.063  0.00  0.00    -0.530 OA
BRANCH   9  17
ATOM     17  O   LIG    1       -1.434   2.155   2.327  0.00  0.00    -0.360 OA
BRANCH  17  19
ATOM     18  C   LIG    1       -3.209   1.050   3.575  0.00  0.00    +0.040 C 
ATOM     19  C   LIG    1       -2.754   2.346   2.901  0.00  0.00    +0.140 C 
ATOM     20  C   LIG    1       -3.742   2.717   1.793  0.00  0.00    +0.040 C 
ATOM     21  C   LIG    1       -2.703   3.470   3.937  0.00  0.00    +0.080 C 
ENDBRANCH  17  19
ENDBRANCH   9  17
ENDBRANCH   1  15
BRANCH   6  22
ATOM     22  C   LIG    1       -3.860  -4.794  -1.020  0.00  0.00    -0.090 A 
ATOM     23  C   LIG    1       -4.386  -5.437   0.085  0.00  0.00    +0.040 A 
ATOM     24  C   LIG    1       -5.580  -6.126  -0.020  0.00  0.00    +0.000 A 
ATOM     25  C   LIG    1       -6.243  -6.179  -1.232  0.00  0.00    +0.010 A 
ATOM     26  C   LIG    1       -5.714  -5.541  -2.338  0.00  0.00    +0.000 A 
ATOM     27  C   LIG    1       -4.522  -4.849  -2.232  0.00  0.00    +0.010 A 
ENDBRANCH   6  22
TORSDOF 4
