REMARK  Name = ZINCkj00000dCYIN.0
REMARK                            x       y       z     vdW  Elec       q    Type
REMARK                         _______ _______ _______ _____ _____    ______ ____
ROOT
ATOM      1  N   LIG    1       -3.773   3.276  -4.207  0.00  0.00    -0.720 N 
ATOM      2  H   LIG    1       -3.054   3.132  -4.842  0.00  0.00    +0.400 HD
ATOM      3  C   LIG    1       -3.598   2.962  -2.908  0.00  0.00    +0.600 C 
ATOM      4  O   LIG    1       -4.499   3.143  -2.112  0.00  0.00    -0.540 OA
ENDROOT
BRANCH   3   5
ATOM      5  C   LIG    1       -2.313   2.401  -2.451  0.00  0.00    -0.310 A 
ATOM      6  C   LIG    1       -1.991   2.037  -1.166  0.00  0.00    +0.170 A 
ATOM      7  C   LIG    1       -2.861   2.121   0.063  0.00  0.00    +0.150 C 
ATOM      8  C   LIG    1       -2.229   1.252   1.158  0.00  0.00    +0.030 C 
ATOM      9  C   LIG    1       -0.735   1.583   1.265  0.00  0.00    +0.040 C 
ATOM     10  C   LIG    1       -0.013   1.086   0.008  0.00  0.00    +0.310 C 
ATOM     11  N   LIG    1       -0.727   1.574  -1.176  0.00  0.00    -0.350 N 
ATOM     12  N   LIG    1       -0.244   1.646  -2.484  0.00  0.00    -0.290 NA
ATOM     13  C   LIG    1       -1.178   2.137  -3.254  0.00  0.00    +0.270 A 
ENDBRANCH   3   5
BRANCH   1  19
ATOM     14  C   LIG    1       -5.022   6.136  -5.796  0.00  0.00    +0.050 C 
ATOM     15  C   LIG    1       -4.945   4.619  -5.979  0.00  0.00    -0.070 C 
ATOM     16  C   LIG    1       -6.285   3.977  -6.375  0.00  0.00    -0.020 C 
ATOM     17  C   LIG    1       -5.926   2.825  -5.422  0.00  0.00    +0.030 C 
ATOM     18  C   LIG    1       -3.772   4.184  -6.860  0.00  0.00    +0.060 C 
ATOM     19  C   LIG    1       -5.049   3.833  -4.660  0.00  0.00    +0.260 C 
BRANCH  16  20
ATOM     20  C   LIG    1       -6.352   3.558  -7.845  0.00  0.00    +0.280 C 
BRANCH  20  21
ATOM     21  N   LIG    1       -7.681   3.003  -8.136  0.00  0.00    -0.640 N 
ATOM     22  H   LIG    1       -7.845   2.199  -7.549  0.00  0.00    +0.440 HD
ATOM     23  H   LIG    1       -7.725   2.726  -9.105  0.00  0.00    +0.440 HD
ATOM     24  H   LIG    1       -8.385   3.702  -7.954  0.00  0.00    +0.440 HD
ENDBRANCH  20  21
ENDBRANCH  16  20
ENDBRANCH   1  19
TORSDOF 4
