REMARK  Name = ZINCrD00000l1mEm.0
REMARK                            x       y       z     vdW  Elec       q    Type
REMARK                         _______ _______ _______ _____ _____    ______ ____
ROOT
ATOM      1  C   LIG    1       -0.797   1.556  -6.106  0.00  0.00    +0.610 C 
ATOM      2  N   LIG    1       -0.229   1.166  -4.948  0.00  0.00    -0.600 N 
ATOM      3  C   LIG    1        1.219   1.094  -4.681  0.00  0.00    +0.280 C 
ATOM      4  C   LIG    1        1.348   1.212  -3.140  0.00  0.00    +0.040 C 
ATOM      5  C   LIG    1        0.104   0.415  -2.664  0.00  0.00    +0.130 C 
ATOM      6  C   LIG    1       -0.953   0.741  -3.740  0.00  0.00    +0.220 C 
ATOM      7  C   LIG    1       -1.860   1.872  -3.252  0.00  0.00    +0.040 C 
ATOM      8  O   LIG    1       -2.008   1.577  -6.214  0.00  0.00    -0.530 OA
ENDROOT
BRANCH   5   9
ATOM      9  N   LIG    1       -0.338   0.882  -1.343  0.00  0.00    -0.520 NA
ATOM     10  C   LIG    1       -1.404   0.022  -0.810  0.00  0.00    +0.140 C 
ATOM     11  C   LIG    1       -1.875   0.576   0.537  0.00  0.00    +0.220 C 
ATOM     12  O   LIG    1       -0.758   0.669   1.425  0.00  0.00    -0.380 OA
ATOM     13  C   LIG    1        0.299   1.500   0.938  0.00  0.00    +0.220 C 
ATOM     14  C   LIG    1        0.792   0.954  -0.405  0.00  0.00    +0.150 C 
ENDBRANCH   5   9
BRANCH   1  17
ATOM     15  C   LIG    1        1.994   2.332  -8.255  0.00  0.00    +0.100 A 
ATOM     16  N   LIG    1        1.375   1.953  -7.178  0.00  0.00    -0.430 NA
ATOM     17  C   LIG    1        0.051   1.958  -7.242  0.00  0.00    +0.010 A 
ATOM     18  C   LIG    1       -0.466   2.353  -8.428  0.00  0.00    -0.020 A 
ATOM     19  S   LIG    1        0.814   2.742  -9.494  0.00  0.00    +0.190 S 
BRANCH  15  24
ATOM     20  C   LIG    1        7.708   2.623  -8.877  0.00  0.00    +0.100 C 
ATOM     21  C   LIG    1        6.212   2.546  -8.714  0.00  0.00    -0.060 A 
ATOM     22  C   LIG    1        5.445   1.926  -9.684  0.00  0.00    +0.000 A 
ATOM     23  C   LIG    1        4.074   1.853  -9.540  0.00  0.00    +0.050 A 
ATOM     24  C   LIG    1        3.463   2.406  -8.415  0.00  0.00    -0.040 A 
ATOM     25  C   LIG    1        4.242   3.036  -7.444  0.00  0.00    -0.030 A 
ATOM     26  C   LIG    1        3.590   3.643  -6.228  0.00  0.00    +0.100 C 
ATOM     27  C   LIG    1        5.612   3.097  -7.596  0.00  0.00    +0.010 A 
ENDBRANCH  15  24
ENDBRANCH   1  17
TORSDOF 3
