REMARK  Name = ZINCrD00000F5LH2.0
REMARK                            x       y       z     vdW  Elec       q    Type
REMARK                         _______ _______ _______ _____ _____    ______ ____
ROOT
ATOM      1  N   LIG    1        2.150   1.071  -1.134  0.00  0.00    -0.590 N 
ENDROOT
BRANCH   1   5
ATOM      2  C   LIG    1        3.412  -2.746   1.670  0.00  0.00    +0.110 C 
ATOM      3  C   LIG    1        3.477  -1.971   0.380  0.00  0.00    +0.050 A 
ATOM      4  C   LIG    1        2.782  -0.801   0.230  0.00  0.00    -0.100 A 
ATOM      5  C   LIG    1        2.857  -0.110  -0.978  0.00  0.00    +0.430 A 
ATOM      6  N   LIG    1        3.600  -0.565  -1.977  0.00  0.00    -0.540 NA
ATOM      7  C   LIG    1        4.290  -1.682  -1.873  0.00  0.00    +0.380 A 
ATOM      8  C   LIG    1        4.256  -2.429  -0.694  0.00  0.00    -0.150 A 
BRANCH   8   9
ATOM      9  C   LIG    1        5.005  -3.644  -0.583  0.00  0.00    +0.260 C 
ATOM     10  N   LIG    1        5.599  -4.608  -0.494  0.00  0.00    -0.420 NA
ENDBRANCH   8   9
ENDBRANCH   1   5
BRANCH   1  11
ATOM     11  C   LIG    1        1.414   1.639  -0.003  0.00  0.00    +0.300 C 
BRANCH  11  12
ATOM     12  C   LIG    1       -0.013   1.086   0.008  0.00  0.00    -0.050 C 
ATOM     13  C   LIG    1       -0.812   1.624  -1.204  0.00  0.00    +0.000 C 
ATOM     14  C   LIG    1       -2.202   1.907  -0.572  0.00  0.00    +0.190 C 
ATOM     15  O   LIG    1       -1.879   2.402   0.746  0.00  0.00    -0.370 OA
ATOM     16  C   LIG    1       -0.785   1.608   1.235  0.00  0.00    +0.170 C 
ATOM     17  C   LIG    1       -1.321   0.431   2.052  0.00  0.00    +0.030 C 
ENDBRANCH  11  12
ENDBRANCH   1  11
BRANCH   1  18
ATOM     18  C   LIG    1        2.138   1.751  -2.432  0.00  0.00    +0.400 C 
BRANCH  18  19
ATOM     19  C   LIG    1        3.286   2.724  -2.499  0.00  0.00    -0.030 A 
ATOM     20  C   LIG    1        4.506   2.469  -3.037  0.00  0.00    +0.040 A 
ATOM     21  C   LIG    1        5.285   3.620  -2.908  0.00  0.00    -0.020 A 
ATOM     22  C   LIG    1        4.504   4.568  -2.272  0.00  0.00    -0.030 A 
ATOM     23  C   LIG    1        4.732   5.897  -1.868  0.00  0.00    +0.370 A 
ATOM     24  N   LIG    1        3.777   6.567  -1.269  0.00  0.00    -0.490 NA
ATOM     25  C   LIG    1        2.582   6.014  -1.031  0.00  0.00    +0.210 A 
ATOM     26  C   LIG    1        2.308   4.748  -1.395  0.00  0.00    +0.150 A 
ATOM     27  N   LIG    1        3.270   3.995  -2.027  0.00  0.00    -0.330 N 
ENDBRANCH  18  19
ENDBRANCH   1  18
TORSDOF 6
