REMARK  Name = ZINCrH000004uYjr.0
REMARK                            x       y       z     vdW  Elec       q    Type
REMARK                         _______ _______ _______ _____ _____    ______ ____
ROOT
ATOM      1  C   LIG    1       -4.673  -0.396   0.290  0.00  0.00    -0.150 A 
ATOM      2  C   LIG    1       -4.749   0.997   0.202  0.00  0.00    +0.100 A 
ATOM      3  C   LIG    1       -3.596   1.743   0.112  0.00  0.00    +0.020 A 
ATOM      4  C   LIG    1       -2.356   1.113   0.109  0.00  0.00    +0.170 A 
ATOM      5  C   LIG    1       -2.277  -0.275   0.191  0.00  0.00    -0.010 A 
ATOM      6  C   LIG    1       -3.426  -1.026   0.286  0.00  0.00    +0.070 A 
ENDROOT
BRANCH   1   8
ATOM      7  O   LIG    1       -6.992  -0.649   0.390  0.00  0.00    -0.530 OA
ATOM      8  C   LIG    1       -5.908  -1.199   0.387  0.00  0.00    +0.560 C 
ATOM      9  N   LIG    1       -5.833  -2.542   0.471  0.00  0.00    -0.720 N 
ATOM     10  H   LIG    1       -4.968  -2.981   0.469  0.00  0.00    +0.400 HD
BRANCH   9  11
ATOM     11  C   LIG    1       -7.058  -3.339   0.567  0.00  0.00    +0.290 C 
ATOM     12  C   LIG    1       -6.791  -4.750   0.038  0.00  0.00    +0.010 C 
ATOM     13  C   LIG    1       -7.982  -5.640   0.415  0.00  0.00    +0.260 C 
ATOM     14  O   LIG    1       -8.035  -5.742   1.839  0.00  0.00    -0.320 OA
ATOM     15  C   LIG    1       -7.960  -4.594   2.561  0.00  0.00    +0.140 A 
ATOM     16  C   LIG    1       -8.361  -4.620   3.893  0.00  0.00    -0.020 A 
ATOM     17  C   LIG    1       -8.296  -3.475   4.661  0.00  0.00    +0.050 A 
ATOM     18  C   LIG    1       -7.830  -2.298   4.106  0.00  0.00    -0.040 A 
ATOM     19  C   LIG    1       -7.433  -2.268   2.783  0.00  0.00    +0.060 A 
ATOM     20  C   LIG    1       -7.497  -3.413   2.008  0.00  0.00    -0.180 A 
ENDBRANCH   9  11
ENDBRANCH   1   8
BRANCH   4  21
ATOM     21  N   LIG    1       -1.191   1.871   0.018  0.00  0.00    -0.660 N 
ATOM     22  H   LIG    1       -0.427   1.529  -0.472  0.00  0.00    +0.420 HD
ATOM     23  C   LIG    1       -1.125   3.079   0.611  0.00  0.00    +0.610 C 
ATOM     24  O   LIG    1       -2.109   3.545   1.154  0.00  0.00    -0.490 OA
BRANCH  23  25
ATOM     25  C   LIG    1        0.134   3.831   0.606  0.00  0.00    -0.090 A 
ATOM     26  C   LIG    1        0.339   5.057   1.171  0.00  0.00    +0.060 A 
ATOM     27  C   LIG    1        1.679   5.394   0.928  0.00  0.00    -0.070 A 
ATOM     28  C   LIG    1        2.227   4.372   0.234  0.00  0.00    +0.220 A 
ATOM     29  O   LIG    1        1.294   3.429   0.047  0.00  0.00    -0.170 OA
ENDBRANCH  23  25
ENDBRANCH   4  21
TORSDOF 4
