REMARK  Name = ZINCqH0000035b1O.1
REMARK                            x       y       z     vdW  Elec       q    Type
REMARK                         _______ _______ _______ _____ _____    ______ ____
ROOT
ATOM      1  N   LIG    1        0.049  -4.410   0.014  0.00  0.00    -1.040 N 
ATOM      2  H   LIG    1       -0.485  -4.995   0.573  0.00  0.00    +0.440 HD
ENDROOT
BRANCH   1   3
ATOM      3  C   LIG    1        0.015  -3.028   0.217  0.00  0.00    +0.170 A 
ATOM      4  C   LIG    1       -1.204  -2.381   0.384  0.00  0.00    +0.010 A 
ATOM      5  C   LIG    1       -1.240  -1.017   0.584  0.00  0.00    +0.080 A 
ATOM      6  C   LIG    1       -0.052  -0.287   0.620  0.00  0.00    -0.040 A 
ATOM      7  C   LIG    1        1.168  -0.938   0.448  0.00  0.00    +0.060 A 
ATOM      8  C   LIG    1        1.200  -2.302   0.253  0.00  0.00    -0.040 A 
BRANCH   6   9
ATOM      9  C   LIG    1       -0.089   1.180   0.835  0.00  0.00    +0.120 A 
ATOM     10  C   LIG    1        1.022   1.943   0.880  0.00  0.00    -0.080 A 
ATOM     11  S   LIG    1        0.523   3.610   1.151  0.00  0.00    +0.130 S 
ATOM     12  C   LIG    1       -1.117   3.129   1.177  0.00  0.00    +0.060 A 
ATOM     13  C   LIG    1       -2.283   4.062   1.380  0.00  0.00    +0.180 C 
ATOM     14  N   LIG    1       -1.216   1.858   0.994  0.00  0.00    -0.470 NA
ENDBRANCH   6   9
ENDBRANCH   1   3
BRANCH   1  15
ATOM     15  S   LIG    1        1.003  -5.048  -1.180  0.00  0.00    +2.700 S 
ATOM     16  O   LIG    1        0.763  -4.269  -2.344  0.00  0.00    -0.950 OA
ATOM     17  O   LIG    1        0.816  -6.455  -1.134  0.00  0.00    -0.930 OA
BRANCH  15  23
ATOM     18  C   LIG    1        3.193  -5.316   0.449  0.00  0.00    -0.030 A 
ATOM     19  C   LIG    1        4.524  -5.083   0.801  0.00  0.00    +0.070 A 
ATOM     20  C   LIG    1        5.318  -4.290  -0.002  0.00  0.00    +0.060 A 
ATOM     21  C   LIG    1        4.801  -3.731  -1.157  0.00  0.00    +0.040 A 
ATOM     22  C   LIG    1        3.484  -3.963  -1.515  0.00  0.00    +0.130 A 
ATOM     23  C   LIG    1        2.679  -4.754  -0.722  0.00  0.00    -0.630 A 
BRANCH  18  24
ATOM     24  C   LIG    1        2.335  -6.158   1.307  0.00  0.00    +0.500 C 
ATOM     25  O   LIG    1        1.150  -6.266   1.062  0.00  0.00    -0.490 OA
BRANCH  24  27
ATOM     26  C   LIG    1        1.991  -7.705   3.092  0.00  0.00    +0.280 C 
ATOM     27  O   LIG    1        2.867  -6.808   2.360  0.00  0.00    -0.340 OA
ENDBRANCH  24  27
ENDBRANCH  18  24
ENDBRANCH  15  23
ENDBRANCH   1  15
TORSDOF 6
