REMARK  Name = ZINCvU00000004d8.0
REMARK                            x       y       z     vdW  Elec       q    Type
REMARK                         _______ _______ _______ _____ _____    ______ ____
ROOT
ATOM      1  C   LIG    1        0.718  -3.625  -1.165  0.00  0.00    +0.380 A 
ATOM      2  N   LIG    1        0.019  -4.689  -0.851  0.00  0.00    -0.500 NA
ATOM      3  C   LIG    1       -1.331  -4.669  -0.849  0.00  0.00    +0.080 A 
ATOM      4  C   LIG    1       -2.000  -3.501  -1.182  0.00  0.00    -0.210 A 
ATOM      5  C   LIG    1       -3.458  -3.649  -1.133  0.00  0.00    -0.050 A 
ATOM      6  C   LIG    1       -3.863  -4.861  -0.783  0.00  0.00    -0.230 A 
ATOM      7  C   LIG    1       -5.387  -4.929  -0.758  0.00  0.00    +0.130 C 
ATOM      8  C   LIG    1       -5.851  -3.706  -1.574  0.00  0.00    +0.050 C 
ATOM      9  C   LIG    1       -4.662  -2.743  -1.389  0.00  0.00    +0.100 C 
ATOM     10  C   LIG    1       -1.227  -2.350  -1.517  0.00  0.00    +0.570 A 
ATOM     11  O   LIG    1       -1.771  -1.301  -1.817  0.00  0.00    -0.500 OA
ATOM     12  S   LIG    1       -2.494  -5.931  -0.481  0.00  0.00    +0.220 S 
ATOM     13  N   LIG    1        0.117  -2.445  -1.497  0.00  0.00    -0.510 N 
ENDROOT
BRANCH   1  14
ATOM     14  S   LIG    1        2.478  -3.719  -1.155  0.00  0.00    +0.030 S 
BRANCH  14  16
ATOM     15  C   LIG    1        2.141  -6.363  -1.757  0.00  0.00    +0.100 C 
ATOM     16  C   LIG    1        2.696  -5.448  -0.664  0.00  0.00    +0.140 C 
BRANCH  16  17
ATOM     17  C   LIG    1        4.163  -5.732  -0.467  0.00  0.00    +0.090 A 
ATOM     18  N   LIG    1        4.644  -6.379   0.527  0.00  0.00    -0.450 NA
ATOM     19  C   LIG    1        5.978  -6.559   0.574  0.00  0.00    +0.080 A 
ATOM     20  C   LIG    1        6.763  -7.223   1.538  0.00  0.00    +0.080 A 
ATOM     21  C   LIG    1        8.116  -7.293   1.396  0.00  0.00    +0.030 A 
ATOM     22  C   LIG    1        8.746  -6.715   0.303  0.00  0.00    +0.050 A 
ATOM     23  C   LIG    1        8.005  -6.060  -0.654  0.00  0.00    +0.060 A 
ATOM     24  C   LIG    1        6.620  -5.978  -0.526  0.00  0.00    -0.180 A 
ATOM     25  S   LIG    1        5.390  -5.239  -1.546  0.00  0.00    +0.120 S 
ENDBRANCH  16  17
ENDBRANCH  14  16
ENDBRANCH   1  14
BRANCH  13  26
ATOM     26  C   LIG    1        0.937  -1.279  -1.837  0.00  0.00    +0.300 C 
BRANCH  26  27
ATOM     27  C   LIG    1        1.229  -0.474  -0.569  0.00  0.00    +0.150 C 
ATOM     28  C   LIG    1        2.084   0.763  -0.920  0.00  0.00    +0.020 C 
ATOM     29  C   LIG    1        1.473   1.857  -0.002  0.00  0.00    +0.020 C 
ATOM     30  C   LIG    1       -0.017   1.432   0.010  0.00  0.00    +0.200 C 
ATOM     31  O   LIG    1        0.002  -0.004   0.002  0.00  0.00    -0.360 OA
ENDBRANCH  26  27
ENDBRANCH  13  26
TORSDOF 5
