REMARK  Name = ZINCrH000004q6V9.0
REMARK                            x       y       z     vdW  Elec       q    Type
REMARK                         _______ _______ _______ _____ _____    ______ ____
ROOT
ATOM      1  C   LIG    1       -3.752  -0.658   3.718  0.00  0.00    +0.140 C 
ATOM      2  C   LIG    1       -3.582   0.839   3.764  0.00  0.00    +0.060 A 
ATOM      3  C   LIG    1       -3.910   1.564   4.844  0.00  0.00    -0.290 A 
ATOM      4  S   LIG    1       -3.588   3.267   4.564  0.00  0.00    +0.250 S 
ATOM      5  C   LIG    1       -3.001   2.938   2.938  0.00  0.00    +0.070 A 
ATOM      6  N   LIG    1       -2.533   3.764   1.984  0.00  0.00    -0.510 NA
ATOM      7  C   LIG    1       -2.140   3.340   0.821  0.00  0.00    +0.420 A 
ATOM      8  C   LIG    1       -1.631   4.317  -0.214  0.00  0.00    +0.140 C 
ATOM      9  C   LIG    1       -2.683   4.474  -1.310  0.00  0.00    +0.040 C 
ATOM     10  C   LIG    1       -2.503   3.429  -2.397  0.00  0.00    +0.020 C 
ATOM     11  C   LIG    1       -2.750   2.020  -1.883  0.00  0.00    +0.020 C 
ATOM     12  C   LIG    1       -1.702   1.622  -0.846  0.00  0.00    +0.300 C 
ATOM     13  N   LIG    1       -2.170   2.017   0.488  0.00  0.00    -0.530 N 
ATOM     14  C   LIG    1       -2.618   1.098   1.361  0.00  0.00    +0.560 A 
ATOM     15  O   LIG    1       -2.647  -0.084   1.067  0.00  0.00    -0.510 OA
ATOM     16  C   LIG    1       -3.074   1.564   2.687  0.00  0.00    -0.250 A 
ENDROOT
BRANCH   3  17
ATOM     17  C   LIG    1       -4.461   1.011   6.086  0.00  0.00    +0.600 C 
ATOM     18  N   LIG    1       -4.575   1.792   7.178  0.00  0.00    -0.610 N 
ATOM     19  C   LIG    1       -4.149   3.192   7.126  0.00  0.00    +0.310 C 
ATOM     20  O   LIG    1       -4.815  -0.152   6.129  0.00  0.00    -0.520 OA
BRANCH  18  21
ATOM     21  C   LIG    1       -5.126   1.239   8.419  0.00  0.00    +0.350 C 
BRANCH  21  22
ATOM     22  C   LIG    1       -4.009   0.668   9.253  0.00  0.00    -0.110 A 
ATOM     23  C   LIG    1       -3.643  -0.657   9.104  0.00  0.00    +0.040 A 
ATOM     24  C   LIG    1       -2.615  -1.180   9.867  0.00  0.00    +0.000 A 
ATOM     25  C   LIG    1       -1.960  -0.381  10.785  0.00  0.00    +0.010 A 
ATOM     26  C   LIG    1       -2.330   0.942  10.938  0.00  0.00    +0.000 A 
ATOM     27  C   LIG    1       -3.354   1.467  10.172  0.00  0.00    +0.010 A 
ENDBRANCH  21  22
ENDBRANCH  18  21
ENDBRANCH   3  17
TORSDOF 3
