REMARK  Name = ZINCpk00000FgPIS.0
REMARK                            x       y       z     vdW  Elec       q    Type
REMARK                         _______ _______ _______ _____ _____    ______ ____
ROOT
ATOM      1  C   LIG    1        1.268  -0.372  -0.012  0.00  0.00    +0.250 A 
ATOM      2  N   LIG    1        0.002  -0.004   0.002  0.00  0.00    -0.310 NA
ATOM      3  N   LIG    1       -0.017   1.397   0.010  0.00  0.00    -0.320 N 
ATOM      4  C   LIG    1        1.288   1.803  -0.001  0.00  0.00    +0.470 A 
ATOM      5  N   LIG    1        1.589   3.107   0.003  0.00  0.00    -0.460 NA
ATOM      6  C   LIG    1        0.641   4.017   0.017  0.00  0.00    +0.260 A 
ATOM      7  C   LIG    1       -0.705   3.635   0.028  0.00  0.00    -0.190 A 
ATOM      8  C   LIG    1        1.006   5.479   0.021  0.00  0.00    +0.170 C 
ATOM      9  C   LIG    1       -1.020   2.313   0.029  0.00  0.00    +0.230 A 
ATOM     10  C   LIG    1       -2.460   1.870   0.047  0.00  0.00    +0.180 C 
ATOM     11  N   LIG    1        2.043   0.710  -0.014  0.00  0.00    -0.530 NA
ENDROOT
BRANCH   1  13
ATOM     12  C   LIG    1        3.647  -1.845  -0.043  0.00  0.00    +0.150 C 
ATOM     13  S   LIG    1        1.843  -2.037  -0.026  0.00  0.00    +0.040 S 
ENDBRANCH   1  13
BRANCH   7  14
ATOM     14  C   LIG    1       -1.793   4.678   0.044  0.00  0.00    +0.200 C 
BRANCH  14  15
ATOM     15  C   LIG    1       -2.056   5.108   1.464  0.00  0.00    +0.460 C 
ATOM     16  O   LIG    1       -1.425   4.618   2.370  0.00  0.00    -0.500 OA
BRANCH  15  17
ATOM     17  O   LIG    1       -2.992   6.035   1.722  0.00  0.00    -0.320 OA
BRANCH  17  18
ATOM     18  C   LIG    1       -3.192   6.401   3.113  0.00  0.00    +0.180 C 
ATOM     19  C   LIG    1       -4.255   5.491   3.732  0.00  0.00    +0.070 C 
BRANCH  18  20
ATOM     20  C   LIG    1       -3.649   7.835   3.194  0.00  0.00    +0.520 C 
ATOM     21  N   LIG    1       -3.801   8.426   4.396  0.00  0.00    -0.720 N 
ATOM     22  H   LIG    1       -3.617   7.928   5.208  0.00  0.00    +0.400 HD
ATOM     23  O   LIG    1       -3.879   8.456   2.179  0.00  0.00    -0.510 OA
BRANCH  21  24
ATOM     24  C   LIG    1       -4.245   9.819   4.475  0.00  0.00    +0.230 C 
ATOM     25  C   LIG    1       -3.037  10.748   4.336  0.00  0.00    +0.020 C 
ATOM     26  C   LIG    1       -4.922  10.063   5.826  0.00  0.00    +0.040 C 
ENDBRANCH  21  24
ENDBRANCH  18  20
ENDBRANCH  17  18
ENDBRANCH  15  17
ENDBRANCH  14  15
ENDBRANCH   7  14
TORSDOF 7
