REMARK  Name = ZINCpe00000MJaXW.0
REMARK                            x       y       z     vdW  Elec       q    Type
REMARK                         _______ _______ _______ _____ _____    ______ ____
ROOT
ATOM      1  C   LIG    1       -5.858   5.803  -1.452  0.00  0.00    +0.520 C 
ATOM      2  N   LIG    1       -4.958   4.804  -1.353  0.00  0.00    -0.720 N 
ATOM      3  H   LIG    1       -4.365   4.611  -2.095  0.00  0.00    +0.410 HD
ATOM      4  O   LIG    1       -6.600   6.045  -0.524  0.00  0.00    -0.500 OA
ENDROOT
BRANCH   1  12
ATOM      5  C   LIG    1       -3.334  10.316  -3.636  0.00  0.00    +0.200 C 
ATOM      6  C   LIG    1       -4.640   9.797  -4.179  0.00  0.00    +0.190 A 
ATOM      7  N   LIG    1       -5.304  10.275  -5.201  0.00  0.00    -0.290 NA
ATOM      8  N   LIG    1       -6.380   9.587  -5.383  0.00  0.00    -0.280 NA
ATOM      9  C   LIG    1       -6.448   8.648  -4.492  0.00  0.00    +0.170 A 
ATOM     10  C   LIG    1       -7.512   7.599  -4.291  0.00  0.00    +0.330 C 
ATOM     11  N   LIG    1       -7.336   7.024  -2.945  0.00  0.00    -0.520 NA
ATOM     12  C   LIG    1       -5.942   6.619  -2.716  0.00  0.00    +0.130 C 
ATOM     13  C   LIG    1       -5.056   7.864  -2.580  0.00  0.00    +0.340 C 
ATOM     14  C   LIG    1       -8.254   5.897  -2.730  0.00  0.00    +0.220 C 
ATOM     15  N   LIG    1       -5.345   8.755  -3.705  0.00  0.00    -0.470 N 
ENDBRANCH   1  12
BRANCH   2  16
ATOM     16  C   LIG    1       -4.876   4.012  -0.124  0.00  0.00    +0.310 C 
BRANCH  16  17
ATOM     17  C   LIG    1       -3.782   2.953  -0.272  0.00  0.00    +0.210 C 
BRANCH  17  18
ATOM     18  O   LIG    1       -2.511   3.594  -0.393  0.00  0.00    -0.300 OA
BRANCH  18  19
ATOM     19  C   LIG    1       -1.424   2.790  -0.533  0.00  0.00    +0.150 A 
ATOM     20  C   LIG    1       -0.160   3.347  -0.656  0.00  0.00    +0.020 A 
ATOM     21  C   LIG    1        0.945   2.529  -0.799  0.00  0.00    +0.080 A 
ATOM     22  C   LIG    1        0.791   1.154  -0.820  0.00  0.00    +0.030 A 
ATOM     23  C   LIG    1       -0.473   0.595  -0.698  0.00  0.00    +0.110 A 
ATOM     24  F   LIG    1       -0.622  -0.748  -0.719  0.00  0.00    -0.120 F 
ATOM     25  F   LIG    1        1.872   0.356  -0.960  0.00  0.00    -0.130 F 
ATOM     26  C   LIG    1       -1.580   1.412  -0.560  0.00  0.00    -0.070 A 
ENDBRANCH  18  19
ENDBRANCH  17  18
ENDBRANCH  16  17
ENDBRANCH   2  16
TORSDOF 5
