REMARK  Name = ZINCqH00000074sq.0
REMARK                            x       y       z     vdW  Elec       q    Type
REMARK                         _______ _______ _______ _____ _____    ______ ____
ROOT
ATOM      1  O   LIG    1       -1.257   6.256   0.047  0.00  0.00    -0.350 OA
ENDROOT
BRANCH   1   2
ATOM      2  C   LIG    1       -0.079   5.602   0.032  0.00  0.00    +0.520 C 
ATOM      3  O   LIG    1        0.963   6.226   0.025  0.00  0.00    -0.500 OA
BRANCH   2   7
ATOM      4  C   LIG    1       -0.016   1.354   0.009  0.00  0.00    +0.140 A 
ATOM      5  C   LIG    1       -1.229   2.030   0.019  0.00  0.00    -0.040 A 
ATOM      6  C   LIG    1       -1.253   3.408   0.032  0.00  0.00    +0.090 A 
ATOM      7  C   LIG    1       -0.055   4.127   0.025  0.00  0.00    -0.130 A 
ATOM      8  C   LIG    1        1.166   3.446   0.009  0.00  0.00    +0.040 A 
ATOM      9  C   LIG    1        1.183   2.066   0.002  0.00  0.00    +0.090 A 
BRANCH   4  11
ATOM     10  C   LIG    1       -1.262  -0.670   0.011  0.00  0.00    +0.250 C 
ATOM     11  O   LIG    1        0.002  -0.004   0.002  0.00  0.00    -0.300 OA
ENDBRANCH   4  11
BRANCH   9  12
ATOM     12  O   LIG    1        2.369   1.400  -0.013  0.00  0.00    -0.300 OA
ATOM     13  C   LIG    1        3.558   2.193  -0.020  0.00  0.00    +0.250 C 
ENDBRANCH   9  12
ENDBRANCH   2   7
ENDBRANCH   1   2
BRANCH   1  14
ATOM     14  C   LIG    1       -1.205   7.707   0.054  0.00  0.00    +0.410 C 
BRANCH  14  15
ATOM     15  C   LIG    1       -2.606   8.261   0.070  0.00  0.00    +0.160 A 
ATOM     16  N   LIG    1       -3.312   8.538   1.131  0.00  0.00    -0.250 NA
ATOM     17  N   LIG    1       -4.462   8.993   0.776  0.00  0.00    -0.270 NA
ATOM     18  C   LIG    1       -4.530   9.021  -0.535  0.00  0.00    +0.220 A 
ATOM     19  O   LIG    1       -3.353   8.563  -1.006  0.00  0.00    -0.210 OA
BRANCH  18  20
ATOM     20  C   LIG    1       -5.681   9.476  -1.343  0.00  0.00    -0.030 A 
ATOM     21  C   LIG    1       -5.609   9.456  -2.737  0.00  0.00    +0.070 A 
ATOM     22  C   LIG    1       -6.688   9.877  -3.486  0.00  0.00    +0.040 A 
ATOM     23  C   LIG    1       -7.836  10.331  -2.858  0.00  0.00    -0.010 A 
ATOM     24  C   LIG    1       -7.910  10.359  -1.476  0.00  0.00    +0.040 A 
ATOM     25 CL   LIG    1       -9.187  10.867  -3.808  0.00  0.00    -0.050 Cl
ATOM     26  C   LIG    1       -6.840   9.935  -0.716  0.00  0.00    +0.100 A 
ENDBRANCH  18  20
ENDBRANCH  14  15
ENDBRANCH   1  14
TORSDOF 7
