REMARK  Name = ZINCnE00000rhnS2.0
REMARK                            x       y       z     vdW  Elec       q    Type
REMARK                         _______ _______ _______ _____ _____    ______ ____
ROOT
ATOM      1  O   LIG    1        1.065  -0.598  -0.011  0.00  0.00    -0.520 OA
ATOM      2  C   LIG    1        0.002  -0.004   0.002  0.00  0.00    +0.590 C 
ATOM      3  N   LIG    1       -0.016   1.344   0.009  0.00  0.00    -0.720 N 
ATOM      4  H   LIG    1       -0.863   1.817   0.016  0.00  0.00    +0.400 HD
ENDROOT
BRANCH   3   5
ATOM      5  C   LIG    1        1.242   2.093   0.001  0.00  0.00    +0.240 C 
ATOM      6  C   LIG    1        1.732   2.237  -1.436  0.00  0.00    +0.030 C 
ATOM      7  C   LIG    1        0.597   2.751  -2.326  0.00  0.00    +0.080 C 
ATOM      8  S   LIG    1        0.111   4.408  -1.760  0.00  0.00    -0.240 S 
ATOM      9  C   LIG    1       -0.211   4.132   0.007  0.00  0.00    -0.040 C 
ATOM     10  C   LIG    1        1.015   3.463   0.633  0.00  0.00    +0.060 C 
BRANCH   9  11
ATOM     11  C   LIG    1       -0.468   5.452   0.686  0.00  0.00    +0.520 C 
ATOM     12  O   LIG    1        0.460   6.083   1.164  0.00  0.00    -0.670 OA
ATOM     13  O   LIG    1       -1.604   5.890   0.758  0.00  0.00    -0.680 OA
ENDBRANCH   9  11
ENDBRANCH   3   5
BRANCH   2  14
ATOM     14  C   LIG    1       -1.255  -0.753   0.010  0.00  0.00    -0.260 A 
ATOM     15  C   LIG    1       -1.368  -2.127   0.004  0.00  0.00    +0.010 A 
ATOM     16  C   LIG    1       -2.686  -2.558   0.014  0.00  0.00    +0.010 A 
ATOM     17  C   LIG    1       -3.598  -1.585   0.028  0.00  0.00    -0.060 A 
ATOM     18  S   LIG    1       -2.864  -0.045   0.037  0.00  0.00    +0.220 S 
BRANCH  15  19
ATOM     19  C   LIG    1       -0.206  -3.045  -0.011  0.00  0.00    -0.040 A 
ATOM     20  C   LIG    1        0.813  -2.869  -0.947  0.00  0.00    +0.080 A 
ATOM     21  C   LIG    1        1.897  -3.724  -0.953  0.00  0.00    -0.010 A 
ATOM     22  C   LIG    1        1.967  -4.761  -0.040  0.00  0.00    +0.010 A 
ATOM     23  C   LIG    1        0.957  -4.944   0.887  0.00  0.00    -0.010 A 
ATOM     24  C   LIG    1       -0.129  -4.092   0.906  0.00  0.00    +0.020 A 
ENDBRANCH  15  19
ENDBRANCH   2  14
TORSDOF 4
