REMARK  Name = ZINCvU0000000CH1.0
REMARK                            x       y       z     vdW  Elec       q    Type
REMARK                         _______ _______ _______ _____ _____    ______ ____
ROOT
ATOM      1  C   LIG    1        5.652   5.109  -0.457  0.00  0.00    +0.290 A 
ATOM      2  N   LIG    1        5.819   5.109  -1.747  0.00  0.00    -0.480 NA
ATOM      3  C   LIG    1        6.333   6.302  -2.141  0.00  0.00    +0.050 A 
ATOM      4  C   LIG    1        6.698   6.832  -3.381  0.00  0.00    +0.070 A 
ATOM      5  C   LIG    1        7.200   8.100  -3.458  0.00  0.00    +0.000 A 
ATOM      6  C   LIG    1        7.352   8.872  -2.316  0.00  0.00    +0.030 A 
ATOM      7  C   LIG    1        6.998   8.370  -1.081  0.00  0.00    +0.010 A 
ATOM      8  C   LIG    1        6.486   7.083  -0.983  0.00  0.00    +0.060 A 
ATOM      9  N   LIG    1        6.042   6.303   0.065  0.00  0.00    -0.480 N 
ENDROOT
BRANCH   1  12
ATOM     10  N   LIG    1        3.583   2.135  -0.021  0.00  0.00    -0.560 N 
ATOM     11  C   LIG    1        3.671   3.596  -0.120  0.00  0.00    +0.300 C 
ATOM     12  C   LIG    1        5.100   3.956   0.342  0.00  0.00    +0.090 C 
ATOM     13  C   LIG    1        5.869   2.650   0.033  0.00  0.00    +0.100 C 
ATOM     14  C   LIG    1        4.804   1.577   0.066  0.00  0.00    +0.520 C 
ATOM     15  O   LIG    1        5.019   0.387   0.156  0.00  0.00    -0.500 OA
BRANCH  10  20
ATOM     16  C   LIG    1        1.214  -0.684  -0.029  0.00  0.00    -0.060 A 
ATOM     17  C   LIG    1        0.002  -0.004   0.002  0.00  0.00    -0.030 A 
ATOM     18  C   LIG    1       -0.017   1.377   0.025  0.00  0.00    +0.060 A 
ATOM     19  C   LIG    1        1.169   2.087   0.018  0.00  0.00    -0.030 A 
ATOM     20  C   LIG    1        2.384   1.414  -0.013  0.00  0.00    +0.190 A 
ATOM     21  C   LIG    1        2.407   0.028  -0.036  0.00  0.00    +0.020 A 
BRANCH  16  23
ATOM     22  C   LIG    1       -0.524  -2.877  -0.037  0.00  0.00    +0.130 C 
ATOM     23  S   LIG    1        1.237  -2.445  -0.058  0.00  0.00    -0.100 S 
ENDBRANCH  16  23
ENDBRANCH  10  20
ENDBRANCH   1  12
BRANCH   9  24
ATOM     24  C   LIG    1        6.001   6.687   1.478  0.00  0.00    +0.370 C 
BRANCH  24  25
ATOM     25  C   LIG    1        7.303   6.313   2.138  0.00  0.00    -0.130 A 
ATOM     26  C   LIG    1        7.447   5.069   2.725  0.00  0.00    +0.060 A 
ATOM     27  C   LIG    1        8.642   4.723   3.327  0.00  0.00    -0.010 A 
ATOM     28  C   LIG    1        9.691   5.625   3.351  0.00  0.00    +0.110 A 
ATOM     29  C   LIG    1        9.544   6.872   2.767  0.00  0.00    -0.010 A 
ATOM     30  F   LIG    1       10.858   5.289   3.943  0.00  0.00    -0.130 F 
ATOM     31  C   LIG    1        8.350   7.215   2.162  0.00  0.00    +0.060 A 
ENDBRANCH  24  25
ENDBRANCH   9  24
TORSDOF 5
