REMARK  Name = ZINCrD00000hQ4Eq.0
REMARK                            x       y       z     vdW  Elec       q    Type
REMARK                         _______ _______ _______ _____ _____    ______ ____
ROOT
ATOM      1  C   LIG    1       -0.038   1.071  -0.358  0.00  0.00    -0.070 C 
ATOM      2  C   LIG    1       -1.226   1.709  -0.414  0.00  0.00    +0.120 C 
ENDROOT
BRANCH   2   3
ATOM      3  C   LIG    1       -2.477   0.945  -0.315  0.00  0.00    -0.040 A 
ATOM      4  C   LIG    1       -2.439  -0.446  -0.166  0.00  0.00    +0.050 A 
ATOM      5  C   LIG    1       -3.614  -1.159  -0.068  0.00  0.00    +0.060 A 
ATOM      6  C   LIG    1       -4.836  -0.500  -0.126  0.00  0.00    +0.050 A 
ATOM      7  C   LIG    1       -4.880   0.883  -0.280  0.00  0.00    +0.100 A 
ATOM      8  F   LIG    1       -6.071   1.518  -0.336  0.00  0.00    -0.120 F 
ATOM      9  C   LIG    1       -3.710   1.605  -0.373  0.00  0.00    +0.030 A 
BRANCH   6  10
ATOM     10  O   LIG    1       -5.991  -1.208  -0.033  0.00  0.00    -0.240 OA
BRANCH  10  11
ATOM     11  C   LIG    1       -6.598  -1.594  -1.187  0.00  0.00    +0.070 A 
ATOM     12  C   LIG    1       -7.836  -2.228  -1.155  0.00  0.00    +0.050 A 
ATOM     13  C   LIG    1       -8.417  -2.598  -2.357  0.00  0.00    +0.020 A 
ATOM     14  C   LIG    1       -7.748  -2.337  -3.539  0.00  0.00    +0.230 A 
ATOM     15  N   LIG    1       -6.573  -1.739  -3.534  0.00  0.00    -0.450 NA
ATOM     16  C   LIG    1       -5.988  -1.366  -2.413  0.00  0.00    +0.180 A 
ENDBRANCH  10  11
ENDBRANCH   6  10
ENDBRANCH   2   3
BRANCH   1  18
ATOM     17  O   LIG    1        1.172   3.040  -0.597  0.00  0.00    -0.540 OA
ATOM     18  C   LIG    1        1.207   1.831  -0.463  0.00  0.00    +0.550 C 
ATOM     19  N   LIG    1        2.393   1.192  -0.412  0.00  0.00    -0.700 N 
ATOM     20  H   LIG    1        2.421   0.229  -0.305  0.00  0.00    +0.410 HD
BRANCH  19  21
ATOM     21  C   LIG    1        3.640   1.954  -0.518  0.00  0.00    +0.200 C 
ATOM     22  C   LIG    1        4.902   1.105  -0.290  0.00  0.00    +0.180 C 
ATOM     23  C   LIG    1        4.878   0.804  -1.799  0.00  0.00    +0.000 C 
ATOM     24  C   LIG    1        3.838  -0.291  -2.184  0.00  0.00    +0.030 C 
ATOM     25  C   LIG    1        2.694   0.400  -2.939  0.00  0.00    +0.000 C 
ATOM     26  C   LIG    1        3.044   1.893  -3.026  0.00  0.00    +0.030 C 
ATOM     27  C   LIG    1        4.124   2.143  -1.962  0.00  0.00    -0.010 C 
BRANCH  22  28
ATOM     28  O   LIG    1        4.677  -0.046   0.526  0.00  0.00    -0.550 OA
ATOM     29  H   LIG    1        4.646   0.143   1.474  0.00  0.00    +0.380 HD
ENDBRANCH  22  28
ENDBRANCH  19  21
ENDBRANCH   1  18
TORSDOF 6
