REMARK  Name = ZINCpk00000xNaxP.0
REMARK                            x       y       z     vdW  Elec       q    Type
REMARK                         _______ _______ _______ _____ _____    ______ ____
ROOT
ATOM      1  C   LIG    1       -0.543  -6.486  -1.189  0.00  0.00    +0.270 C 
ATOM      2  C   LIG    1       -0.486  -7.068  -2.603  0.00  0.00    +0.060 C 
ATOM      3  C   LIG    1        0.393  -6.156  -3.468  0.00  0.00    +0.040 C 
ATOM      4  C   LIG    1       -0.322  -4.816  -3.648  0.00  0.00    +0.270 C 
ATOM      5  N   LIG    1       -0.745  -4.286  -2.358  0.00  0.00    -0.540 N 
ATOM      6  C   LIG    1       -0.866  -5.021  -1.251  0.00  0.00    +0.510 C 
ATOM      7  O   LIG    1       -1.262  -4.477  -0.242  0.00  0.00    -0.510 OA
ENDROOT
BRANCH   5   8
ATOM      8  C   LIG    1       -1.038  -2.925  -2.275  0.00  0.00    +0.300 A 
ATOM      9  C   LIG    1       -2.248  -2.347  -2.506  0.00  0.00    -0.090 A 
ATOM     10  C   LIG    1       -2.107  -0.969  -2.317  0.00  0.00    +0.080 A 
ATOM     11  N   LIG    1       -0.867  -0.725  -1.976  0.00  0.00    -0.280 NA
ATOM     12  C   LIG    1       -3.198   0.059  -2.472  0.00  0.00    +0.160 C 
ATOM     13  N   LIG    1       -0.172  -1.941  -1.942  0.00  0.00    -0.370 N 
ATOM     14  C   LIG    1        1.244  -2.115  -1.607  0.00  0.00    +0.340 C 
ENDBRANCH   5   8
BRANCH   1  15
ATOM     15  N   LIG    1       -1.576  -7.182  -0.418  0.00  0.00    -1.100 NA
ATOM     16  H   LIG    1       -2.483  -7.232  -0.756  0.00  0.00    +0.420 HD
BRANCH  15  17
ATOM     17  S   LIG    1       -1.193  -7.885   1.032  0.00  0.00    +2.720 S 
ATOM     18  O   LIG    1       -0.082  -8.736   0.785  0.00  0.00    -0.950 OA
ATOM     19  O   LIG    1       -2.416  -8.345   1.590  0.00  0.00    -0.950 OA
BRANCH  17  23
ATOM     20  C   LIG    1        1.887  -4.806   4.120  0.00  0.00    +0.180 C 
ATOM     21  C   LIG    1        0.702  -5.355   3.368  0.00  0.00    -0.020 A 
ATOM     22  C   LIG    1        0.698  -6.464   2.607  0.00  0.00    +0.020 A 
ATOM     23  C   LIG    1       -0.612  -6.604   2.095  0.00  0.00    -0.770 A 
ATOM     24  C   LIG    1       -1.329  -5.570   2.570  0.00  0.00    +0.170 A 
ATOM     25  C   LIG    1       -2.784  -5.302   2.284  0.00  0.00    +0.190 C 
ATOM     26  O   LIG    1       -0.529  -4.819   3.345  0.00  0.00    -0.170 OA
ENDBRANCH  17  23
ENDBRANCH  15  17
ENDBRANCH   1  15
TORSDOF 4
