REMARK  Name = ZINCrD000000BrQk.0
REMARK                            x       y       z     vdW  Elec       q    Type
REMARK                         _______ _______ _______ _____ _____    ______ ____
ROOT
ATOM      1  O   LIG    1        0.002  -0.004   0.016  0.00  0.00    -0.530 OA
ATOM      2  C   LIG    1       -0.014   1.212   0.009  0.00  0.00    +0.560 C 
ATOM      3  N   LIG    1        1.143   1.901  -0.015  0.00  0.00    -0.720 N 
ATOM      4  H   LIG    1        1.130   2.871  -0.021  0.00  0.00    +0.400 HD
ENDROOT
BRANCH   2   5
ATOM      5  C   LIG    1       -1.301   1.932   0.019  0.00  0.00    -0.120 A 
ATOM      6  C   LIG    1       -1.339   3.315   0.131  0.00  0.00    +0.060 A 
ATOM      7  C   LIG    1       -2.551   3.991   0.134  0.00  0.00    +0.000 A 
ATOM      8  C   LIG    1       -3.740   3.335   0.041  0.00  0.00    +0.060 A 
ATOM      9  C   LIG    1       -3.778   1.934  -0.069  0.00  0.00    -0.050 A 
ATOM     10  C   LIG    1       -4.997   1.243  -0.166  0.00  0.00    +0.000 A 
ATOM     11  C   LIG    1       -4.994  -0.119  -0.272  0.00  0.00    +0.110 A 
ATOM     12  C   LIG    1       -3.793  -0.835  -0.285  0.00  0.00    -0.010 A 
ATOM     13  C   LIG    1       -2.596  -0.192  -0.193  0.00  0.00    +0.080 A 
ATOM     14  C   LIG    1       -2.564   1.203  -0.083  0.00  0.00    -0.020 A 
BRANCH  11  15
ATOM     15  O   LIG    1       -6.173  -0.787  -0.366  0.00  0.00    -0.500 OA
ATOM     16  H   LIG    1       -6.483  -0.912  -1.273  0.00  0.00    +0.390 HD
ENDBRANCH  11  15
ENDBRANCH   2   5
BRANCH   3  17
ATOM     17  C   LIG    1        2.422   1.186  -0.030  0.00  0.00    +0.320 C 
BRANCH  17  18
ATOM     18  C   LIG    1        3.554   2.181  -0.055  0.00  0.00    -0.090 A 
ATOM     19  C   LIG    1        4.057   2.625  -1.264  0.00  0.00    +0.010 A 
ATOM     20  C   LIG    1        5.091   3.542  -1.292  0.00  0.00    +0.040 A 
ATOM     21  C   LIG    1        5.633   4.009  -0.111  0.00  0.00    -0.030 A 
ATOM     22  C   LIG    1        5.134   3.561   1.106  0.00  0.00    +0.110 A 
ATOM     23  C   LIG    1        4.091   2.644   1.130  0.00  0.00    +0.010 A 
BRANCH  22  24
ATOM     24  N   LIG    1        5.680   4.032   2.303  0.00  0.00    -0.490 N 
ATOM     25  C   LIG    1        4.643   4.636   3.152  0.00  0.00    +0.160 C 
ATOM     26  C   LIG    1        5.272   5.083   4.475  0.00  0.00    +0.220 C 
ATOM     27  O   LIG    1        6.346   5.988   4.204  0.00  0.00    -0.380 OA
ATOM     28  C   LIG    1        7.374   5.432   3.379  0.00  0.00    +0.220 C 
ATOM     29  C   LIG    1        6.766   4.988   2.046  0.00  0.00    +0.160 C 
ENDBRANCH  22  24
ENDBRANCH  17  18
ENDBRANCH   3  17
TORSDOF 5
