REMARK  Name = ZINCqH0000007rAl.0
REMARK                            x       y       z     vdW  Elec       q    Type
REMARK                         _______ _______ _______ _____ _____    ______ ____
ROOT
ATOM      1  N   LIG    1        6.153   1.068  -2.661  0.00  0.00    -0.730 N 
ATOM      2  H   LIG    1        5.661   1.035  -3.496  0.00  0.00    +0.400 HD
ATOM      3  C   LIG    1        5.492   1.009  -1.488  0.00  0.00    +0.520 C 
ATOM      4  O   LIG    1        6.107   1.051  -0.443  0.00  0.00    -0.530 OA
ENDROOT
BRANCH   1   5
ATOM      5  C   LIG    1        7.613   1.182  -2.674  0.00  0.00    +0.290 C 
ATOM      6  C   LIG    1        8.235  -0.211  -2.562  0.00  0.00    +0.040 C 
BRANCH   5  10
ATOM      7  C   LIG    1        8.864   3.010  -6.330  0.00  0.00    +0.100 A 
ATOM      8  C   LIG    1        7.836   2.080  -6.334  0.00  0.00    -0.040 A 
ATOM      9  C   LIG    1        7.437   1.487  -5.151  0.00  0.00    +0.050 A 
ATOM     10  C   LIG    1        8.055   1.827  -3.963  0.00  0.00    -0.100 A 
ATOM     11  C   LIG    1        9.082   2.754  -3.954  0.00  0.00    +0.050 A 
ATOM     12  C   LIG    1        9.488   3.347  -5.136  0.00  0.00    +0.080 A 
ATOM     13  F   LIG    1       10.491   4.252  -5.128  0.00  0.00    -0.130 F 
BRANCH   7  15
ATOM     14  C   LIG    1        8.575   3.197  -8.683  0.00  0.00    +0.250 C 
ATOM     15  O   LIG    1        9.261   3.591  -7.494  0.00  0.00    -0.310 OA
ENDBRANCH   7  15
ENDBRANCH   5  10
ENDBRANCH   1   5
BRANCH   3  16
ATOM     16  C   LIG    1        3.990   0.891  -1.474  0.00  0.00    +0.070 C 
BRANCH  16  17
ATOM     17  C   LIG    1        3.495   0.844  -0.027  0.00  0.00    +0.220 C 
BRANCH  17  18
ATOM     18  C   LIG    1        1.993   0.726  -0.013  0.00  0.00    +0.180 A 
ATOM     19  N   LIG    1        1.300  -0.385  -0.012  0.00  0.00    -0.470 NA
ATOM     20  C   LIG    1        0.002  -0.004   0.002  0.00  0.00    +0.230 A 
ATOM     21  N   LIG    1       -0.016   1.304   0.009  0.00  0.00    -0.370 NA
ATOM     22  O   LIG    1        1.118   1.736   0.001  0.00  0.00    +0.080 OA
BRANCH  20  23
ATOM     23  C   LIG    1       -1.179  -0.900   0.009  0.00  0.00    -0.050 A 
ATOM     24  C   LIG    1       -1.076  -2.241   0.002  0.00  0.00    -0.020 A 
ATOM     25  S   LIG    1       -2.624  -2.959   0.013  0.00  0.00    +0.200 S 
ATOM     26  C   LIG    1       -3.410  -1.387   0.028  0.00  0.00    -0.060 A 
ATOM     27  C   LIG    1       -2.490  -0.424   0.030  0.00  0.00    +0.040 A 
ENDBRANCH  20  23
ENDBRANCH  17  18
ENDBRANCH  16  17
ENDBRANCH   3  16
TORSDOF 7
