REMARK  Name = ZINCrD000000fFLO.0
REMARK                            x       y       z     vdW  Elec       q    Type
REMARK                         _______ _______ _______ _____ _____    ______ ____
ROOT
ATOM      1  C   LIG    1       -1.350  -0.145   2.076  0.00  0.00    +0.510 C 
ATOM      2  N   LIG    1       -2.408  -0.507   2.829  0.00  0.00    -0.730 N 
ATOM      3  H   LIG    1       -3.131  -1.019   2.435  0.00  0.00    +0.400 HD
ATOM      4  O   LIG    1       -0.445   0.494   2.569  0.00  0.00    -0.520 OA
ENDROOT
BRANCH   2   5
ATOM      5  C   LIG    1       -2.464  -0.128   4.243  0.00  0.00    +0.290 C 
ATOM      6  C   LIG    1       -1.702  -1.159   5.078  0.00  0.00    +0.040 C 
BRANCH   5   7
ATOM      7  C   LIG    1       -3.901  -0.080   4.693  0.00  0.00    -0.100 A 
ATOM      8  C   LIG    1       -4.795  -1.039   4.253  0.00  0.00    +0.040 A 
ATOM      9  C   LIG    1       -6.112  -1.000   4.667  0.00  0.00    +0.000 A 
ATOM     10  C   LIG    1       -6.540   0.009   5.519  0.00  0.00    +0.140 A 
ATOM     11  C   LIG    1       -5.642   0.973   5.956  0.00  0.00    +0.010 A 
ATOM     12  C   LIG    1       -4.325   0.926   5.541  0.00  0.00    +0.060 A 
BRANCH  10  13
ATOM     13  N   LIG    1       -7.878   0.054   5.939  0.00  0.00    -0.410 N 
ATOM     14  C   LIG    1       -8.872  -0.822   5.587  0.00  0.00    +0.120 A 
ATOM     15  C   LIG    1       -9.992  -0.414   6.213  0.00  0.00    +0.160 A 
ATOM     16  N   LIG    1       -9.697   0.686   6.922  0.00  0.00    -0.480 NA
ATOM     17  C   LIG    1       -8.434   0.977   6.766  0.00  0.00    +0.400 A 
ENDBRANCH  10  13
ENDBRANCH   5   7
ENDBRANCH   2   5
BRANCH   1  18
ATOM     18  C   LIG    1       -1.292  -0.535   0.621  0.00  0.00    +0.060 C 
BRANCH  18  19
ATOM     19  C   LIG    1        0.002  -0.004   0.002  0.00  0.00    +0.350 C 
BRANCH  19  22
ATOM     20  C   LIG    1        1.120   3.657   0.011  0.00  0.00    +0.090 C 
ATOM     21  C   LIG    1        1.140   2.151   0.003  0.00  0.00    +0.520 C 
ATOM     22  N   LIG    1       -0.018   1.461   0.010  0.00  0.00    -0.720 N 
ATOM     23  H   LIG    1       -0.864   1.934   0.017  0.00  0.00    +0.400 HD
ATOM     24  O   LIG    1        2.199   1.558  -0.011  0.00  0.00    -0.540 OA
ENDBRANCH  19  22
BRANCH  19  25
ATOM     25  C   LIG    1        0.119  -0.497  -1.417  0.00  0.00    -0.190 A 
ATOM     26  C   LIG    1        0.866  -1.528  -1.814  0.00  0.00    +0.020 A 
ATOM     27  C   LIG    1        0.816  -1.798  -3.171  0.00  0.00    +0.010 A 
ATOM     28  C   LIG    1        0.028  -0.985  -3.876  0.00  0.00    -0.050 A 
ATOM     29  S   LIG    1       -0.714   0.195  -2.803  0.00  0.00    +0.100 S 
ENDBRANCH  19  25
ENDBRANCH  18  19
ENDBRANCH   1  18
TORSDOF 7
