REMARK  Name = ZINCvU00000005sM.0
REMARK                            x       y       z     vdW  Elec       q    Type
REMARK                         _______ _______ _______ _____ _____    ______ ____
ROOT
ATOM      1  N   LIG    1       -4.805   1.998   3.603  0.00  0.00    -0.730 N 
ATOM      2  H   LIG    1       -4.952   2.624   4.329  0.00  0.00    +0.400 HD
ATOM      3  C   LIG    1       -5.140   0.701   3.753  0.00  0.00    +0.710 C 
ATOM      4  N   LIG    1       -5.678   0.274   4.913  0.00  0.00    -0.730 N 
ATOM      5  H   LIG    1       -5.825   0.900   5.639  0.00  0.00    +0.410 HD
ATOM      6  O   LIG    1       -4.956  -0.083   2.843  0.00  0.00    -0.590 OA
ENDROOT
BRANCH   4   7
ATOM      7  C   LIG    1       -6.042  -1.135   5.076  0.00  0.00    +0.360 C 
ATOM      8  C   LIG    1       -7.443  -1.370   4.508  0.00  0.00    +0.060 C 
BRANCH   7   9
ATOM      9  C   LIG    1       -6.027  -1.492   6.540  0.00  0.00    +0.280 A 
ATOM     10  N   LIG    1       -6.196  -0.647   7.514  0.00  0.00    -0.480 NA
ATOM     11  C   LIG    1       -6.124  -1.300   8.703  0.00  0.00    +0.050 A 
ATOM     12  C   LIG    1       -6.232  -0.892  10.035  0.00  0.00    +0.070 A 
ATOM     13  C   LIG    1       -6.112  -1.810  11.040  0.00  0.00    +0.000 A 
ATOM     14  C   LIG    1       -5.881  -3.147  10.753  0.00  0.00    +0.030 A 
ATOM     15  C   LIG    1       -5.771  -3.573   9.446  0.00  0.00    +0.010 A 
ATOM     16  C   LIG    1       -5.891  -2.655   8.412  0.00  0.00    +0.050 A 
ATOM     17  N   LIG    1       -5.840  -2.745   7.035  0.00  0.00    -0.590 N 
ATOM     18  H   LIG    1       -5.695  -3.552   6.517  0.00  0.00    +0.430 HD
ENDBRANCH   7   9
ENDBRANCH   4   7
BRANCH   1  19
ATOM     19  C   LIG    1       -4.220   2.462   2.343  0.00  0.00    +0.320 C 
BRANCH  19  24
ATOM     20  C   LIG    1        1.490   1.575   2.427  0.00  0.00    +0.080 C 
ATOM     21  C   LIG    1        0.001   1.806   2.405  0.00  0.00    -0.090 A 
ATOM     22  C   LIG    1       -0.646   2.252   3.542  0.00  0.00    +0.000 A 
ATOM     23  C   LIG    1       -2.012   2.464   3.522  0.00  0.00    +0.010 A 
ATOM     24  C   LIG    1       -2.731   2.230   2.365  0.00  0.00    -0.100 A 
ATOM     25  C   LIG    1       -2.083   1.789   1.226  0.00  0.00    +0.020 A 
ATOM     26  C   LIG    1       -0.718   1.572   1.248  0.00  0.00    -0.090 A 
ATOM     27  C   LIG    1       -0.013   1.086   0.008  0.00  0.00    +0.090 C 
ENDBRANCH  19  24
BRANCH  19  28
ATOM     28  C   LIG    1       -4.500   3.957   2.170  0.00  0.00    +0.090 C 
BRANCH  28  29
ATOM     29  C   LIG    1       -5.984   4.175   2.025  0.00  0.00    -0.080 A 
ATOM     30  C   LIG    1       -6.565   4.162   0.770  0.00  0.00    +0.010 A 
ATOM     31  C   LIG    1       -7.927   4.358   0.638  0.00  0.00    +0.000 A 
ATOM     32  C   LIG    1       -8.707   4.577   1.758  0.00  0.00    +0.000 A 
ATOM     33  C   LIG    1       -8.125   4.595   3.012  0.00  0.00    +0.000 A 
ATOM     34  C   LIG    1       -6.764   4.394   3.145  0.00  0.00    +0.010 A 
ENDBRANCH  28  29
ENDBRANCH  19  28
ENDBRANCH   1  19
TORSDOF 6
