REMARK  Name = ZINCqH0000038uP5.0
REMARK                            x       y       z     vdW  Elec       q    Type
REMARK                         _______ _______ _______ _____ _____    ______ ____
ROOT
ATOM      1  C   LIG    1        1.147   1.655   0.000  0.00  0.00    +0.600 C 
ATOM      2  N   LIG    1       -0.011   0.966   0.007  0.00  0.00    -0.720 N 
ATOM      3  H   LIG    1        0.002  -0.004   0.002  0.00  0.00    +0.400 HD
ATOM      4  O   LIG    1        1.130   2.873   0.007  0.00  0.00    -0.510 OA
ENDROOT
BRANCH   1  11
ATOM      5  C   LIG    1        6.944  -0.374  -0.065  0.00  0.00    +0.170 C 
ATOM      6  C   LIG    1        5.942   0.752  -0.050  0.00  0.00    +0.200 A 
ATOM      7  C   LIG    1        6.360   2.044  -0.047  0.00  0.00    -0.060 A 
ATOM      8  C   LIG    1        5.411   3.072  -0.033  0.00  0.00    +0.380 A 
ATOM      9  N   LIG    1        4.127   2.785  -0.022  0.00  0.00    -0.450 NA
ATOM     10  C   LIG    1        3.710   1.518  -0.025  0.00  0.00    +0.330 A 
ATOM     11  C   LIG    1        2.426   0.940  -0.016  0.00  0.00    -0.300 A 
ATOM     12  C   LIG    1        2.605  -0.455  -0.019  0.00  0.00    +0.330 A 
ATOM     13  N   LIG    1        3.886  -0.714  -0.038  0.00  0.00    -0.310 NA
ATOM     14  N   LIG    1        4.605   0.487  -0.039  0.00  0.00    -0.310 N 
ENDBRANCH   1  11
BRANCH   2  15
ATOM     15  C   LIG    1       -1.290   1.681   0.017  0.00  0.00    +0.230 C 
ATOM     16  C   LIG    1       -1.377   2.553   1.272  0.00  0.00    +0.040 C 
ATOM     17  C   LIG    1       -1.278   1.667   2.516  0.00  0.00    +0.010 C 
ATOM     18  C   LIG    1       -2.427   0.657   2.516  0.00  0.00    +0.000 C 
ATOM     19  C   LIG    1       -2.340  -0.214   1.261  0.00  0.00    +0.010 C 
ATOM     20  C   LIG    1       -2.439   0.671   0.017  0.00  0.00    +0.030 C 
BRANCH  15  21
ATOM     21  C   LIG    1       -1.387   2.553  -1.208  0.00  0.00    -0.110 A 
ATOM     22  C   LIG    1       -0.349   2.582  -2.120  0.00  0.00    +0.070 A 
ATOM     23  C   LIG    1       -0.441   3.377  -3.247  0.00  0.00    -0.010 A 
ATOM     24  C   LIG    1       -1.565   4.153  -3.457  0.00  0.00    +0.040 A 
ATOM     25  C   LIG    1       -2.603   4.130  -2.544  0.00  0.00    -0.030 A 
ATOM     26  C   LIG    1       -2.514   3.329  -1.418  0.00  0.00    +0.100 A 
ATOM     27  F   LIG    1       -3.528   3.305  -0.525  0.00  0.00    -0.140 F 
ENDBRANCH  15  21
ENDBRANCH   2  15
TORSDOF 3
