REMARK  Name = ZINCnE000001M5Hq.1
REMARK                            x       y       z     vdW  Elec       q    Type
REMARK                         _______ _______ _______ _____ _____    ______ ____
ROOT
ATOM      1  C   LIG    1       -1.276  -0.773  -0.160  0.00  0.00    +0.550 C 
ATOM      2  N   LIG    1       -1.245  -2.110   0.003  0.00  0.00    -0.660 N 
ATOM      3  H   LIG    1       -0.394  -2.575   0.041  0.00  0.00    +0.400 HD
ATOM      4  O   LIG    1       -2.340  -0.203  -0.304  0.00  0.00    -0.490 OA
ENDROOT
BRANCH   1   9
ATOM      5  C   LIG    1        2.383   0.082   0.000  0.00  0.00    -0.090 A 
ATOM      6  C   LIG    1        2.343   1.462  -0.168  0.00  0.00    +0.040 A 
ATOM      7  C   LIG    1        1.132   2.108  -0.333  0.00  0.00    +0.040 A 
ATOM      8  C   LIG    1       -0.046   1.388  -0.331  0.00  0.00    +0.010 A 
ATOM      9  C   LIG    1       -0.017   0.001  -0.162  0.00  0.00    -0.100 A 
ATOM     10 CL   LIG    1       -1.563   2.204  -0.545  0.00  0.00    -0.020 Cl
ATOM     11  C   LIG    1        1.205  -0.651   0.004  0.00  0.00    +0.080 A 
BRANCH   5  13
ATOM     12  C   LIG    1        5.125   0.627   0.131  0.00  0.00    +0.140 C 
ATOM     13  S   LIG    1        3.930  -0.736   0.209  0.00  0.00    -0.100 S 
ENDBRANCH   5  13
ENDBRANCH   1   9
BRANCH   2  14
ATOM     14  C   LIG    1       -2.437  -2.828   0.117  0.00  0.00    +0.120 A 
ATOM     15  C   LIG    1       -3.537  -2.252   0.743  0.00  0.00    +0.020 A 
ATOM     16  C   LIG    1       -4.716  -2.956   0.852  0.00  0.00    +0.040 A 
ATOM     17  C   LIG    1       -4.803  -4.252   0.342  0.00  0.00    +0.040 A 
ATOM     18  C   LIG    1       -3.696  -4.830  -0.281  0.00  0.00    +0.040 A 
ATOM     19  C   LIG    1       -2.521  -4.119  -0.392  0.00  0.00    -0.020 A 
BRANCH  17  20
ATOM     20  C   LIG    1       -6.066  -5.012   0.462  0.00  0.00    +0.080 A 
ATOM     21  N   LIG    1       -6.299  -6.250   0.021  0.00  0.00    -0.370 NA
ATOM     22  N   LIG    1       -7.516  -6.547   0.324  0.00  0.00    -0.190 NA
ATOM     23  N   LIG    1       -8.059  -5.549   0.928  0.00  0.00    -0.190 NA
ATOM     24  N   LIG    1       -7.200  -4.593   1.029  0.00  0.00    -0.370 NA
ENDBRANCH  17  20
ENDBRANCH   2  14
TORSDOF 4
