REMARK  Name = ZINCnE000001M5Hq.0
REMARK                            x       y       z     vdW  Elec       q    Type
REMARK                         _______ _______ _______ _____ _____    ______ ____
ROOT
ATOM      1  C   LIG    1       -1.276  -0.773  -0.159  0.00  0.00    +0.550 C 
ATOM      2  N   LIG    1       -1.245  -2.110   0.003  0.00  0.00    -0.660 N 
ATOM      3  H   LIG    1       -0.394  -2.575   0.041  0.00  0.00    +0.400 HD
ATOM      4  O   LIG    1       -2.340  -0.202  -0.302  0.00  0.00    -0.490 OA
ENDROOT
BRANCH   1   9
ATOM      5  C   LIG    1        2.383   0.082   0.000  0.00  0.00    -0.090 A 
ATOM      6  C   LIG    1        2.343   1.462  -0.167  0.00  0.00    +0.040 A 
ATOM      7  C   LIG    1        1.133   2.108  -0.331  0.00  0.00    +0.040 A 
ATOM      8  C   LIG    1       -0.046   1.388  -0.329  0.00  0.00    +0.010 A 
ATOM      9  C   LIG    1       -0.017   0.001  -0.161  0.00  0.00    -0.100 A 
ATOM     10 CL   LIG    1       -1.563   2.205  -0.542  0.00  0.00    -0.020 Cl
ATOM     11  C   LIG    1        1.205  -0.651   0.003  0.00  0.00    +0.080 A 
BRANCH   5  13
ATOM     12  C   LIG    1        5.125   0.626   0.130  0.00  0.00    +0.140 C 
ATOM     13  S   LIG    1        3.930  -0.736   0.207  0.00  0.00    -0.100 S 
ENDBRANCH   5  13
ENDBRANCH   1   9
BRANCH   2  14
ATOM     14  C   LIG    1       -2.438  -2.829   0.117  0.00  0.00    +0.120 A 
ATOM     15  C   LIG    1       -3.538  -2.253   0.743  0.00  0.00    +0.010 A 
ATOM     16  C   LIG    1       -4.718  -2.958   0.851  0.00  0.00    +0.040 A 
ATOM     17  C   LIG    1       -4.804  -4.252   0.342  0.00  0.00    +0.040 A 
ATOM     18  C   LIG    1       -3.699  -4.830  -0.280  0.00  0.00    +0.040 A 
ATOM     19  C   LIG    1       -2.522  -4.119  -0.392  0.00  0.00    -0.020 A 
BRANCH  17  20
ATOM     20  C   LIG    1       -6.072  -5.015   0.463  0.00  0.00    +0.080 A 
ATOM     21  N   LIG    1       -6.301  -6.248   0.022  0.00  0.00    -0.370 NA
ATOM     22  N   LIG    1       -7.518  -6.548   0.324  0.00  0.00    -0.190 NA
ATOM     23  N   LIG    1       -8.062  -5.550   0.928  0.00  0.00    -0.190 NA
ATOM     24  N   LIG    1       -7.199  -4.596   1.027  0.00  0.00    -0.370 NA
ENDBRANCH  17  20
ENDBRANCH   2  14
TORSDOF 4
