REMARK  Name = ZINCrH000004k04i.0
REMARK                            x       y       z     vdW  Elec       q    Type
REMARK                         _______ _______ _______ _____ _____    ______ ____
ROOT
ATOM      1  C   LIG    1       -2.746   1.323  -4.064  0.00  0.00    +0.160 C 
ENDROOT
BRANCH   1   2
ATOM      2  C   LIG    1       -3.191   2.132  -5.254  0.00  0.00    +0.450 A 
ATOM      3  N   LIG    1       -2.725   3.342  -5.397  0.00  0.00    -0.580 NA
ATOM      4  C   LIG    1       -3.081   4.110  -6.441  0.00  0.00    +0.540 A 
ATOM      5  C   LIG    1       -4.030   3.562  -7.430  0.00  0.00    -0.210 A 
ATOM      6  C   LIG    1       -4.494   2.280  -7.226  0.00  0.00    +0.050 A 
ATOM      7  S   LIG    1       -5.599   1.838  -8.515  0.00  0.00    +0.200 S 
ATOM      8  C   LIG    1       -5.414   3.401  -9.309  0.00  0.00    -0.220 A 
ATOM      9  C   LIG    1       -5.938   4.119 -10.549  0.00  0.00    +0.130 C 
ATOM     10  C   LIG    1       -4.958   5.287 -10.773  0.00  0.00    +0.050 C 
ATOM     11  C   LIG    1       -4.435   5.531  -9.344  0.00  0.00    +0.110 C 
ATOM     12  C   LIG    1       -4.579   4.183  -8.637  0.00  0.00    -0.050 A 
ATOM     13  O   LIG    1       -2.634   5.239  -6.565  0.00  0.00    -0.480 OA
ATOM     14  N   LIG    1       -4.055   1.581  -6.121  0.00  0.00    -0.590 N 
ATOM     15  H   LIG    1       -4.375   0.678  -5.968  0.00  0.00    +0.430 HD
ENDBRANCH   1   2
BRANCH   1  16
ATOM     16  C   LIG    1       -1.770   2.148  -3.222  0.00  0.00    +0.100 C 
BRANCH  16  19
ATOM     17  C   LIG    1        0.051   3.226  -1.337  0.00  0.00    +0.290 C 
ATOM     18  N   LIG    1       -0.458   1.866  -1.144  0.00  0.00    -0.610 N 
ATOM     19  C   LIG    1       -1.325   1.339  -2.032  0.00  0.00    +0.510 C 
ATOM     20  O   LIG    1       -1.747   0.213  -1.872  0.00  0.00    -0.520 OA
BRANCH  18  21
ATOM     21  C   LIG    1       -0.025   1.079   0.013  0.00  0.00    +0.340 C 
BRANCH  21  22
ATOM     22  C   LIG    1        1.290   0.412  -0.296  0.00  0.00    -0.100 A 
ATOM     23  C   LIG    1        2.476   1.019   0.071  0.00  0.00    +0.040 A 
ATOM     24  C   LIG    1        3.683   0.408  -0.213  0.00  0.00    +0.010 A 
ATOM     25  C   LIG    1        3.705  -0.811  -0.865  0.00  0.00    +0.030 A 
ATOM     26  C   LIG    1        2.519  -1.419  -1.233  0.00  0.00    +0.010 A 
ATOM     27  C   LIG    1        1.311  -0.811  -0.943  0.00  0.00    -0.030 A 
ATOM     28 CL   LIG    1       -0.179  -1.578  -1.398  0.00  0.00    -0.030 Cl
ENDBRANCH  21  22
ENDBRANCH  18  21
ENDBRANCH  16  19
ENDBRANCH   1  16
TORSDOF 5
