REMARK  Name = ZINCqH00000363in.0
REMARK                            x       y       z     vdW  Elec       q    Type
REMARK                         _______ _______ _______ _____ _____    ______ ____
ROOT
ATOM      1  C   LIG    1       -2.203   2.510   3.424  0.00  0.00    +0.280 C 
ATOM      2  C   LIG    1       -2.090   4.001   3.044  0.00  0.00    +0.050 C 
ATOM      3  C   LIG    1       -3.210   4.662   3.890  0.00  0.00    +0.040 C 
ATOM      4  C   LIG    1       -3.161   3.815   5.186  0.00  0.00    +0.240 C 
ATOM      5  N   LIG    1       -2.877   2.439   4.729  0.00  0.00    -0.620 N 
ATOM      6  C   LIG    1       -3.185   1.307   5.394  0.00  0.00    +0.610 C 
ATOM      7  O   LIG    1       -2.994   0.224   4.872  0.00  0.00    -0.520 OA
ENDROOT
BRANCH   1  12
ATOM      8  C   LIG    1        1.030   1.171   4.852  0.00  0.00    +0.100 A 
ATOM      9  C   LIG    1        1.702   0.785   3.702  0.00  0.00    -0.040 A 
ATOM     10  C   LIG    1        1.109   0.953   2.466  0.00  0.00    -0.040 A 
ATOM     11  C   LIG    1       -0.158   1.509   2.374  0.00  0.00    +0.100 A 
ATOM     12  C   LIG    1       -0.829   1.900   3.524  0.00  0.00    -0.080 A 
ATOM     13  C   LIG    1       -0.238   1.727   4.761  0.00  0.00    +0.030 A 
BRANCH   8  15
ATOM     14  C   LIG    1        2.920   0.427   6.089  0.00  0.00    +0.230 C 
ATOM     15  O   LIG    1        1.613   1.006   6.069  0.00  0.00    -0.320 OA
ENDBRANCH   8  15
BRANCH  11  16
ATOM     16  O   LIG    1       -0.742   1.674   1.157  0.00  0.00    -0.310 OA
ATOM     17  C   LIG    1        0.008   1.254   0.016  0.00  0.00    +0.230 C 
ENDBRANCH  11  16
ENDBRANCH   1  12
BRANCH   6  18
ATOM     18  C   LIG    1       -3.746   1.381   6.741  0.00  0.00    -0.330 A 
ATOM     19  C   LIG    1       -4.208   0.316   7.465  0.00  0.00    +0.120 A 
ATOM     20  C   LIG    1       -4.683   0.662   8.704  0.00  0.00    -0.070 A 
ATOM     21  C   LIG    1       -4.612   1.988   8.990  0.00  0.00    +0.000 A 
ATOM     22  S   LIG    1       -3.928   2.852   7.687  0.00  0.00    +0.330 S 
BRANCH  21  23
ATOM     23  N   LIG    1       -5.035   2.562  10.183  0.00  0.00    -0.630 N 
ATOM     24  H   LIG    1       -5.411   2.005  10.882  0.00  0.00    +0.420 HD
ATOM     25  C   LIG    1       -4.920   3.892  10.368  0.00  0.00    +0.500 C 
ATOM     26  O   LIG    1       -4.449   4.588   9.493  0.00  0.00    -0.510 OA
ATOM     27  C   LIG    1       -5.378   4.514  11.662  0.00  0.00    +0.130 C 
ENDBRANCH  21  23
ENDBRANCH   6  18
TORSDOF 5
