REMARK  Name = ZINCrD00000759H1.0
REMARK                            x       y       z     vdW  Elec       q    Type
REMARK                         _______ _______ _______ _____ _____    ______ ____
ROOT
ATOM      1  C   LIG    1       -1.160  -0.635  -0.378  0.00  0.00    +0.560 C 
ATOM      2  O   LIG    1       -2.190  -0.010  -0.219  0.00  0.00    -0.480 OA
ENDROOT
BRANCH   1   5
ATOM      3  C   LIG    1       -1.043  -2.921   1.847  0.00  0.00    +0.210 C 
ATOM      4  C   LIG    1       -1.159  -3.091   0.354  0.00  0.00    +0.050 A 
ATOM      5  C   LIG    1       -1.208  -2.091  -0.585  0.00  0.00    -0.240 A 
ATOM      6  C   LIG    1       -1.314  -2.839  -1.856  0.00  0.00    +0.110 A 
ATOM      7  N   LIG    1       -1.318  -4.101  -1.509  0.00  0.00    -0.340 NA
ATOM      8  O   LIG    1       -1.238  -4.244  -0.314  0.00  0.00    +0.110 OA
BRANCH   6   9
ATOM      9  C   LIG    1       -1.397  -2.280  -3.227  0.00  0.00    -0.030 A 
ATOM     10  C   LIG    1       -2.085  -1.089  -3.456  0.00  0.00    +0.030 A 
ATOM     11  C   LIG    1       -2.155  -0.571  -4.733  0.00  0.00    +0.010 A 
ATOM     12  C   LIG    1       -1.553  -1.236  -5.786  0.00  0.00    +0.030 A 
ATOM     13  C   LIG    1       -0.875  -2.421  -5.566  0.00  0.00    +0.010 A 
ATOM     14  C   LIG    1       -0.794  -2.946  -4.292  0.00  0.00    +0.050 A 
ENDBRANCH   6   9
ENDBRANCH   1   5
BRANCH   1  15
ATOM     15  O   LIG    1        0.026   0.005  -0.364  0.00  0.00    -0.320 OA
BRANCH  15  16
ATOM     16  C   LIG    1       -0.003   1.442  -0.155  0.00  0.00    +0.270 C 
BRANCH  16  17
ATOM     17  C   LIG    1        1.405   1.980  -0.171  0.00  0.00    +0.520 C 
ATOM     18  N   LIG    1        1.625   3.298   0.004  0.00  0.00    -0.670 N 
ATOM     19  H   LIG    1        0.875   3.910   0.064  0.00  0.00    +0.420 HD
ATOM     20  O   LIG    1        2.340   1.226  -0.342  0.00  0.00    -0.480 OA
BRANCH  18  21
ATOM     21  C   LIG    1        2.930   3.781   0.100  0.00  0.00    +0.180 A 
ATOM     22  C   LIG    1        3.916   3.003   0.699  0.00  0.00    +0.030 A 
ATOM     23  C   LIG    1        5.206   3.474   0.790  0.00  0.00    +0.090 A 
ATOM     24  C   LIG    1        5.523   4.741   0.290  0.00  0.00    -0.040 A 
ATOM     25  C   LIG    1        4.529   5.522  -0.306  0.00  0.00    +0.090 A 
ATOM     26  C   LIG    1        3.242   5.041  -0.399  0.00  0.00    +0.000 A 
BRANCH  24  27
ATOM     27  C   LIG    1        6.863   5.237   0.389  0.00  0.00    +0.250 C 
ATOM     28  N   LIG    1        7.925   5.631   0.467  0.00  0.00    -0.410 NA
ENDBRANCH  24  27
ENDBRANCH  18  21
ENDBRANCH  16  17
ENDBRANCH  15  16
ENDBRANCH   1  15
TORSDOF 7
