REMARK  Name = ZINCrD00000fNkSF.2
REMARK                            x       y       z     vdW  Elec       q    Type
REMARK                         _______ _______ _______ _____ _____    ______ ____
ROOT
ATOM      1  C   LIG    1       -0.798   1.615   1.234  0.00  0.00    +0.020 C 
ATOM      2  C   LIG    1       -0.013   1.086   0.008  0.00  0.00    +0.180 C 
ATOM      3  N   LIG    1       -0.788   1.606  -1.147  0.00  0.00    -0.510 NA
ATOM      4  C   LIG    1       -1.209   2.972  -0.768  0.00  0.00    +0.210 C 
ATOM      5  C   LIG    1       -1.253   3.020   0.771  0.00  0.00    +0.040 C 
ENDROOT
BRANCH   5   6
ATOM      6  C   LIG    1       -2.655   3.302   1.246  0.00  0.00    -0.070 A 
ATOM      7  C   LIG    1       -3.688   2.453   0.892  0.00  0.00    +0.050 A 
ATOM      8  C   LIG    1       -4.973   2.708   1.331  0.00  0.00    +0.020 A 
ATOM      9  C   LIG    1       -5.228   3.819   2.116  0.00  0.00    -0.040 A 
ATOM     10  C   LIG    1       -4.195   4.670   2.465  0.00  0.00    +0.020 A 
ATOM     11 CL   LIG    1       -6.844   4.144   2.662  0.00  0.00    -0.070 Cl
ATOM     12  C   LIG    1       -2.909   4.411   2.030  0.00  0.00    +0.030 A 
ENDBRANCH   5   6
BRANCH   1  13
ATOM     13  C   LIG    1        0.113   1.714   2.459  0.00  0.00    +0.180 C 
BRANCH  13  14
ATOM     14  O   LIG    1        0.515   0.403   2.860  0.00  0.00    -0.570 OA
ATOM     15  H   LIG    1        1.096   0.389   3.633  0.00  0.00    +0.380 HD
ENDBRANCH  13  14
ENDBRANCH   1  13
BRANCH   3  16
ATOM     16  C   LIG    1        0.033   1.628  -2.365  0.00  0.00    +0.340 C 
BRANCH  16  17
ATOM     17  C   LIG    1        0.294   0.215  -2.821  0.00  0.00    +0.170 A 
ATOM     18  N   LIG    1       -0.449  -0.480  -3.636  0.00  0.00    -0.260 NA
ATOM     19  N   LIG    1        0.072  -1.644  -3.807  0.00  0.00    -0.260 NA
ATOM     20  C   LIG    1        1.170  -1.736  -3.092  0.00  0.00    +0.210 A 
ATOM     21  O   LIG    1        1.331  -0.559  -2.454  0.00  0.00    -0.220 OA
BRANCH  20  22
ATOM     22  C   LIG    1        2.063  -2.909  -3.005  0.00  0.00    -0.060 A 
ATOM     23  C   LIG    1        3.206  -2.863  -2.205  0.00  0.00    +0.060 A 
ATOM     24  C   LIG    1        4.032  -3.964  -2.123  0.00  0.00    +0.010 A 
ATOM     25  C   LIG    1        3.740  -5.111  -2.839  0.00  0.00    +0.060 A 
ATOM     26  C   LIG    1        2.614  -5.168  -3.639  0.00  0.00    -0.010 A 
ATOM     27  C   LIG    1        1.770  -4.072  -3.728  0.00  0.00    +0.160 A 
BRANCH  27  28
ATOM     28  O   LIG    1        0.664  -4.126  -4.513  0.00  0.00    -0.480 OA
ATOM     29  H   LIG    1        0.813  -3.836  -5.423  0.00  0.00    +0.400 HD
ENDBRANCH  27  28
ENDBRANCH  20  22
ENDBRANCH  16  17
ENDBRANCH   3  16
TORSDOF 7
