REMARK  Name = ZINCpe000000VaLb.0
REMARK                            x       y       z     vdW  Elec       q    Type
REMARK                         _______ _______ _______ _____ _____    ______ ____
ROOT
ATOM      1  C   LIG    1       -2.314   3.807  -2.181  0.00  0.00    +0.300 C 
ENDROOT
BRANCH   1   2
ATOM      2  C   LIG    1       -2.962   2.619  -1.516  0.00  0.00    +0.520 C 
ATOM      3  N   LIG    1       -2.204   1.720  -0.857  0.00  0.00    -0.610 N 
ATOM      4  C   LIG    1       -2.832   0.583  -0.220  0.00  0.00    +0.280 C 
ATOM      5  C   LIG    1       -3.397   1.008   1.148  0.00  0.00    +0.050 C 
ATOM      6  C   LIG    1       -2.390   1.049   2.201  0.00  0.00    -0.310 C 
ATOM      7  S   LIG    1       -1.123   2.324   1.909  0.00  0.00    +1.250 S 
ATOM      8  C   LIG    1       -0.126   1.621   0.586  0.00  0.00    -0.240 C 
ATOM      9  O   LIG    1       -0.326   2.472   3.076  0.00  0.00    -0.840 OA
ATOM     10  C   LIG    1       -3.081   1.335   3.535  0.00  0.00    +0.060 C 
ATOM     11  C   LIG    1       -0.753   1.903  -0.790  0.00  0.00    +0.300 C 
ATOM     12  O   LIG    1       -4.164   2.472  -1.575  0.00  0.00    -0.490 OA
ENDBRANCH   1   2
BRANCH   1  13
ATOM     13  N   LIG    1       -3.343   4.627  -2.825  0.00  0.00    -0.690 N 
ATOM     14  H   LIG    1       -4.198   4.234  -3.062  0.00  0.00    +0.420 HD
ATOM     15  C   LIG    1       -3.102   5.926  -3.090  0.00  0.00    +0.660 C 
ATOM     16  O   LIG    1       -2.065   6.439  -2.718  0.00  0.00    -0.570 OA
BRANCH  15  17
ATOM     17  O   LIG    1       -4.009   6.655  -3.766  0.00  0.00    -0.360 OA
BRANCH  17  18
ATOM     18  C   LIG    1       -3.682   8.048  -4.015  0.00  0.00    +0.140 C 
ATOM     19  C   LIG    1       -3.484   8.771  -2.681  0.00  0.00    +0.040 C 
ATOM     20  C   LIG    1       -4.824   8.709  -4.789  0.00  0.00    +0.080 C 
ATOM     21  C   LIG    1       -2.394   8.130  -4.836  0.00  0.00    +0.040 C 
ENDBRANCH  17  18
ENDBRANCH  15  17
ENDBRANCH   1  13
BRANCH   1  22
ATOM     22  C   LIG    1       -1.316   3.320  -3.234  0.00  0.00    +0.110 C 
BRANCH  22  23
ATOM     23  C   LIG    1       -2.034   2.472  -4.252  0.00  0.00    +0.450 C 
ATOM     24  O   LIG    1       -3.237   2.371  -4.214  0.00  0.00    -0.490 OA
BRANCH  23  26
ATOM     25  C   LIG    1       -2.093   1.030  -6.149  0.00  0.00    +0.260 C 
ATOM     26  O   LIG    1       -1.336   1.829  -5.201  0.00  0.00    -0.360 OA
ENDBRANCH  23  26
ENDBRANCH  22  23
ENDBRANCH   1  22
TORSDOF 7
