REMARK  Name = ZINCpe00000MJIeQ.0
REMARK                            x       y       z     vdW  Elec       q    Type
REMARK                         _______ _______ _______ _____ _____    ______ ____
ROOT
ATOM      1  N   LIG    1        4.141   1.596   1.420  0.00  0.00    -0.600 N 
ATOM      2  C   LIG    1        3.442   0.727   2.171  0.00  0.00    +0.530 C 
ATOM      3  C   LIG    1        2.493  -0.067   1.302  0.00  0.00    +0.070 C 
ATOM      4  C   LIG    1        2.424   0.737  -0.017  0.00  0.00    +0.010 C 
ATOM      5  O   LIG    1        3.555   0.600   3.372  0.00  0.00    -0.520 OA
ATOM      6  C   LIG    1        3.771   1.492   0.004  0.00  0.00    +0.330 C 
ENDROOT
BRANCH   6   7
ATOM      7  C   LIG    1        4.817   0.714  -0.752  0.00  0.00    +0.180 A 
ATOM      8  N   LIG    1        5.420  -0.362  -0.327  0.00  0.00    -0.460 NA
ATOM      9  C   LIG    1        6.286  -0.783  -1.260  0.00  0.00    +0.140 A 
ATOM     10  C   LIG    1        6.217   0.065  -2.304  0.00  0.00    +0.130 A 
ATOM     11  N   LIG    1        5.281   1.011  -1.985  0.00  0.00    -0.450 N 
ATOM     12  C   LIG    1        4.864   2.138  -2.823  0.00  0.00    +0.330 C 
ENDBRANCH   6   7
BRANCH   1  14
ATOM     13  C   LIG    1        6.517   1.856   1.937  0.00  0.00    +0.020 C 
ATOM     14  C   LIG    1        5.141   2.527   1.948  0.00  0.00    +0.290 C 
ENDBRANCH   1  14
BRANCH   4  15
ATOM     15  C   LIG    1        1.248   1.716  -0.001  0.00  0.00    +0.290 C 
BRANCH  15  16
ATOM     16  N   LIG    1       -0.011   0.966   0.007  0.00  0.00    -0.710 N 
ATOM     17  H   LIG    1        0.002  -0.004   0.002  0.00  0.00    +0.410 HD
ATOM     18  C   LIG    1       -1.187   1.624   0.017  0.00  0.00    +0.580 C 
ATOM     19  O   LIG    1       -1.204   2.839   0.023  0.00  0.00    -0.520 OA
BRANCH  18  20
ATOM     20  C   LIG    1       -2.460   0.866   0.018  0.00  0.00    +0.010 A 
ATOM     21  C   LIG    1       -3.678   1.544   0.028  0.00  0.00    +0.300 A 
ATOM     22  N   LIG    1       -4.810   0.864   0.029  0.00  0.00    -0.440 NA
ATOM     23  C   LIG    1       -4.789  -0.457   0.021  0.00  0.00    +0.110 A 
ATOM     24  C   LIG    1       -3.578  -1.135   0.012  0.00  0.00    +0.230 A 
ATOM     25  C   LIG    1       -6.083  -1.229   0.023  0.00  0.00    +0.160 C 
ATOM     26  N   LIG    1       -2.444  -0.465   0.006  0.00  0.00    -0.410 NA
ENDBRANCH  18  20
ENDBRANCH  15  16
ENDBRANCH   4  15
TORSDOF 5
