REMARK  Name = ZINCqH0000037zio.0
REMARK                            x       y       z     vdW  Elec       q    Type
REMARK                         _______ _______ _______ _____ _____    ______ ____
ROOT
ATOM      1  C   LIG    1        0.002  -0.004   0.002  0.00  0.00    +0.570 C 
ATOM      2  N   LIG    1       -0.016   1.344   0.009  0.00  0.00    -0.630 N 
ATOM      3  H   LIG    1        0.817   1.840   0.004  0.00  0.00    +0.410 HD
ATOM      4  O   LIG    1       -1.043  -0.626   0.009  0.00  0.00    -0.530 OA
ENDROOT
BRANCH   1  13
ATOM      5  C   LIG    1        1.972  -5.371  -0.045  0.00  0.00    +0.180 C 
ATOM      6  C   LIG    1        2.914  -4.194  -0.048  0.00  0.00    +0.120 A 
ATOM      7  N   LIG    1        4.215  -4.252  -0.061  0.00  0.00    -0.250 NA
ATOM      8  N   LIG    1        4.753  -2.962  -0.059  0.00  0.00    -0.500 N 
ATOM      9  H   LIG    1        5.699  -2.747  -0.067  0.00  0.00    +0.440 HD
ATOM     10  C   LIG    1        3.734  -2.049  -0.045  0.00  0.00    +0.160 A 
ATOM     11  C   LIG    1        3.692  -0.655  -0.036  0.00  0.00    -0.010 A 
ATOM     12  C   LIG    1        2.495  -0.005  -0.028  0.00  0.00    +0.090 A 
ATOM     13  C   LIG    1        1.291  -0.725  -0.014  0.00  0.00    -0.180 A 
ATOM     14  C   LIG    1        1.308  -2.115  -0.022  0.00  0.00    +0.190 A 
ATOM     15  C   LIG    1        2.531  -2.785  -0.037  0.00  0.00    -0.190 A 
ENDBRANCH   1  13
BRANCH   2  16
ATOM     16  C   LIG    1       -1.244   2.030   0.019  0.00  0.00    +0.010 A 
ATOM     17  C   LIG    1       -2.478   1.463   0.016  0.00  0.00    +0.260 A 
ATOM     18  N   LIG    1       -3.391   2.469   0.030  0.00  0.00    -0.390 N 
ATOM     19  N   LIG    1       -2.694   3.683   0.034  0.00  0.00    -0.260 NA
ATOM     20  C   LIG    1       -1.412   3.423   0.027  0.00  0.00    +0.110 A 
BRANCH  20  21
ATOM     21  C   LIG    1       -0.304   4.445   0.028  0.00  0.00    +0.030 C 
ATOM     22  C   LIG    1       -0.694   5.909   0.241  0.00  0.00    +0.040 C 
ATOM     23  C   LIG    1       -0.251   5.429  -1.143  0.00  0.00    +0.040 C 
ENDBRANCH  20  21
BRANCH  18  24
ATOM     24  C   LIG    1       -4.848   2.310   0.036  0.00  0.00    +0.370 C 
BRANCH  24  25
ATOM     25  C   LIG    1       -5.439   3.071   1.224  0.00  0.00    +0.440 C 
ATOM     26  F   LIG    1       -4.910   2.561   2.414  0.00  0.00    -0.180 F 
ATOM     27  F   LIG    1       -6.830   2.920   1.229  0.00  0.00    -0.180 F 
ATOM     28  F   LIG    1       -5.118   4.429   1.115  0.00  0.00    -0.160 F 
ENDBRANCH  24  25
ENDBRANCH  18  24
ENDBRANCH   2  16
TORSDOF 5
