REMARK  Name = ZINCrD0000074NCz.0
REMARK                            x       y       z     vdW  Elec       q    Type
REMARK                         _______ _______ _______ _____ _____    ______ ____
ROOT
ATOM      1  C   LIG    1        0.002  -0.004   0.002  0.00  0.00    +0.460 C 
ATOM      2  O   LIG    1        1.056  -0.594  -0.011  0.00  0.00    -0.500 OA
ENDROOT
BRANCH   1   3
ATOM      3  C   LIG    1       -1.293  -0.775   0.010  0.00  0.00    +0.370 C 
BRANCH   3   5
ATOM      4  C   LIG    1       -2.018  -3.102   0.005  0.00  0.00    +0.570 C 
ATOM      5  N   LIG    1       -1.005  -2.212  -0.000  0.00  0.00    -0.720 N 
ATOM      6  H   LIG    1       -0.087  -2.523  -0.011  0.00  0.00    +0.410 HD
ATOM      7  O   LIG    1       -3.169  -2.712   0.018  0.00  0.00    -0.530 OA
BRANCH   4  13
ATOM      8  C   LIG    1       -3.625  -7.826  -0.006  0.00  0.00    +0.090 C 
ATOM      9  C   LIG    1       -2.497  -6.827  -0.011  0.00  0.00    -0.090 A 
ATOM     10  C   LIG    1       -1.185  -7.267  -0.027  0.00  0.00    +0.040 A 
ATOM     11  C   LIG    1       -0.143  -6.356  -0.032  0.00  0.00    +0.010 A 
ATOM     12  C   LIG    1       -0.407  -5.002  -0.027  0.00  0.00    +0.040 A 
ATOM     13  C   LIG    1       -1.728  -4.551  -0.006  0.00  0.00    -0.130 A 
ATOM     14  C   LIG    1       -2.774  -5.475  -0.001  0.00  0.00    +0.080 A 
ENDBRANCH   4  13
ENDBRANCH   3   5
ENDBRANCH   1   3
BRANCH   1  15
ATOM     15  O   LIG    1       -0.016   1.338   0.009  0.00  0.00    -0.330 OA
BRANCH  15  16
ATOM     16  C   LIG    1        1.268   2.015   0.001  0.00  0.00    +0.240 C 
BRANCH  16  17
ATOM     17  C   LIG    1        1.051   3.506   0.011  0.00  0.00    +0.400 C 
ATOM     18  O   LIG    1       -0.076   3.954   0.024  0.00  0.00    -0.420 OA
BRANCH  17  19
ATOM     19  C   LIG    1        2.205   4.418   0.005  0.00  0.00    -0.170 A 
ATOM     20  C   LIG    1        1.999   5.790   0.008  0.00  0.00    +0.120 A 
ATOM     21  C   LIG    1        3.105   6.653   0.007  0.00  0.00    -0.070 A 
ATOM     22  C   LIG    1        2.937   8.049   0.015  0.00  0.00    +0.040 A 
ATOM     23  C   LIG    1        4.031   8.859   0.008  0.00  0.00    +0.010 A 
ATOM     24  C   LIG    1        5.318   8.325  -0.008  0.00  0.00    +0.030 A 
ATOM     25  C   LIG    1        5.518   6.978  -0.016  0.00  0.00    +0.010 A 
ATOM     26  C   LIG    1        4.415   6.110  -0.009  0.00  0.00    -0.030 A 
ATOM     27  C   LIG    1        4.591   4.713  -0.017  0.00  0.00    +0.030 A 
ATOM     28  C   LIG    1        3.512   3.892  -0.011  0.00  0.00    +0.040 A 
ENDBRANCH  17  19
ENDBRANCH  16  17
ENDBRANCH  15  16
ENDBRANCH   1  15
TORSDOF 7
