REMARK  Name = ZINCpk000000n1JW.0
REMARK                            x       y       z     vdW  Elec       q    Type
REMARK                         _______ _______ _______ _____ _____    ______ ____
ROOT
ATOM      1  C   LIG    1       -3.919  -1.157  -1.752  0.00  0.00    +0.210 C 
ENDROOT
BRANCH   1   2
ATOM      2  O   LIG    1       -4.516  -0.765  -0.514  0.00  0.00    -0.540 OA
ATOM      3  H   LIG    1       -4.828  -1.505   0.024  0.00  0.00    +0.380 HD
ENDBRANCH   1   2
BRANCH   1   4
ATOM      4  C   LIG    1       -4.942  -1.926  -2.590  0.00  0.00    +0.190 C 
BRANCH   4   5
ATOM      5  O   LIG    1       -6.016  -1.055  -2.948  0.00  0.00    -0.300 OA
BRANCH   5   9
ATOM      6  C   LIG    1       -9.051  -2.666  -5.228  0.00  0.00    -0.210 A 
ATOM      7  C   LIG    1       -9.102  -1.322  -4.839  0.00  0.00    +0.120 A 
ATOM      8  C   LIG    1       -8.091  -0.791  -4.081  0.00  0.00    -0.020 A 
ATOM      9  C   LIG    1       -7.015  -1.585  -3.698  0.00  0.00    +0.160 A 
ATOM     10  C   LIG    1       -6.957  -2.920  -4.087  0.00  0.00    -0.100 A 
ATOM     11  C   LIG    1       -7.966  -3.461  -4.840  0.00  0.00    +0.110 A 
BRANCH   6  13
ATOM     12  C   LIG    1      -10.016  -4.649  -6.562  0.00  0.00    +0.070 C 
ATOM     13  C   LIG    1      -10.132  -3.240  -6.040  0.00  0.00    +0.400 C 
ATOM     14  O   LIG    1      -11.119  -2.579  -6.290  0.00  0.00    -0.460 OA
ENDBRANCH   6  13
ENDBRANCH   5   9
ENDBRANCH   4   5
ENDBRANCH   1   4
BRANCH   1  15
ATOM     15  C   LIG    1       -2.710  -2.052  -1.473  0.00  0.00    +0.310 C 
BRANCH  15  16
ATOM     16  N   LIG    1       -1.731  -1.315  -0.670  0.00  0.00    -0.570 N 
ATOM     17  C   LIG    1       -1.712  -1.303   0.669  0.00  0.00    +0.710 C 
ATOM     18  N   LIG    1       -0.710  -0.548   1.161  0.00  0.00    -0.720 N 
ATOM     19  H   LIG    1       -0.502  -0.393   2.096  0.00  0.00    +0.440 HD
ATOM     20  C   LIG    1        0.004  -0.009   0.002  0.00  0.00    +0.120 C 
ATOM     21  C   LIG    1       -0.010   1.522  -0.000  0.00  0.00    +0.050 C 
ATOM     22  C   LIG    1        1.469   1.968  -0.012  0.00  0.00    +0.040 C 
ATOM     23  C   LIG    1        2.236   0.760   0.583  0.00  0.00    +0.030 C 
ATOM     24  C   LIG    1        1.472  -0.456  -0.003  0.00  0.00    +0.060 C 
ATOM     25  O   LIG    1       -2.509  -1.905   1.362  0.00  0.00    -0.540 OA
ATOM     26  C   LIG    1       -0.736  -0.564  -1.189  0.00  0.00    +0.530 C 
ATOM     27  O   LIG    1       -0.489  -0.377  -2.361  0.00  0.00    -0.460 OA
ENDBRANCH  15  16
ENDBRANCH   1  15
TORSDOF 7
