REMARK  Name = ZINCpk00000KexfV.0
REMARK                            x       y       z     vdW  Elec       q    Type
REMARK                         _______ _______ _______ _____ _____    ______ ____
ROOT
ATOM      1  O   LIG    1        3.414   3.458  -0.015  0.00  0.00    -0.510 OA
ATOM      2  C   LIG    1        2.329   4.006  -0.011  0.00  0.00    +0.570 C 
ATOM      3  N   LIG    1        2.255   5.352   0.001  0.00  0.00    -0.660 N 
ATOM      4  H   LIG    1        1.392   5.790  -0.063  0.00  0.00    +0.420 HD
ENDROOT
BRANCH   2   5
ATOM      5  C   LIG    1        1.093   3.198  -0.019  0.00  0.00    -0.200 A 
ATOM      6  C   LIG    1        1.159   1.798  -0.032  0.00  0.00    +0.170 A 
ATOM      7  C   LIG    1       -0.024   1.086  -0.039  0.00  0.00    +0.000 A 
ATOM      8  C   LIG    1       -1.232   1.776  -0.039  0.00  0.00    +0.390 A 
ATOM      9  N   LIG    1       -1.261   3.100  -0.021  0.00  0.00    -0.500 NA
ATOM     10  C   LIG    1       -0.158   3.817  -0.014  0.00  0.00    +0.350 A 
BRANCH   8  11
ATOM     11  N   LIG    1       -2.432   1.062  -0.051  0.00  0.00    -0.340 N 
ATOM     12  C   LIG    1       -3.679   1.576  -0.048  0.00  0.00    +0.530 A 
ATOM     13  N   LIG    1       -4.526   0.580  -0.066  0.00  0.00    -0.540 NA
ATOM     14  C   LIG    1       -3.865  -0.578  -0.073  0.00  0.00    +0.450 A 
ATOM     15  N   LIG    1       -2.580  -0.335  -0.064  0.00  0.00    -0.310 NA
ENDBRANCH   8  11
ENDBRANCH   2   5
BRANCH   3  16
ATOM     16  C   LIG    1        3.422   6.116   0.104  0.00  0.00    +0.170 A 
ATOM     17  C   LIG    1        4.593   5.683  -0.499  0.00  0.00    +0.060 A 
ATOM     18  C   LIG    1        5.743   6.443  -0.401  0.00  0.00    +0.050 A 
ATOM     19  C   LIG    1        5.734   7.630   0.308  0.00  0.00    +0.030 A 
ATOM     20  C   LIG    1        4.572   8.066   0.918  0.00  0.00    +0.040 A 
ATOM     21  C   LIG    1        3.412   7.313   0.820  0.00  0.00    +0.090 A 
BRANCH  21  22
ATOM     22  N   LIG    1        2.233   7.755   1.438  0.00  0.00    -0.240 N 
ATOM     23  C   LIG    1        2.064   8.942   2.080  0.00  0.00    +0.160 A 
ATOM     24  C   LIG    1        0.782   8.952   2.517  0.00  0.00    +0.160 A 
ATOM     25  N   LIG    1        0.241   7.790   2.136  0.00  0.00    -0.250 NA
ATOM     26  N   LIG    1        1.124   7.104   1.500  0.00  0.00    -0.110 NA
ENDBRANCH  21  22
ENDBRANCH   3  16
TORSDOF 4
