REMARK  Name = ZINCrD0000073ApP.0
REMARK                            x       y       z     vdW  Elec       q    Type
REMARK                         _______ _______ _______ _____ _____    ______ ____
ROOT
ATOM      1  C   LIG    1        3.426   3.301   3.169  0.00  0.00    +0.150 A 
ATOM      2  C   LIG    1        3.683   2.087   3.789  0.00  0.00    -0.090 A 
ATOM      3  C   LIG    1        3.244   0.910   3.208  0.00  0.00    +0.080 A 
ATOM      4  C   LIG    1        2.551   0.953   2.020  0.00  0.00    -0.190 A 
ATOM      5  C   LIG    1        2.093  -0.324   1.340  0.00  0.00    +0.350 C 
ATOM      6  N   LIG    1        0.628  -0.349   1.321  0.00  0.00    -0.610 N 
ATOM      7  C   LIG    1       -0.116   0.402   0.308  0.00  0.00    +0.300 C 
ATOM      8  C   LIG    1        0.113   1.899   0.455  0.00  0.00    +0.100 C 
ATOM      9  O   LIG    1        1.503   2.203   0.284  0.00  0.00    -0.320 OA
ATOM     10  C   LIG    1       -0.337   2.347   1.847  0.00  0.00    +0.030 C 
ATOM     11  C   LIG    1       -0.704   2.643  -0.603  0.00  0.00    +0.080 C 
ATOM     12  C   LIG    1       -0.041  -1.070   2.243  0.00  0.00    +0.720 C 
ATOM     13  N   LIG    1        0.637  -1.840   3.117  0.00  0.00    -0.660 N 
ATOM     14  H   LIG    1        1.606  -1.808   3.142  0.00  0.00    +0.410 HD
ATOM     15  O   LIG    1       -1.255  -1.025   2.287  0.00  0.00    -0.570 OA
ATOM     16  C   LIG    1        2.256   2.163   1.408  0.00  0.00    +0.170 A 
ATOM     17  C   LIG    1        2.715   3.342   1.980  0.00  0.00    -0.030 A 
ENDROOT
BRANCH  13  18
ATOM     18  C   LIG    1       -0.056  -2.685   3.987  0.00  0.00    +0.310 A 
ATOM     19  C   LIG    1       -1.376  -3.020   3.712  0.00  0.00    +0.040 A 
ATOM     20  C   LIG    1       -2.052  -3.862   4.577  0.00  0.00    +0.010 A 
ATOM     21  C   LIG    1       -1.381  -4.335   5.703  0.00  0.00    +0.140 A 
ATOM     22  C   LIG    1       -0.065  -3.953   5.915  0.00  0.00    +0.210 A 
ATOM     23  N   LIG    1        0.551  -3.152   5.066  0.00  0.00    -0.480 NA
BRANCH  21  24
ATOM     24  N   LIG    1       -2.027  -5.184   6.608  0.00  0.00    -0.630 N 
ATOM     25  C   LIG    1       -3.452  -5.482   6.444  0.00  0.00    +0.280 C 
ATOM     26  C   LIG    1       -1.279  -5.775   7.720  0.00  0.00    +0.280 C 
ENDBRANCH  21  24
ENDBRANCH  13  18
BRANCH   1  28
ATOM     27  C   LIG    1        4.599   4.342   4.956  0.00  0.00    +0.250 C 
ATOM     28  O   LIG    1        3.873   4.455   3.730  0.00  0.00    -0.310 OA
ENDBRANCH   1  28
TORSDOF 3
