REMARK  Name = ZINCrg00000fS05P.0
REMARK                            x       y       z     vdW  Elec       q    Type
REMARK                         _______ _______ _______ _____ _____    ______ ____
ROOT
ATOM      1  C   LIG    1       -0.015   1.293   0.009  0.00  0.00    +0.090 C 
ATOM      2  N   LIG    1        0.002  -0.004   0.002  0.00  0.00    -0.170 NA
ATOM      3  N   LIG    1        1.209  -0.711  -0.011  0.00  0.00    -0.450 N 
ATOM      4  C   LIG    1        2.355  -0.110   0.365  0.00  0.00    +0.500 C 
ATOM      5  C   LIG    1        2.336   1.334   0.797  0.00  0.00    +0.100 C 
ATOM      6  O   LIG    1        3.397  -0.729   0.356  0.00  0.00    -0.500 OA
ATOM      7  C   LIG    1        1.266   2.084   0.001  0.00  0.00    +0.120 C 
ENDROOT
BRANCH   3   8
ATOM      8  C   LIG    1        1.227  -2.113  -0.436  0.00  0.00    +0.310 C 
ATOM      9  C   LIG    1        0.717  -2.221  -1.884  0.00  0.00    +0.070 C 
ATOM     10  C   LIG    1        0.449  -3.725  -2.149  0.00  0.00    -0.300 C 
ATOM     11  S   LIG    1       -0.366  -4.263  -0.598  0.00  0.00    +2.400 S 
ATOM     12  O   LIG    1        0.168  -5.518  -0.196  0.00  0.00    -0.930 OA
ATOM     13  O   LIG    1       -1.772  -4.101  -0.724  0.00  0.00    -0.920 OA
ATOM     14  C   LIG    1        0.303  -2.943   0.477  0.00  0.00    -0.310 C 
ENDBRANCH   3   8
BRANCH   1  15
ATOM     15  C   LIG    1       -1.300   1.999   0.019  0.00  0.00    +0.530 C 
ATOM     16  O   LIG    1       -1.326   3.214   0.026  0.00  0.00    -0.480 OA
BRANCH  15  17
ATOM     17  O   LIG    1       -2.453   1.300   0.021  0.00  0.00    -0.340 OA
BRANCH  17  18
ATOM     18  C   LIG    1       -3.688   2.064   0.031  0.00  0.00    +0.300 C 
BRANCH  18  25
ATOM     19  C   LIG    1       -6.156   1.623   0.040  0.00  0.00    +0.130 A 
ATOM     20  C   LIG    1       -7.237   0.754   0.040  0.00  0.00    -0.040 A 
ATOM     21  C   LIG    1       -7.024  -0.612   0.031  0.00  0.00    +0.030 A 
ATOM     22  C   LIG    1       -5.733  -1.111   0.022  0.00  0.00    +0.070 A 
ATOM     23  C   LIG    1       -4.653  -0.244   0.017  0.00  0.00    +0.070 A 
ATOM     24  F   LIG    1       -5.526  -2.446   0.013  0.00  0.00    -0.130 F 
ATOM     25  C   LIG    1       -4.863   1.121   0.031  0.00  0.00    -0.100 A 
BRANCH  19  27
ATOM     26  C   LIG    1       -7.721   3.413   0.058  0.00  0.00    +0.240 C 
ATOM     27  O   LIG    1       -6.364   2.967   0.049  0.00  0.00    -0.310 OA
ENDBRANCH  19  27
ENDBRANCH  18  25
ENDBRANCH  17  18
ENDBRANCH  15  17
ENDBRANCH   1  15
TORSDOF 6
