REMARK  Name = ZINCvU00000005n4.0
REMARK                            x       y       z     vdW  Elec       q    Type
REMARK                         _______ _______ _______ _____ _____    ______ ____
ROOT
ATOM      1  C   LIG    1       -0.701  -2.052  -0.002  0.00  0.00    +0.290 A 
ATOM      2  N   LIG    1       -1.076  -0.800   0.008  0.00  0.00    -0.530 NA
ATOM      3  C   LIG    1        0.002  -0.004   0.002  0.00  0.00    +0.270 A 
ATOM      4  N   LIG    1        1.081  -0.756  -0.018  0.00  0.00    -0.310 NA
ATOM      5  N   LIG    1        0.643  -2.090  -0.015  0.00  0.00    -0.370 N 
ENDROOT
BRANCH   3   6
ATOM      6  C   LIG    1       -0.018   1.479   0.010  0.00  0.00    -0.040 A 
ATOM      7  C   LIG    1       -1.234   2.161   0.020  0.00  0.00    +0.090 A 
ATOM      8  C   LIG    1       -1.250   3.539   0.032  0.00  0.00    -0.050 A 
ATOM      9  C   LIG    1       -0.056   4.250   0.024  0.00  0.00    +0.130 A 
ATOM     10  C   LIG    1        1.158   3.572   0.010  0.00  0.00    -0.020 A 
ATOM     11  C   LIG    1        1.179   2.194   0.003  0.00  0.00    +0.070 A 
BRANCH   9  12
ATOM     12  N   LIG    1       -0.075   5.645   0.031  0.00  0.00    -0.490 N 
ATOM     13  C   LIG    1        0.678   6.187  -1.107  0.00  0.00    +0.200 C 
ATOM     14  C   LIG    1        0.759   7.711  -0.988  0.00  0.00    +0.010 C 
ATOM     15  C   LIG    1       -0.657   8.292  -0.965  0.00  0.00    +0.150 C 
ATOM     16  C   LIG    1       -1.435   7.675   0.200  0.00  0.00    +0.050 C 
ATOM     17  C   LIG    1       -1.452   6.153   0.047  0.00  0.00    +0.190 C 
BRANCH  15  18
ATOM     18  O   LIG    1       -0.590   9.710  -0.798  0.00  0.00    -0.570 OA
ATOM     19  H   LIG    1       -0.110  10.167  -1.502  0.00  0.00    +0.380 HD
ENDBRANCH  15  18
ENDBRANCH   9  12
ENDBRANCH   3   6
BRANCH   1  20
ATOM     20  C   LIG    1       -1.619  -3.248   0.000  0.00  0.00    +0.110 C 
ATOM     21  C   LIG    1       -2.514  -3.206  -1.240  0.00  0.00    +0.070 C 
BRANCH  20  22
ATOM     22  C   LIG    1       -2.489  -3.220   1.258  0.00  0.00    +0.100 C 
BRANCH  22  24
ATOM     23  C   LIG    1       -4.434  -4.519   2.868  0.00  0.00    +0.140 C 
ATOM     24  S   LIG    1       -3.487  -4.733   1.336  0.00  0.00    -0.250 S 
ENDBRANCH  22  24
ENDBRANCH  20  22
ENDBRANCH   1  20
BRANCH   5  25
ATOM     25  C   LIG    1        1.485  -3.289  -0.030  0.00  0.00    +0.320 C 
BRANCH  25  26
ATOM     26  C   LIG    1        1.765  -3.699  -1.477  0.00  0.00    +0.010 C 
BRANCH  26  27
ATOM     27  C   LIG    1        2.644  -4.950  -1.492  0.00  0.00    +0.000 C 
ATOM     28  C   LIG    1        4.013  -4.619  -0.894  0.00  0.00    +0.000 C 
ATOM     29  C   LIG    1        4.893  -5.871  -0.909  0.00  0.00    +0.000 C 
ATOM     30  C   LIG    1        5.069  -6.353  -2.350  0.00  0.00    +0.000 C 
ATOM     31  C   LIG    1        3.701  -6.684  -2.949  0.00  0.00    +0.000 C 
ATOM     32  C   LIG    1        2.821  -5.432  -2.934  0.00  0.00    +0.010 C 
ENDBRANCH  26  27
ENDBRANCH  25  26
ENDBRANCH   5  25
TORSDOF 9
