REMARK  Name = ZINCpe000000YsjO.0
REMARK                            x       y       z     vdW  Elec       q    Type
REMARK                         _______ _______ _______ _____ _____    ______ ____
ROOT
ATOM      1  N   LIG    1        2.500  -2.761  -0.027  0.00  0.00    -0.720 N 
ATOM      2  H   LIG    1        3.317  -2.236  -0.032  0.00  0.00    +0.400 HD
ATOM      3  C   LIG    1        1.303  -2.143  -0.014  0.00  0.00    +0.560 C 
ATOM      4  O   LIG    1        0.280  -2.800  -0.008  0.00  0.00    -0.520 OA
ENDROOT
BRANCH   1  11
ATOM      5  C   LIG    1        4.122  -9.219  -0.064  0.00  0.00    +0.370 C 
ATOM      6  N   LIG    1        3.524  -8.145   0.734  0.00  0.00    -0.280 N 
ATOM      7  N   LIG    1        3.008  -8.272   1.911  0.00  0.00    -0.090 NA
ATOM      8  N   LIG    1        2.569  -7.134   2.331  0.00  0.00    -0.260 NA
ATOM      9  C   LIG    1        2.804  -6.217   1.397  0.00  0.00    -0.010 A 
ATOM     10  C   LIG    1        2.481  -4.747   1.406  0.00  0.00    +0.140 C 
ATOM     11  C   LIG    1        2.570  -4.224  -0.034  0.00  0.00    +0.250 C 
ATOM     12  C   LIG    1        3.895  -4.669  -0.659  0.00  0.00    +0.050 C 
ATOM     13  C   LIG    1        3.866  -6.184  -0.899  0.00  0.00    +0.140 C 
ATOM     14  C   LIG    1        3.417  -6.856   0.371  0.00  0.00    -0.030 A 
ENDBRANCH   1  11
BRANCH   3  15
ATOM     15  C   LIG    1        1.232  -0.663  -0.007  0.00  0.00    -0.060 A 
ATOM     16  C   LIG    1        2.398   0.111  -0.014  0.00  0.00    -0.040 A 
ATOM     17  C   LIG    1        2.291   1.488  -0.008  0.00  0.00    +0.300 A 
ATOM     18  N   LIG    1        1.111   2.077   0.004  0.00  0.00    -0.460 NA
ATOM     19  C   LIG    1       -0.017   1.385   0.012  0.00  0.00    +0.360 A 
ATOM     20  C   LIG    1        0.002  -0.004   0.006  0.00  0.00    +0.000 A 
BRANCH  19  21
ATOM     21  N   LIG    1       -1.238   2.058   0.019  0.00  0.00    -0.660 N 
ATOM     22  H   LIG    1       -2.067   1.560  -0.054  0.00  0.00    +0.420 HD
ATOM     23  C   LIG    1       -1.266   3.401   0.128  0.00  0.00    +0.530 C 
ATOM     24  O   LIG    1       -0.231   4.032   0.127  0.00  0.00    -0.470 OA
BRANCH  23  25
ATOM     25  C   LIG    1       -2.586   4.119   0.252  0.00  0.00    -0.070 C 
ATOM     26  C   LIG    1       -3.030   4.988  -0.927  0.00  0.00    +0.060 C 
ATOM     27  C   LIG    1       -2.551   5.644   0.370  0.00  0.00    +0.080 C 
ENDBRANCH  23  25
ENDBRANCH  19  21
ENDBRANCH   3  15
TORSDOF 4
