REMARK  Name = ZINCkj000005jUrb.2
REMARK                            x       y       z     vdW  Elec       q    Type
REMARK                         _______ _______ _______ _____ _____    ______ ____
ROOT
ATOM      1  C   LIG    1        0.745   4.026  -0.868  0.00  0.00    +0.090 C 
ATOM      2  C   LIG    1        0.035   2.744  -1.307  0.00  0.00    +0.160 C 
ATOM      3  C   LIG    1        0.143   1.694  -0.196  0.00  0.00    +0.320 C 
ATOM      4  N   LIG    1       -0.603   2.174   0.978  0.00  0.00    -0.620 N 
ATOM      5  C   LIG    1       -1.986   2.643   0.771  0.00  0.00    +0.270 C 
ATOM      6  C   LIG    1       -1.993   3.648  -0.385  0.00  0.00    +0.240 C 
ATOM      7  C   LIG    1       -2.885   1.454   0.425  0.00  0.00    +0.050 C 
ATOM      8  C   LIG    1       -0.036   2.186   2.201  0.00  0.00    +0.590 C 
ATOM      9  O   LIG    1        1.079   1.728   2.359  0.00  0.00    -0.470 OA
ATOM     10  N   LIG    1       -1.380   3.034  -1.570  0.00  0.00    -0.380 N 
ATOM     11  C   LIG    1       -1.486   3.958  -2.706  0.00  0.00    +0.330 C 
ATOM     12  H   LIG    1       -1.863   2.175  -1.790  0.00  0.00    +0.420 HD
ENDROOT
BRANCH   8  13
ATOM     13  C   LIG    1       -0.771   2.756   3.349  0.00  0.00    +0.080 A 
ATOM     14  N   LIG    1       -2.082   2.571   3.451  0.00  0.00    -0.460 NA
ATOM     15  C   LIG    1       -2.771   3.056   4.459  0.00  0.00    +0.270 A 
ATOM     16  C   LIG    1       -2.156   3.796   5.460  0.00  0.00    +0.020 A 
ATOM     17  C   LIG    1       -0.793   4.021   5.398  0.00  0.00    +0.030 A 
ATOM     18  C   LIG    1       -0.080   3.492   4.321  0.00  0.00    +0.100 A 
BRANCH  18  19
ATOM     19  N   LIG    1        1.290   3.692   4.215  0.00  0.00    -0.500 N 
ATOM     20  C   LIG    1        2.003   3.050   5.327  0.00  0.00    +0.220 C 
ATOM     21  C   LIG    1        1.609   5.124   4.141  0.00  0.00    +0.210 C 
ENDBRANCH  18  19
ENDBRANCH   8  13
TORSDOF 2
