REMARK  Name = ZINCkj000005jUrb.1
REMARK                            x       y       z     vdW  Elec       q    Type
REMARK                         _______ _______ _______ _____ _____    ______ ____
ROOT
ATOM      1  C   LIG    1       -1.477   0.967  -0.952  0.00  0.00    +0.100 C 
ATOM      2  C   LIG    1       -0.843   0.135   0.165  0.00  0.00    +0.140 C 
ATOM      3  C   LIG    1       -1.181  -1.345  -0.045  0.00  0.00    +0.340 C 
ATOM      4  N   LIG    1       -0.456  -2.136   0.961  0.00  0.00    -0.620 N 
ATOM      5  C   LIG    1        0.988  -1.904   1.116  0.00  0.00    +0.230 C 
ATOM      6  C   LIG    1        1.225  -0.399   1.271  0.00  0.00    +0.250 C 
ATOM      7  C   LIG    1        1.496  -2.635   2.361  0.00  0.00    +0.090 C 
ATOM      8  C   LIG    1       -1.097  -3.048   1.719  0.00  0.00    +0.580 C 
ATOM      9  O   LIG    1       -0.514  -3.593   2.636  0.00  0.00    -0.460 OA
ATOM     10  N   LIG    1        0.615   0.311   0.139  0.00  0.00    -0.380 N 
ATOM     11  C   LIG    1        0.935   1.742   0.230  0.00  0.00    +0.320 C 
ATOM     12  H   LIG    1        0.981  -0.060  -0.725  0.00  0.00    +0.420 HD
ENDROOT
BRANCH   8  13
ATOM     13  C   LIG    1       -2.507  -3.385   1.435  0.00  0.00    +0.080 A 
ATOM     14  N   LIG    1       -3.098  -2.893   0.352  0.00  0.00    -0.460 NA
ATOM     15  C   LIG    1       -4.348  -3.172   0.060  0.00  0.00    +0.270 A 
ATOM     16  C   LIG    1       -5.112  -3.988   0.883  0.00  0.00    +0.030 A 
ATOM     17  C   LIG    1       -4.546  -4.521   2.026  0.00  0.00    +0.040 A 
ATOM     18  C   LIG    1       -3.215  -4.216   2.313  0.00  0.00    +0.110 A 
BRANCH  18  19
ATOM     19  N   LIG    1       -2.602  -4.727   3.450  0.00  0.00    -0.490 N 
ATOM     20  C   LIG    1       -2.515  -6.192   3.387  0.00  0.00    +0.210 C 
ATOM     21  C   LIG    1       -3.303  -4.293   4.666  0.00  0.00    +0.210 C 
ENDBRANCH  18  19
ENDBRANCH   8  13
TORSDOF 2
