REMARK  Name = ZINCrH000004rZtS.0
REMARK                            x       y       z     vdW  Elec       q    Type
REMARK                         _______ _______ _______ _____ _____    ______ ____
ROOT
ATOM      1  C   LIG    1        4.159   2.218   0.104  0.00  0.00    +0.610 C 
ATOM      2  N   LIG    1        3.177   1.319  -0.107  0.00  0.00    -0.530 N 
ATOM      3  O   LIG    1        3.889   3.399   0.212  0.00  0.00    -0.510 OA
ENDROOT
BRANCH   2   4
ATOM      4  C   LIG    1        1.866   1.752  -0.307  0.00  0.00    +0.150 A 
ATOM      5  C   LIG    1        1.521   3.097  -0.159  0.00  0.00    +0.030 A 
ATOM      6  C   LIG    1        0.201   3.454  -0.373  0.00  0.00    +0.250 A 
ATOM      7  N   LIG    1       -0.684   2.533  -0.707  0.00  0.00    -0.270 NA
ATOM      8  N   LIG    1       -0.370   1.297  -0.849  0.00  0.00    -0.220 NA
ATOM      9  C   LIG    1        0.858   0.857  -0.662  0.00  0.00    +0.180 A 
ENDBRANCH   2   4
BRANCH   1  12
ATOM     10  C   LIG    1        7.169   0.238   0.266  0.00  0.00    +0.100 A 
ATOM     11  N   LIG    1        5.899   0.488   0.167  0.00  0.00    -0.390 NA
ATOM     12  C   LIG    1        5.558   1.769   0.205  0.00  0.00    +0.020 A 
ATOM     13  C   LIG    1        6.589   2.634   0.337  0.00  0.00    -0.020 A 
ATOM     14  S   LIG    1        8.052   1.752   0.424  0.00  0.00    +0.190 S 
BRANCH  10  21
ATOM     15  C   LIG    1        9.455  -0.274  -1.432  0.00  0.00    +0.100 C 
ATOM     16  C   LIG    1        8.882  -1.368  -0.568  0.00  0.00    -0.060 A 
ATOM     17  C   LIG    1        9.446  -2.627  -0.581  0.00  0.00    +0.010 A 
ATOM     18  C   LIG    1        8.921  -3.632   0.211  0.00  0.00    +0.030 A 
ATOM     19  C   LIG    1        7.827  -3.382   1.021  0.00  0.00    +0.010 A 
ATOM     20  C   LIG    1        7.258  -2.125   1.048  0.00  0.00    +0.060 A 
ATOM     21  C   LIG    1        7.779  -1.109   0.247  0.00  0.00    -0.020 A 
ENDBRANCH  10  21
ENDBRANCH   1  12
BRANCH   2  22
ATOM     22  C   LIG    1        3.486  -0.113  -0.126  0.00  0.00    +0.320 C 
BRANCH  22  23
ATOM     23  C   LIG    1        3.808  -0.546  -1.558  0.00  0.00    +0.130 C 
ATOM     24  C   LIG    1        4.053  -2.070  -1.617  0.00  0.00    +0.020 C 
ATOM     25  C   LIG    1        5.192  -2.227  -2.648  0.00  0.00    +0.000 C 
ATOM     26  C   LIG    1        5.501  -0.780  -3.091  0.00  0.00    +0.180 C 
ATOM     27  O   LIG    1        5.051   0.047  -1.995  0.00  0.00    -0.350 OA
ENDBRANCH  22  23
ENDBRANCH   2  22
TORSDOF 5
