REMARK  Name = ZINCrD000000CpDS.0
REMARK                            x       y       z     vdW  Elec       q    Type
REMARK                         _______ _______ _______ _____ _____    ______ ____
ROOT
ATOM      1  C   LIG    1       -2.447  -4.119   0.927  0.00  0.00    +0.000 A 
ATOM      2  N   LIG    1       -1.558  -4.920   0.375  0.00  0.00    -0.210 NA
ATOM      3  N   LIG    1       -1.937  -6.144   0.470  0.00  0.00    -0.370 N 
ATOM      4  H   LIG    1       -1.441  -6.908   0.137  0.00  0.00    +0.450 HD
ATOM      5  C   LIG    1       -3.142  -6.210   1.105  0.00  0.00    +0.060 A 
ATOM      6  C   LIG    1       -3.499  -4.927   1.412  0.00  0.00    +0.020 A 
ENDROOT
BRANCH   5   7
ATOM      7  C   LIG    1       -3.915  -7.436   1.404  0.00  0.00    -0.020 A 
ATOM      8  C   LIG    1       -5.138  -7.347   2.069  0.00  0.00    +0.070 A 
ATOM      9  C   LIG    1       -5.861  -8.491   2.341  0.00  0.00    +0.060 A 
ATOM     10  C   LIG    1       -5.369  -9.732   1.966  0.00  0.00    +0.040 A 
ATOM     11  O   LIG    1       -5.880 -10.989   2.123  0.00  0.00    -0.300 OA
ATOM     12  C   LIG    1       -4.769 -11.882   1.920  0.00  0.00    +0.440 C 
ATOM     13  O   LIG    1       -3.890 -11.145   1.051  0.00  0.00    -0.310 OA
ATOM     14  C   LIG    1       -4.145  -9.828   1.306  0.00  0.00    +0.040 A 
ATOM     15  C   LIG    1       -3.420  -8.685   1.026  0.00  0.00    +0.030 A 
ENDBRANCH   5   7
BRANCH   1  17
ATOM     16  O   LIG    1       -3.256  -2.019   1.548  0.00  0.00    -0.500 OA
ATOM     17  C   LIG    1       -2.362  -2.647   1.017  0.00  0.00    +0.560 C 
BRANCH  17  18
ATOM     18  O   LIG    1       -1.295  -2.002   0.508  0.00  0.00    -0.330 OA
BRANCH  18  19
ATOM     19  C   LIG    1       -1.279  -0.555   0.632  0.00  0.00    +0.240 C 
BRANCH  19  20
ATOM     20  C   LIG    1        0.002  -0.004   0.002  0.00  0.00    +0.160 C 
ATOM     21  C   LIG    1       -0.019   1.547   0.011  0.00  0.00    +0.040 C 
ATOM     22  C   LIG    1        1.491   1.857  -0.002  0.00  0.00    -0.100 C 
ATOM     23  C   LIG    1        2.101   0.700   0.796  0.00  0.00    +0.200 C 
ATOM     24  C   LIG    1        1.779   3.209   0.657  0.00  0.00    +0.030 C 
ATOM     25  C   LIG    1        2.964   3.780  -0.166  0.00  0.00    +0.010 C 
ATOM     26  C   LIG    1        2.638   3.319  -1.610  0.00  0.00    +0.010 C 
ATOM     27  C   LIG    1        2.033   1.908  -1.430  0.00  0.00    +0.030 C 
ATOM     28  O   LIG    1        1.146  -0.371   0.791  0.00  0.00    -0.370 OA
ENDBRANCH  19  20
ENDBRANCH  18  19
ENDBRANCH  17  18
ENDBRANCH   1  17
TORSDOF 5
