REMARK  Name = ZINCrD00000l6Sbz.1
REMARK                            x       y       z     vdW  Elec       q    Type
REMARK                         _______ _______ _______ _____ _____    ______ ____
ROOT
ATOM      1  C   LIG    1       -3.017   0.132   0.050  0.00  0.00    +0.570 C 
ATOM      2  N   LIG    1       -4.344  -0.105   0.051  0.00  0.00    -0.720 N 
ATOM      3  H   LIG    1       -4.969   0.636   0.047  0.00  0.00    +0.400 HD
ATOM      4  O   LIG    1       -2.233  -0.798   0.054  0.00  0.00    -0.550 OA
ENDROOT
BRANCH   1   8
ATOM      5  C   LIG    1       -3.920   5.035   0.026  0.00  0.00    +0.100 C 
ATOM      6  C   LIG    1       -2.941   3.890   0.033  0.00  0.00    -0.110 A 
ATOM      7  C   LIG    1       -3.410   2.589   0.039  0.00  0.00    +0.070 A 
ATOM      8  C   LIG    1       -2.516   1.519   0.043  0.00  0.00    -0.130 A 
ATOM      9  C   LIG    1       -1.137   1.772   0.038  0.00  0.00    +0.100 A 
ATOM     10  N   LIG    1       -0.018   0.972   0.048  0.00  0.00    -0.590 N 
ATOM     11  H   LIG    1       -0.005   0.003   0.052  0.00  0.00    +0.430 HD
ATOM     12  C   LIG    1        1.068   1.793   0.044  0.00  0.00    +0.490 A 
ATOM     13  N   LIG    1        0.687   3.037   0.038  0.00  0.00    -0.490 NA
ATOM     14  C   LIG    1       -0.670   3.096   0.037  0.00  0.00    +0.040 A 
ATOM     15  C   LIG    1       -1.587   4.151   0.031  0.00  0.00    +0.110 A 
ENDBRANCH   1   8
BRANCH   2  16
ATOM     16  C   LIG    1       -4.842  -1.483   0.057  0.00  0.00    +0.290 C 
BRANCH  16  17
ATOM     17  C   LIG    1       -6.372  -1.472   0.057  0.00  0.00    +0.000 C 
ATOM     18  C   LIG    1       -6.921  -0.898  -1.269  0.00  0.00    +0.080 C 
ATOM     19  C   LIG    1       -8.152  -1.730  -1.553  0.00  0.00    +0.520 C 
ATOM     20  N   LIG    1       -8.136  -2.848  -0.806  0.00  0.00    -0.560 N 
ATOM     21  O   LIG    1       -9.027  -1.432  -2.339  0.00  0.00    -0.500 OA
ATOM     22  C   LIG    1       -6.935  -2.911   0.034  0.00  0.00    +0.290 C 
BRANCH  20  23
ATOM     23  C   LIG    1       -9.138  -3.825  -0.827  0.00  0.00    +0.170 A 
ATOM     24  C   LIG    1      -10.298  -3.617  -1.560  0.00  0.00    +0.020 A 
ATOM     25  C   LIG    1      -11.283  -4.585  -1.583  0.00  0.00    +0.060 A 
ATOM     26  C   LIG    1      -11.118  -5.758  -0.867  0.00  0.00    -0.060 A 
ATOM     27  C   LIG    1       -9.965  -5.966  -0.131  0.00  0.00    +0.060 A 
ATOM     28 CL   LIG    1      -12.361  -6.970  -0.892  0.00  0.00    -0.070 Cl
ATOM     29  C   LIG    1       -8.975  -5.003  -0.109  0.00  0.00    -0.010 A 
ENDBRANCH  20  23
ENDBRANCH  16  17
ENDBRANCH   2  16
TORSDOF 4
