REMARK  Name = ZINCrD00000l6Sbz.0
REMARK                            x       y       z     vdW  Elec       q    Type
REMARK                         _______ _______ _______ _____ _____    ______ ____
ROOT
ATOM      1  C   LIG    1       -0.017   5.336   0.048  0.00  0.00    +0.560 C 
ATOM      2  N   LIG    1        1.151   6.009   0.029  0.00  0.00    -0.730 N 
ATOM      3  H   LIG    1        1.990   5.523   0.006  0.00  0.00    +0.400 HD
ATOM      4  O   LIG    1       -1.069   5.945   0.078  0.00  0.00    -0.500 OA
ENDROOT
BRANCH   1   8
ATOM      5  C   LIG    1        2.493   1.031  -0.053  0.00  0.00    +0.110 C 
ATOM      6  C   LIG    1        1.184   1.777  -0.016  0.00  0.00    -0.080 A 
ATOM      7  C   LIG    1        1.183   3.159  -0.001  0.00  0.00    +0.040 A 
ATOM      8  C   LIG    1       -0.018   3.862   0.033  0.00  0.00    -0.080 A 
ATOM      9  C   LIG    1       -1.237   3.152   0.052  0.00  0.00    +0.100 A 
ATOM     10  N   LIG    1       -2.531   3.527   0.085  0.00  0.00    -0.470 NA
ATOM     11  C   LIG    1       -3.297   2.473   0.074  0.00  0.00    +0.490 A 
ATOM     12  N   LIG    1       -2.538   1.347   0.048  0.00  0.00    -0.600 N 
ATOM     13  H   LIG    1       -2.863   0.433   0.044  0.00  0.00    +0.430 HD
ATOM     14  C   LIG    1       -1.215   1.747   0.030  0.00  0.00    +0.040 A 
ATOM     15  C   LIG    1       -0.004   1.072   0.002  0.00  0.00    +0.050 A 
ENDBRANCH   1   8
BRANCH   2  16
ATOM     16  C   LIG    1        1.152   7.474   0.045  0.00  0.00    +0.290 C 
BRANCH  16  17
ATOM     17  C   LIG    1        2.595   7.983   0.018  0.00  0.00    +0.000 C 
ATOM     18  C   LIG    1        3.279   7.637  -1.325  0.00  0.00    +0.080 C 
ATOM     19  C   LIG    1        4.149   8.839  -1.619  0.00  0.00    +0.520 C 
ATOM     20  N   LIG    1        3.770   9.880  -0.858  0.00  0.00    -0.560 N 
ATOM     21  O   LIG    1        5.056   8.860  -2.423  0.00  0.00    -0.500 OA
ATOM     22  C   LIG    1        2.636   9.527   0.004  0.00  0.00    +0.290 C 
BRANCH  20  23
ATOM     23  C   LIG    1        4.380  11.140  -0.883  0.00  0.00    +0.170 A 
ATOM     24  C   LIG    1        5.527  11.342  -1.639  0.00  0.00    +0.020 A 
ATOM     25  C   LIG    1        6.125  12.587  -1.666  0.00  0.00    +0.060 A 
ATOM     26  C   LIG    1        5.587  13.630  -0.932  0.00  0.00    -0.060 A 
ATOM     27  C   LIG    1        4.447  13.430  -0.174  0.00  0.00    +0.060 A 
ATOM     28 CL   LIG    1        6.344  15.192  -0.963  0.00  0.00    -0.070 Cl
ATOM     29  C   LIG    1        3.843  12.188  -0.147  0.00  0.00    -0.010 A 
ENDBRANCH  20  23
ENDBRANCH  16  17
ENDBRANCH   2  16
TORSDOF 4
