REMARK  Name = ZINCrg00000WBObf.0
REMARK                            x       y       z     vdW  Elec       q    Type
REMARK                         _______ _______ _______ _____ _____    ______ ____
ROOT
ATOM      1  C   LIG    1       -3.243   6.387  -1.666  0.00  0.00    +0.570 C 
ATOM      2  N   LIG    1       -3.026   5.126  -1.243  0.00  0.00    -0.700 N 
ATOM      3  H   LIG    1       -3.574   4.400  -1.581  0.00  0.00    +0.410 HD
ATOM      4  O   LIG    1       -2.621   7.309  -1.175  0.00  0.00    -0.530 OA
ENDROOT
BRANCH   1   8
ATOM      5  C   LIG    1       -4.282  10.035  -3.778  0.00  0.00    +0.060 A 
ATOM      6  C   LIG    1       -3.742   9.096  -2.965  0.00  0.00    +0.130 A 
ATOM      7  N   LIG    1       -4.371   7.918  -3.236  0.00  0.00    -0.340 N 
ATOM      8  C   LIG    1       -4.233   6.648  -2.722  0.00  0.00    +0.030 A 
ATOM      9  C   LIG    1       -5.016   5.621  -3.199  0.00  0.00    +0.070 A 
ATOM     10  C   LIG    1       -5.962   5.869  -4.200  0.00  0.00    +0.030 A 
ATOM     11  C   LIG    1       -6.099   7.125  -4.709  0.00  0.00    +0.120 A 
ATOM     12  C   LIG    1       -5.290   8.171  -4.221  0.00  0.00    +0.200 A 
ATOM     13  N   LIG    1       -5.217   9.457  -4.531  0.00  0.00    -0.470 NA
BRANCH   5  15
ATOM     14  C   LIG    1       -3.505  11.870  -5.255  0.00  0.00    +0.030 C 
ATOM     15  C   LIG    1       -3.890  11.490  -3.823  0.00  0.00    +0.120 C 
ENDBRANCH   5  15
ENDBRANCH   1   8
BRANCH   2  16
ATOM     16  C   LIG    1       -1.963   4.852  -0.273  0.00  0.00    +0.310 C 
BRANCH  16  17
ATOM     17  C   LIG    1       -1.929   3.354   0.037  0.00  0.00    +0.010 C 
ATOM     18  C   LIG    1       -0.912   3.087   1.149  0.00  0.00    +0.050 C 
ATOM     19  C   LIG    1       -0.696   1.573   1.249  0.00  0.00    +0.030 C 
ATOM     20  C   LIG    1        0.013   1.093  -0.018  0.00  0.00    +0.270 C 
ATOM     21  N   LIG    1       -0.687   1.574  -1.203  0.00  0.00    -0.590 N 
ATOM     22  C   LIG    1       -1.543   2.597  -1.202  0.00  0.00    +0.530 C 
ATOM     23  O   LIG    1       -2.035   2.935  -2.258  0.00  0.00    -0.540 OA
BRANCH  21  24
ATOM     24  C   LIG    1       -0.435   0.891  -2.474  0.00  0.00    +0.360 C 
BRANCH  24  25
ATOM     25  C   LIG    1       -1.419  -0.238  -2.641  0.00  0.00    +0.450 C 
ATOM     26  O   LIG    1       -2.246  -0.450  -1.786  0.00  0.00    -0.500 OA
BRANCH  25  27
ATOM     27  O   LIG    1       -1.377  -1.008  -3.740  0.00  0.00    -0.360 OA
ATOM     28  C   LIG    1       -2.355  -2.077  -3.833  0.00  0.00    +0.260 C 
ENDBRANCH  25  27
ENDBRANCH  24  25
ENDBRANCH  21  24
ENDBRANCH  16  17
ENDBRANCH   2  16
TORSDOF 7
