REMARK  Name = ZINCpk00000y6uBX.0
REMARK                            x       y       z     vdW  Elec       q    Type
REMARK                         _______ _______ _______ _____ _____    ______ ____
ROOT
ATOM      1  C   LIG    1        1.768   3.161   0.001  0.00  0.00    +0.610 C 
ATOM      2  N   LIG    1        3.084   3.450  -0.009  0.00  0.00    -0.620 N 
ATOM      3  C   LIG    1        4.178   2.467  -0.018  0.00  0.00    +0.230 C 
ATOM      4  C   LIG    1        5.503   3.256  -0.059  0.00  0.00    +0.060 C 
ATOM      5  C   LIG    1        5.073   4.632  -0.634  0.00  0.00    +0.050 C 
ATOM      6  C   LIG    1        3.667   4.804  -0.009  0.00  0.00    +0.280 C 
ATOM      7  O   LIG    1        0.948   4.059   0.013  0.00  0.00    -0.540 OA
ENDROOT
BRANCH   5   8
ATOM      8  C   LIG    1        6.005   5.724  -0.177  0.00  0.00    +0.240 A 
ATOM      9  C   LIG    1        6.601   6.540  -1.095  0.00  0.00    -0.190 A 
ATOM     10  C   LIG    1        7.466   7.553  -0.643  0.00  0.00    +0.550 A 
ATOM     11  N   LIG    1        7.678   7.682   0.684  0.00  0.00    -0.650 N 
ATOM     12  H   LIG    1        8.271   8.373   1.017  0.00  0.00    +0.410 HD
ATOM     13  C   LIG    1        7.056   6.839   1.552  0.00  0.00    +0.660 A 
ATOM     14  O   LIG    1        8.015   8.300  -1.436  0.00  0.00    -0.540 OA
ATOM     15  N   LIG    1        6.242   5.895   1.122  0.00  0.00    -0.590 NA
BRANCH  13  16
ATOM     16  N   LIG    1        7.276   6.976   2.896  0.00  0.00    -0.600 N 
ATOM     17  C   LIG    1        6.673   6.149   3.952  0.00  0.00    +0.290 C 
ATOM     18  C   LIG    1        7.190   6.684   5.304  0.00  0.00    +0.030 C 
ATOM     19  C   LIG    1        7.600   8.141   4.965  0.00  0.00    +0.040 C 
ATOM     20  C   LIG    1        8.150   7.983   3.526  0.00  0.00    +0.260 C 
ENDBRANCH  13  16
ENDBRANCH   5   8
BRANCH   1  27
ATOM     21  C   LIG    1       -1.247   2.169   0.020  0.00  0.00    +0.170 C 
ATOM     22  C   LIG    1       -0.016   1.300   0.009  0.00  0.00    +0.140 A 
ATOM     23  N   LIG    1        0.002  -0.004   0.002  0.00  0.00    -0.300 NA
ATOM     24  N   LIG    1        1.332  -0.439  -0.013  0.00  0.00    -0.460 N 
ATOM     25  H   LIG    1        1.626  -1.364  -0.021  0.00  0.00    +0.450 HD
ATOM     26  C   LIG    1        2.133   0.638  -0.015  0.00  0.00    +0.290 A 
ATOM     27  C   LIG    1        1.322   1.756  -0.001  0.00  0.00    -0.290 A 
ENDBRANCH   1  27
TORSDOF 3
