REMARK  Name = ZINCrg00000Aa2OA.0
REMARK                            x       y       z     vdW  Elec       q    Type
REMARK                         _______ _______ _______ _____ _____    ______ ____
ROOT
ATOM      1  C   LIG    1        4.303  -1.127   1.395  0.00  0.00    +0.040 C 
ATOM      2  C   LIG    1        3.783  -0.983  -0.036  0.00  0.00    +0.350 C 
ENDROOT
BRANCH   2   3
ATOM      3  C   LIG    1        3.592  -2.350  -0.642  0.00  0.00    -0.050 A 
ATOM      4  C   LIG    1        4.553  -3.080  -1.246  0.00  0.00    +0.290 A 
ATOM      5  N   LIG    1        3.968  -4.244  -1.650  0.00  0.00    -0.320 N 
ATOM      6  N   LIG    1        2.623  -4.165  -1.255  0.00  0.00    -0.010 NA
ATOM      7  N   LIG    1        2.449  -3.036  -0.660  0.00  0.00    -0.210 NA
BRANCH   5   8
ATOM      8  C   LIG    1        4.583  -5.303  -2.321  0.00  0.00    +0.540 A 
ATOM      9  N   LIG    1        5.868  -5.214  -2.624  0.00  0.00    -0.500 NA
ATOM     10  C   LIG    1        6.484  -6.200  -3.254  0.00  0.00    +0.360 A 
ATOM     11  C   LIG    1        5.763  -7.332  -3.607  0.00  0.00    -0.000 A 
ATOM     12  C   LIG    1        4.416  -7.388  -3.276  0.00  0.00    +0.360 A 
ATOM     13  F   LIG    1        6.359  -8.357  -4.255  0.00  0.00    -0.110 F 
ATOM     14  N   LIG    1        3.866  -6.367  -2.641  0.00  0.00    -0.480 NA
ENDBRANCH   5   8
ENDBRANCH   2   3
BRANCH   2  15
ATOM     15  N   LIG    1        2.502  -0.273  -0.021  0.00  0.00    -0.710 N 
ATOM     16  H   LIG    1        1.670  -0.772  -0.016  0.00  0.00    +0.410 HD
ATOM     17  C   LIG    1        2.478   1.075  -0.015  0.00  0.00    +0.540 C 
ATOM     18  O   LIG    1        3.520   1.701  -0.021  0.00  0.00    -0.510 OA
BRANCH  17  19
ATOM     19  C   LIG    1        1.185   1.792   0.000  0.00  0.00    -0.050 A 
ATOM     20  C   LIG    1       -0.013   1.076   0.008  0.00  0.00    +0.040 A 
ATOM     21  C   LIG    1       -1.216   1.751   0.017  0.00  0.00    +0.070 A 
ATOM     22  C   LIG    1       -1.236   3.134   0.029  0.00  0.00    +0.030 A 
ATOM     23  C   LIG    1       -0.052   3.850   0.022  0.00  0.00    +0.120 A 
ATOM     24  C   LIG    1        1.158   3.187   0.008  0.00  0.00    -0.610 A 
BRANCH  24  25
ATOM     25  S   LIG    1        2.665   4.100  -0.001  0.00  0.00    +2.510 S 
ATOM     26  O   LIG    1        2.251   5.460  -0.017  0.00  0.00    -0.950 OA
ATOM     27  O   LIG    1        3.403   3.547  -1.082  0.00  0.00    -0.910 OA
ATOM     28  C   LIG    1        3.451   3.692   1.582  0.00  0.00    -0.240 C 
ENDBRANCH  24  25
ENDBRANCH  17  19
ENDBRANCH   2  15
TORSDOF 5
