REMARK  Name = ZINCrH00000tj1gT.0
REMARK                            x       y       z     vdW  Elec       q    Type
REMARK                         _______ _______ _______ _____ _____    ______ ____
ROOT
ATOM      1  C   LIG    1        2.491   1.308  -0.015  0.00  0.00    +0.260 C 
ATOM      2  C   LIG    1        3.424   2.536  -0.018  0.00  0.00    +0.090 C 
ATOM      3  C   LIG    1        2.475   3.713  -0.003  0.00  0.00    +0.150 C 
ATOM      4  N   LIG    1        1.260   3.287   0.002  0.00  0.00    -0.240 NA
ATOM      5  N   LIG    1        1.143   1.899   0.001  0.00  0.00    -0.470 N 
ATOM      6  C   LIG    1       -0.014   1.209   0.009  0.00  0.00    +0.550 C 
ATOM      7  O   LIG    1        0.002  -0.004   0.002  0.00  0.00    -0.510 OA
ATOM      8  C   LIG    1       -1.330   1.945   0.019  0.00  0.00    +0.110 C 
ENDROOT
BRANCH   3   9
ATOM      9  C   LIG    1        2.880   5.132   0.002  0.00  0.00    -0.050 A 
ATOM     10  C   LIG    1        4.234   5.476  -0.003  0.00  0.00    +0.050 A 
ATOM     11  C   LIG    1        4.604   6.804  -0.004  0.00  0.00    +0.010 A 
ATOM     12  C   LIG    1        3.639   7.795   0.010  0.00  0.00    -0.060 A 
ATOM     13  C   LIG    1        2.296   7.462   0.020  0.00  0.00    +0.010 A 
ATOM     14  C   LIG    1        4.052   9.245   0.014  0.00  0.00    +0.100 C 
ATOM     15  C   LIG    1        1.910   6.138   0.016  0.00  0.00    +0.060 A 
ENDBRANCH   3   9
BRANCH   1  18
ATOM     16  C   LIG    1        3.584  -1.470  -2.332  0.00  0.00    +0.150 A 
ATOM     17  C   LIG    1        3.397  -0.707  -1.190  0.00  0.00    -0.070 A 
ATOM     18  C   LIG    1        2.694   0.482  -1.258  0.00  0.00    -0.020 A 
ATOM     19  C   LIG    1        2.171   0.911  -2.464  0.00  0.00    -0.090 A 
ATOM     20  C   LIG    1        2.360   0.156  -3.612  0.00  0.00    +0.150 A 
ATOM     21  C   LIG    1        3.065  -1.039  -3.547  0.00  0.00    +0.030 A 
BRANCH  16  23
ATOM     22  C   LIG    1        4.780  -3.021  -0.981  0.00  0.00    +0.240 C 
ATOM     23  O   LIG    1        4.275  -2.640  -2.263  0.00  0.00    -0.300 OA
ENDBRANCH  16  23
BRANCH  20  24
ATOM     24  O   LIG    1        1.850   0.582  -4.798  0.00  0.00    -0.300 OA
ATOM     25  C   LIG    1        1.136   1.820  -4.791  0.00  0.00    +0.250 C 
ENDBRANCH  20  24
BRANCH  21  26
ATOM     26  O   LIG    1        3.247  -1.786  -4.670  0.00  0.00    -0.310 OA
ATOM     27  C   LIG    1        2.251  -2.768  -4.965  0.00  0.00    +0.210 C 
ENDBRANCH  21  26
ENDBRANCH   1  18
TORSDOF 5
