REMARK  Name = ZINCqH0000008AsK.0
REMARK                            x       y       z     vdW  Elec       q    Type
REMARK                         _______ _______ _______ _____ _____    ______ ____
ROOT
ATOM      1  C   LIG    1        1.057   3.628   0.080  0.00  0.00    -0.140 A 
ATOM      2  C   LIG    1       -0.150   4.331   0.016  0.00  0.00    +0.070 A 
ATOM      3  C   LIG    1       -0.144   5.707   0.005  0.00  0.00    +0.000 A 
ATOM      4  C   LIG    1        1.063   6.399   0.048  0.00  0.00    +0.170 A 
ATOM      5  C   LIG    1        2.267   5.703   0.106  0.00  0.00    +0.000 A 
ATOM      6  C   LIG    1        2.268   4.327   0.122  0.00  0.00    +0.100 A 
ENDROOT
BRANCH   1   9
ATOM      7  N   LIG    1       -0.113   1.482   0.055  0.00  0.00    -0.720 N 
ATOM      8  H   LIG    1       -0.952   1.968   0.011  0.00  0.00    +0.400 HD
ATOM      9  C   LIG    1        1.054   2.153   0.096  0.00  0.00    +0.560 C 
ATOM     10  O   LIG    1        2.105   1.544   0.146  0.00  0.00    -0.530 OA
BRANCH   7  17
ATOM     11  C   LIG    1       -1.633   0.042   2.057  0.00  0.00    +0.030 C 
ATOM     12  C   LIG    1       -1.449  -0.484   0.632  0.00  0.00    -0.020 C 
ATOM     13  C   LIG    1       -1.452  -2.014   0.649  0.00  0.00    +0.030 C 
ATOM     14  C   LIG    1       -1.268  -2.541  -0.776  0.00  0.00    +0.000 C 
ATOM     15  C   LIG    1        0.064  -2.039  -1.337  0.00  0.00    +0.010 C 
ATOM     16  C   LIG    1        0.068  -0.509  -1.354  0.00  0.00    +0.000 C 
ATOM     17  C   LIG    1       -0.116   0.017   0.071  0.00  0.00    +0.240 C 
ENDBRANCH   7  17
ENDBRANCH   1   9
BRANCH   4  18
ATOM     18  N   LIG    1        1.066   7.790   0.031  0.00  0.00    -1.060 N 
ATOM     19  H   LIG    1        1.623   8.281   0.656  0.00  0.00    +0.430 HD
BRANCH  18  20
ATOM     20  S   LIG    1        0.120   8.607  -1.055  0.00  0.00    +2.690 S 
ATOM     21  O   LIG    1        0.429   9.985  -0.900  0.00  0.00    -0.950 OA
ATOM     22  O   LIG    1       -1.194   8.084  -0.916  0.00  0.00    -0.940 OA
BRANCH  20  23
ATOM     23  C   LIG    1        0.667   8.153  -2.668  0.00  0.00    -0.680 A 
ATOM     24  C   LIG    1        1.727   8.822  -3.252  0.00  0.00    +0.120 A 
ATOM     25  C   LIG    1        2.159   8.463  -4.515  0.00  0.00    +0.000 A 
ATOM     26  C   LIG    1        1.526   7.442  -5.198  0.00  0.00    +0.070 A 
ATOM     27  C   LIG    1        0.462   6.777  -4.616  0.00  0.00    -0.010 A 
ATOM     28  C   LIG    1        0.033   7.133  -3.351  0.00  0.00    +0.120 A 
ENDBRANCH  20  23
ENDBRANCH  18  20
ENDBRANCH   4  18
TORSDOF 5
