REMARK  Name = ZINCrH000004mpf3.0
REMARK                            x       y       z     vdW  Elec       q    Type
REMARK                         _______ _______ _______ _____ _____    ______ ____
ROOT
ATOM      1  C   LIG    1        1.572   1.694  -3.108  0.00  0.00    +0.110 C 
ATOM      2  C   LIG    1        1.674   3.221  -3.151  0.00  0.00    +0.040 C 
ATOM      3  C   LIG    1        0.573   3.832  -2.282  0.00  0.00    +0.030 C 
ATOM      4  C   LIG    1        0.760   3.376  -0.832  0.00  0.00    +0.290 C 
ATOM      5  N   LIG    1        0.808   1.908  -0.800  0.00  0.00    -0.610 N 
ATOM      6  C   LIG    1       -0.014   1.211   0.009  0.00  0.00    +0.570 C 
ATOM      7  O   LIG    1       -0.757   1.798   0.771  0.00  0.00    -0.520 OA
ATOM      8  C   LIG    1        1.774   1.214  -1.663  0.00  0.00    +0.300 C 
ENDROOT
BRANCH   6   9
ATOM      9  C   LIG    1       -0.009  -0.267  -0.028  0.00  0.00    -0.130 A 
ATOM     10  C   LIG    1        1.195  -0.966   0.074  0.00  0.00    +0.030 A 
ATOM     11  C   LIG    1        1.192  -2.345   0.045  0.00  0.00    +0.010 A 
ATOM     12  C   LIG    1        0.001  -3.035  -0.096  0.00  0.00    +0.030 A 
ATOM     13  C   LIG    1       -1.195  -2.348  -0.202  0.00  0.00    +0.010 A 
ATOM     14  C   LIG    1       -1.207  -0.969  -0.169  0.00  0.00    +0.060 A 
ENDBRANCH   6   9
BRANCH   1  18
ATOM     15  C   LIG    1        3.674   0.029  -5.501  0.00  0.00    +0.220 A 
ATOM     16  N   LIG    1        4.537   0.638  -4.730  0.00  0.00    -0.380 NA
ATOM     17  O   LIG    1        3.957   1.257  -3.862  0.00  0.00    +0.090 OA
ATOM     18  C   LIG    1        2.637   1.094  -3.989  0.00  0.00    +0.190 A 
ATOM     19  N   LIG    1        2.441   0.319  -5.027  0.00  0.00    -0.470 NA
BRANCH  15  23
ATOM     20  C   LIG    1        4.577  -2.410  -8.866  0.00  0.00    +0.150 A 
ATOM     21  C   LIG    1        5.605  -1.825  -8.139  0.00  0.00    -0.010 A 
ATOM     22  C   LIG    1        5.315  -1.034  -7.048  0.00  0.00    +0.100 A 
ATOM     23  C   LIG    1        3.989  -0.822  -6.674  0.00  0.00    -0.070 A 
ATOM     24  C   LIG    1        2.959  -1.415  -7.403  0.00  0.00    +0.110 A 
ATOM     25  C   LIG    1        3.255  -2.201  -8.497  0.00  0.00    -0.070 A 
BRANCH  20  27
ATOM     26  C   LIG    1        3.759  -3.760 -10.644  0.00  0.00    +0.240 C 
ATOM     27  O   LIG    1        4.865  -3.189  -9.941  0.00  0.00    -0.310 OA
ENDBRANCH  20  27
ENDBRANCH  15  23
ENDBRANCH   1  18
TORSDOF 4
