REMARK  Name = ZINCpk00000AINzI.0
REMARK                            x       y       z     vdW  Elec       q    Type
REMARK                         _______ _______ _______ _____ _____    ______ ____
ROOT
ATOM      1  N   LIG    1       -2.533  -1.460   2.361  0.00  0.00    -0.650 N 
ATOM      2  H   LIG    1       -2.003  -1.724   3.129  0.00  0.00    +0.410 HD
ATOM      3  C   LIG    1       -1.984  -0.702   1.391  0.00  0.00    +0.510 C 
ATOM      4  O   LIG    1       -2.647  -0.371   0.431  0.00  0.00    -0.490 OA
ENDROOT
BRANCH   1   9
ATOM      5  N   LIG    1       -4.512  -2.719   3.098  0.00  0.00    -0.340 N 
ATOM      6  N   LIG    1       -5.828  -2.852   2.638  0.00  0.00    -0.280 NA
ATOM      7  C   LIG    1       -5.970  -2.111   1.569  0.00  0.00    +0.250 A 
ATOM      8  C   LIG    1       -4.754  -1.473   1.307  0.00  0.00    -0.090 A 
ATOM      9  C   LIG    1       -3.864  -1.865   2.259  0.00  0.00    +0.310 A 
BRANCH   5  16
ATOM     10  C   LIG    1       -5.965  -2.629   5.544  0.00  0.00    +0.110 C 
ATOM     11  C   LIG    1       -4.637  -3.332   5.432  0.00  0.00    -0.070 A 
ATOM     12  C   LIG    1       -4.091  -3.957   6.536  0.00  0.00    +0.030 A 
ATOM     13  C   LIG    1       -2.873  -4.603   6.435  0.00  0.00    +0.020 A 
ATOM     14  C   LIG    1       -2.197  -4.625   5.229  0.00  0.00    +0.020 A 
ATOM     15  C   LIG    1       -2.740  -4.005   4.120  0.00  0.00    +0.000 A 
ATOM     16  C   LIG    1       -3.961  -3.352   4.220  0.00  0.00    +0.140 A 
ENDBRANCH   5  16
ENDBRANCH   1   9
BRANCH   3  17
ATOM     17  C   LIG    1       -0.545  -0.265   1.501  0.00  0.00    +0.340 C 
BRANCH  17  18
ATOM     18  N   LIG    1       -0.190   0.543   0.331  0.00  0.00    -0.580 N 
ATOM     19  C   LIG    1       -0.381   2.002   0.365  0.00  0.00    +0.290 C 
ATOM     20  C   LIG    1        0.991   2.673   0.452  0.00  0.00    -0.000 C 
ATOM     21  C   LIG    1        1.584   2.874  -0.931  0.00  0.00    +0.020 C 
ATOM     22  C   LIG    1        1.940   1.579  -1.638  0.00  0.00    +0.050 C 
ATOM     23  C   LIG    1        0.680   0.777  -1.970  0.00  0.00    +0.200 C 
ATOM     24  C   LIG    1        0.303  -0.049  -0.757  0.00  0.00    +0.490 C 
ATOM     25  O   LIG    1        0.452  -1.252  -0.776  0.00  0.00    -0.540 OA
BRANCH  23  26
ATOM     26  O   LIG    1       -0.388   1.671  -2.291  0.00  0.00    -0.540 OA
ATOM     27  H   LIG    1       -1.223   1.229  -2.497  0.00  0.00    +0.390 HD
ENDBRANCH  23  26
ENDBRANCH  17  18
ENDBRANCH   3  17
TORSDOF 5
