REMARK  Name = ZINCpe000000Wv9r.0
REMARK                            x       y       z     vdW  Elec       q    Type
REMARK                         _______ _______ _______ _____ _____    ______ ____
ROOT
ATOM      1  CA  LIG    1        0.884   3.399   1.581  0.00  0.00    +0.260 C 
ATOM      2  N   LIG    1        1.789   2.650   0.720  0.00  0.00    -0.700 N 
ATOM      3  H   LIG    1        2.717   2.928   0.669  0.00  0.00    +0.410 HD
ATOM      4  C   LIG    1        1.397   1.596  -0.003  0.00  0.00    +0.530 C 
ATOM      5  CA  LIG    1       -0.013   1.086   0.008  0.00  0.00    +0.260 C 
ATOM      6  N   LIG    1       -0.733   1.547   1.187  0.00  0.00    -0.710 N 
ATOM      7  H   LIG    1       -1.534   1.070   1.457  0.00  0.00    +0.410 HD
ATOM      8  O   LIG    1        2.215   1.029  -0.696  0.00  0.00    -0.530 OA
ATOM      9  C   LIG    1       -0.339   2.597   1.913  0.00  0.00    +0.530 C 
ATOM     10  O   LIG    1       -0.998   2.916   2.880  0.00  0.00    -0.530 OA
ENDROOT
BRANCH   5  11
ATOM     11  C   LIG    1       -0.735   1.584  -1.245  0.00  0.00    +0.170 C 
ATOM     12  C   LIG    1       -2.233   1.189  -1.195  0.00  0.00    +0.020 C 
ATOM     13  C   LIG    1       -2.854   2.275  -2.118  0.00  0.00    +0.010 C 
ATOM     14  C   LIG    1       -1.961   3.501  -1.829  0.00  0.00    +0.190 C 
ATOM     15  O   LIG    1       -0.725   3.019  -1.290  0.00  0.00    -0.370 OA
ENDBRANCH   5  11
BRANCH   1  16
ATOM     16  C   LIG    1        0.460   4.683   0.866  0.00  0.00    +0.140 C 
BRANCH  16  24
ATOM     17  C   LIG    1        3.812   4.900  -2.422  0.00  0.00    +0.100 A 
ATOM     18  C   LIG    1        4.739   5.909  -2.176  0.00  0.00    -0.050 A 
ATOM     19  C   LIG    1        4.620   6.716  -1.066  0.00  0.00    +0.030 A 
ATOM     20  C   LIG    1        3.566   6.527  -0.179  0.00  0.00    +0.060 A 
ATOM     21  N   LIG    1        3.187   7.155   0.988  0.00  0.00    -0.590 N 
ATOM     22  H   LIG    1        3.655   7.899   1.398  0.00  0.00    +0.420 HD
ATOM     23  C   LIG    1        2.049   6.575   1.479  0.00  0.00    +0.240 A 
ATOM     24  C   LIG    1        1.663   5.572   0.675  0.00  0.00    -0.180 A 
ATOM     25  C   LIG    1        2.627   5.508  -0.425  0.00  0.00    -0.060 A 
ATOM     26  C   LIG    1        2.758   4.696  -1.553  0.00  0.00    +0.030 A 
BRANCH  17  28
ATOM     27  C   LIG    1        5.056   4.378  -4.380  0.00  0.00    +0.230 C 
ATOM     28  O   LIG    1        3.944   4.113  -3.523  0.00  0.00    -0.320 OA
ENDBRANCH  17  28
ENDBRANCH  16  24
ENDBRANCH   1  16
TORSDOF 4
