REMARK  Name = ZINCrD00000rJFhO.0
REMARK                            x       y       z     vdW  Elec       q    Type
REMARK                         _______ _______ _______ _____ _____    ______ ____
ROOT
ATOM      1  C   LIG    1        7.282   1.079  -0.068  0.00  0.00    +0.550 C 
ATOM      2  N   LIG    1        8.476   1.703  -0.082  0.00  0.00    -0.670 N 
ATOM      3  H   LIG    1        8.518   2.669  -0.158  0.00  0.00    +0.410 HD
ATOM      4  O   LIG    1        7.230  -0.137  -0.058  0.00  0.00    -0.520 OA
ENDROOT
BRANCH   2   5
ATOM      5  C   LIG    1        9.657   0.957   0.011  0.00  0.00    +0.130 A 
ATOM      6  C   LIG    1       10.752   1.472   0.692  0.00  0.00    +0.010 A 
ATOM      7  C   LIG    1       11.914   0.734   0.790  0.00  0.00    +0.040 A 
ATOM      8  C   LIG    1       11.992  -0.520   0.197  0.00  0.00    +0.130 A 
ATOM      9  C   LIG    1       10.899  -1.033  -0.488  0.00  0.00    +0.000 A 
ATOM     10  C   LIG    1        9.735  -0.297  -0.581  0.00  0.00    +0.040 A 
BRANCH   8  11
ATOM     11  N   LIG    1       13.173  -1.267   0.291  0.00  0.00    -0.680 N 
ATOM     12  H   LIG    1       13.453  -1.827  -0.450  0.00  0.00    +0.410 HD
ATOM     13  C   LIG    1       13.922  -1.206   1.410  0.00  0.00    +0.510 C 
ATOM     14  O   LIG    1       13.618  -0.443   2.303  0.00  0.00    -0.530 OA
ATOM     15  C   LIG    1       15.136  -2.087   1.553  0.00  0.00    +0.110 C 
ENDBRANCH   8  11
ENDBRANCH   2   5
BRANCH   1  17
ATOM     16  C   LIG    1        4.851   1.239  -0.050  0.00  0.00    +0.130 C 
ATOM     17  C   LIG    1        6.048   1.864  -0.064  0.00  0.00    -0.080 C 
BRANCH  16  20
ATOM     18  C   LIG    1        1.204   2.126  -0.027  0.00  0.00    +0.150 A 
ATOM     19  C   LIG    1        2.369   1.381  -0.031  0.00  0.00    -0.070 A 
ATOM     20  C   LIG    1        3.610   2.027  -0.046  0.00  0.00    -0.010 A 
ATOM     21  C   LIG    1        3.667   3.425  -0.057  0.00  0.00    -0.070 A 
ATOM     22  C   LIG    1        2.499   4.163  -0.053  0.00  0.00    +0.150 A 
ATOM     23  C   LIG    1        1.266   3.517  -0.044  0.00  0.00    +0.040 A 
BRANCH  18  25
ATOM     24  C   LIG    1        0.009   0.070  -0.003  0.00  0.00    +0.250 C 
ATOM     25  O   LIG    1       -0.002   1.499  -0.013  0.00  0.00    -0.300 OA
ENDBRANCH  18  25
BRANCH  22  26
ATOM     26  O   LIG    1        2.554   5.522  -0.064  0.00  0.00    -0.300 OA
ATOM     27  C   LIG    1        3.852   6.119  -0.080  0.00  0.00    +0.250 C 
ENDBRANCH  22  26
BRANCH  23  28
ATOM     28  O   LIG    1        0.118   4.246  -0.045  0.00  0.00    -0.310 OA
ATOM     29  C   LIG    1       -0.422   4.608   1.228  0.00  0.00    +0.230 C 
ENDBRANCH  23  28
ENDBRANCH  16  20
ENDBRANCH   1  17
TORSDOF 7
