REMARK  Name = ZINCpk000000mXZ6.0
REMARK                            x       y       z     vdW  Elec       q    Type
REMARK                         _______ _______ _______ _____ _____    ______ ____
ROOT
ATOM      1  C   LIG    1        2.434   4.253   0.026  0.00  0.00    +0.560 C 
ATOM      2  N   LIG    1        2.413   5.600   0.042  0.00  0.00    -0.640 N 
ATOM      3  H   LIG    1        1.566   6.072   0.056  0.00  0.00    +0.410 HD
ATOM      4  O   LIG    1        3.495   3.661   0.009  0.00  0.00    -0.520 OA
ENDROOT
BRANCH   1   7
ATOM      5  C   LIG    1       -0.011   1.395   0.018  0.00  0.00    +0.130 A 
ATOM      6  C   LIG    1        1.183   2.099   0.014  0.00  0.00    +0.100 A 
ATOM      7  C   LIG    1        1.165   3.494   0.031  0.00  0.00    -0.120 A 
ATOM      8  C   LIG    1       -0.056   4.171   0.051  0.00  0.00    +0.030 A 
ATOM      9  C   LIG    1       -1.239   3.461   0.054  0.00  0.00    +0.030 A 
ATOM     10  C   LIG    1       -1.221   2.079   0.032  0.00  0.00    -0.080 A 
ATOM     11  C   LIG    1       -2.518   1.311   0.030  0.00  0.00    +0.110 C 
BRANCH   5  14
ATOM     12  C   LIG    1        0.917  -2.164  -0.782  0.00  0.00    +0.110 C 
ATOM     13  C   LIG    1        0.961  -0.661  -0.680  0.00  0.00    +0.510 C 
ATOM     14  N   LIG    1        0.002  -0.004   0.002  0.00  0.00    -0.670 N 
ATOM     15  H   LIG    1       -0.679  -0.501   0.482  0.00  0.00    +0.410 HD
ATOM     16  O   LIG    1        1.859  -0.043  -1.212  0.00  0.00    -0.520 OA
ENDBRANCH   5  14
ENDBRANCH   1   7
BRANCH   2  17
ATOM     17  C   LIG    1        3.621   6.322   0.038  0.00  0.00    +0.010 A 
ATOM     18  C   LIG    1        3.745   7.674   0.052  0.00  0.00    +0.200 A 
ATOM     19  N   LIG    1        5.071   7.965   0.043  0.00  0.00    -0.370 N 
ATOM     20  N   LIG    1        5.777   6.755   0.022  0.00  0.00    -0.250 NA
ATOM     21  C   LIG    1        4.912   5.773   0.024  0.00  0.00    +0.260 A 
BRANCH  19  22
ATOM     22  C   LIG    1        5.660   9.306   0.052  0.00  0.00    +0.380 C 
BRANCH  22  23
ATOM     23  C   LIG    1        6.620   9.424   1.209  0.00  0.00    +0.500 C 
ATOM     24  N   LIG    1        7.284  10.578   1.417  0.00  0.00    -0.620 N 
ATOM     25  C   LIG    1        7.073  11.717   0.521  0.00  0.00    +0.280 C 
ATOM     26  C   LIG    1        8.217  10.694   2.541  0.00  0.00    +0.290 C 
ATOM     27  O   LIG    1        6.795   8.481   1.951  0.00  0.00    -0.500 OA
ENDBRANCH  22  23
ENDBRANCH  19  22
ENDBRANCH   2  17
TORSDOF 5
