REMARK  Name = ZINCrH000004nfVK.0
REMARK                            x       y       z     vdW  Elec       q    Type
REMARK                         _______ _______ _______ _____ _____    ______ ____
ROOT
ATOM      1  C   LIG    1        2.460   1.901  -0.009  0.00  0.00    +0.610 C 
ATOM      2  N   LIG    1        3.448   2.818  -0.016  0.00  0.00    -0.660 N 
ATOM      3  H   LIG    1        3.233   3.762  -0.083  0.00  0.00    +0.420 HD
ATOM      4  O   LIG    1        2.731   0.715  -0.009  0.00  0.00    -0.490 OA
ENDROOT
BRANCH   2   5
ATOM      5  C   LIG    1        4.783   2.409   0.075  0.00  0.00    +0.150 A 
ATOM      6  C   LIG    1        5.703   3.189   0.762  0.00  0.00    +0.010 A 
ATOM      7  C   LIG    1        7.023   2.786   0.859  0.00  0.00    +0.060 A 
ATOM      8  C   LIG    1        7.430   1.607   0.261  0.00  0.00    +0.070 A 
ATOM      9  O   LIG    1        8.726   1.200   0.346  0.00  0.00    -0.300 OA
ATOM     10  C   LIG    1        8.955  -0.211   0.390  0.00  0.00    +0.230 C 
ATOM     11  C   LIG    1        8.132  -0.892  -0.674  0.00  0.00    +0.500 C 
ATOM     12  N   LIG    1        6.940  -0.368  -1.036  0.00  0.00    -0.660 N 
ATOM     13  H   LIG    1        6.391  -0.810  -1.702  0.00  0.00    +0.420 HD
ATOM     14  O   LIG    1        8.537  -1.905  -1.202  0.00  0.00    -0.510 OA
ATOM     15  C   LIG    1        8.554  -0.749   1.765  0.00  0.00    +0.060 C 
ATOM     16  C   LIG    1        6.510   0.823  -0.435  0.00  0.00    +0.110 A 
ATOM     17  C   LIG    1        5.189   1.224  -0.528  0.00  0.00    +0.030 A 
ENDBRANCH   2   5
BRANCH   1  23
ATOM     18  C   LIG    1       -3.450   3.200   0.023  0.00  0.00    +0.110 A 
ATOM     19  C   LIG    1       -2.961   4.504   0.018  0.00  0.00    -0.010 A 
ATOM     20  C   LIG    1       -1.605   4.747   0.010  0.00  0.00    +0.070 A 
ATOM     21  C   LIG    1       -0.708   3.685   0.006  0.00  0.00    +0.050 A 
ATOM     22  O   LIG    1        0.639   3.618  -0.001  0.00  0.00    -0.180 OA
ATOM     23  C   LIG    1        1.056   2.334  -0.002  0.00  0.00    -0.040 A 
ATOM     24  C   LIG    1       -0.019   1.503   0.005  0.00  0.00    -0.060 A 
ATOM     25  C   LIG    1        0.002  -0.004   0.006  0.00  0.00    +0.140 C 
ATOM     26  C   LIG    1       -1.199   2.367   0.004  0.00  0.00    -0.110 A 
ATOM     27  C   LIG    1       -2.576   2.131   0.019  0.00  0.00    +0.040 A 
BRANCH  18  29
ATOM     28  C   LIG    1       -5.638   4.130   0.035  0.00  0.00    +0.240 C 
ATOM     29  O   LIG    1       -4.791   2.979   0.031  0.00  0.00    -0.310 OA
ENDBRANCH  18  29
ENDBRANCH   1  23
TORSDOF 3
