REMARK  Name = ZINCqH000003932W.0
REMARK                            x       y       z     vdW  Elec       q    Type
REMARK                         _______ _______ _______ _____ _____    ______ ____
ROOT
ATOM      1  C   LIG    1        1.114   1.912   0.002  0.00  0.00    +0.040 A 
ATOM      2  C   LIG    1        0.678   3.197   0.012  0.00  0.00    +0.190 A 
ATOM      3  N   LIG    1       -0.683   3.169   0.025  0.00  0.00    -0.330 N 
ATOM      4  N   LIG    1       -1.084   1.827   0.017  0.00  0.00    -0.270 NA
ATOM      5  C   LIG    1       -0.013   1.076   0.008  0.00  0.00    +0.290 A 
ENDROOT
BRANCH   1   9
ATOM      6  N   LIG    1        4.040  -0.224  -0.037  0.00  0.00    -0.740 N 
ATOM      7  H   LIG    1        4.753   0.433  -0.041  0.00  0.00    +0.390 HD
ATOM      8  C   LIG    1        2.753   0.177  -0.023  0.00  0.00    +0.710 C 
ATOM      9  N   LIG    1        2.458   1.492  -0.013  0.00  0.00    -0.660 N 
ATOM     10  H   LIG    1        3.171   2.150  -0.017  0.00  0.00    +0.410 HD
ATOM     11  O   LIG    1        1.859  -0.646  -0.018  0.00  0.00    -0.570 OA
BRANCH   6  16
ATOM     12  C   LIG    1        5.778  -1.881   0.519  0.00  0.00    +0.120 C 
ATOM     13  C   LIG    1        6.351  -3.033  -0.344  0.00  0.00    +0.070 C 
ATOM     14  C   LIG    1        5.800  -2.709  -1.755  0.00  0.00    +0.020 C 
ATOM     15  C   LIG    1        4.375  -2.180  -1.493  0.00  0.00    +0.010 C 
ATOM     16  C   LIG    1        4.361  -1.654  -0.047  0.00  0.00    +0.290 C 
BRANCH  12  18
ATOM     17  N   LIG    1        7.226   0.271   0.246  0.00  0.00    -0.420 NA
ATOM     18  C   LIG    1        6.595  -0.666   0.365  0.00  0.00    +0.210 C 
ENDBRANCH  12  18
ENDBRANCH   6  16
ENDBRANCH   1   9
BRANCH   3  19
ATOM     19  C   LIG    1       -1.531   4.284   0.038  0.00  0.00    +0.170 A 
ATOM     20  C   LIG    1       -0.997   5.565   0.046  0.00  0.00    +0.030 A 
ATOM     21  C   LIG    1       -1.836   6.663   0.053  0.00  0.00    +0.060 A 
ATOM     22  C   LIG    1       -3.207   6.486   0.065  0.00  0.00    +0.060 A 
ATOM     23  C   LIG    1       -3.743   5.211   0.064  0.00  0.00    -0.160 A 
ATOM     24  C   LIG    1       -2.909   4.110   0.050  0.00  0.00    +0.070 A 
BRANCH  23  25
ATOM     25  C   LIG    1       -5.238   5.023   0.076  0.00  0.00    +0.510 C 
ATOM     26  F   LIG    1       -5.564   3.835  -0.587  0.00  0.00    -0.170 F 
ATOM     27  F   LIG    1       -5.849   6.101  -0.572  0.00  0.00    -0.170 F 
ATOM     28  F   LIG    1       -5.689   4.958   1.399  0.00  0.00    -0.170 F 
ENDBRANCH  23  25
ENDBRANCH   3  19
TORSDOF 5
