REMARK  Name = ZINC9p0000002jCa.0
REMARK                            x       y       z     vdW  Elec       q    Type
REMARK                         _______ _______ _______ _____ _____    ______ ____
ROOT
ATOM      1  C   LIG    1       -2.925   3.086   0.047  0.00  0.00    +0.040 C 
ATOM      2  C   LIG    1       -2.904   1.556   0.038  0.00  0.00    -0.090 C 
ATOM      3  C   LIG    1       -2.188   1.063  -1.221  0.00  0.00    +0.030 C 
ATOM      4  C   LIG    1       -0.753   1.593  -1.232  0.00  0.00    +0.020 C 
ATOM      5  C   LIG    1       -0.013   1.086   0.008  0.00  0.00    +0.010 C 
ATOM      6  C   LIG    1       -0.729   1.579   1.267  0.00  0.00    +0.020 C 
ATOM      7  C   LIG    1       -2.164   1.050   1.278  0.00  0.00    +0.020 C 
ENDROOT
BRANCH   2   8
ATOM      8  C   LIG    1       -4.340   1.027   0.049  0.00  0.00    +0.280 C 
BRANCH   8   9
ATOM      9  N   LIG    1       -5.027   1.501   1.258  0.00  0.00    -0.640 N 
ATOM     10  H   LIG    1       -4.539   1.166   2.075  0.00  0.00    +0.430 HD
ATOM     11  H   LIG    1       -5.974   1.151   1.265  0.00  0.00    +0.440 HD
ATOM     12  H   LIG    1       -5.041   2.510   1.263  0.00  0.00    +0.430 HD
ENDBRANCH   8   9
ENDBRANCH   2   8
TORSDOF 2
