REMARK  Name = ZINCnE00000dHVDU.1
REMARK                            x       y       z     vdW  Elec       q    Type
REMARK                         _______ _______ _______ _____ _____    ______ ____
ROOT
ATOM      1  C   LIG    1        3.501   3.595  -0.013  0.00  0.00    -0.090 A 
ATOM      2  C   LIG    1        3.568   2.197  -0.021  0.00  0.00    +0.080 A 
ATOM      3  C   LIG    1        2.386   1.483  -0.013  0.00  0.00    -0.110 A 
ATOM      4  C   LIG    1        1.176   2.172   0.003  0.00  0.00    +0.380 A 
ATOM      5  N   LIG    1        1.148   3.496   0.004  0.00  0.00    -0.540 NA
ATOM      6  C   LIG    1        2.254   4.213   0.002  0.00  0.00    +0.280 A 
ENDROOT
BRANCH   1  11
ATOM      7  O   LIG    1        8.202   6.669  -0.043  0.00  0.00    -0.690 OA
ATOM      8  C   LIG    1        7.064   5.925  -0.035  0.00  0.00    +0.230 A 
ATOM      9  C   LIG    1        5.824   6.553  -0.020  0.00  0.00    -0.040 A 
ATOM     10  C   LIG    1        4.667   5.799  -0.013  0.00  0.00    +0.030 A 
ATOM     11  C   LIG    1        4.743   4.407  -0.021  0.00  0.00    -0.150 A 
ATOM     12  C   LIG    1        5.987   3.780  -0.030  0.00  0.00    +0.020 A 
ATOM     13  F   LIG    1        5.751   7.902  -0.012  0.00  0.00    -0.150 F 
ATOM     14  C   LIG    1        7.142   4.538  -0.043  0.00  0.00    -0.050 A 
ATOM     15  F   LIG    1        8.348   3.930  -0.059  0.00  0.00    -0.150 F 
ENDBRANCH   1  11
BRANCH   4  16
ATOM     16  N   LIG    1       -0.018   1.461   0.010  0.00  0.00    -0.720 N 
ATOM     17  H   LIG    1       -0.864   1.934   0.017  0.00  0.00    +0.400 HD
BRANCH  16  18
ATOM     18  C   LIG    1        0.002  -0.004   0.002  0.00  0.00    +0.260 C 
ATOM     19  C   LIG    1        0.148  -0.520   1.435  0.00  0.00    +0.010 C 
ATOM     20  C   LIG    1        0.169  -2.050   1.427  0.00  0.00    +0.020 C 
ATOM     21  C   LIG    1       -1.137  -2.574   0.827  0.00  0.00    +0.010 C 
ATOM     22  C   LIG    1       -1.283  -2.058  -0.606  0.00  0.00    -0.010 C 
ATOM     23  C   LIG    1       -1.304  -0.528  -0.598  0.00  0.00    +0.160 C 
BRANCH  23  24
ATOM     24  O   LIG    1       -1.441  -0.047  -1.936  0.00  0.00    -0.560 OA
ATOM     25  H   LIG    1       -2.248  -0.341  -2.380  0.00  0.00    +0.380 HD
ENDBRANCH  23  24
ENDBRANCH  16  18
ENDBRANCH   4  16
TORSDOF 4
