REMARK  Name = ZINCnE000001Swht.1
REMARK                            x       y       z     vdW  Elec       q    Type
REMARK                         _______ _______ _______ _____ _____    ______ ____
ROOT
ATOM      1  C   LIG    1       -1.204  -0.908   0.009  0.00  0.00    +0.140 C 
ENDROOT
BRANCH   1   2
ATOM      2  C   LIG    1        0.002  -0.004   0.002  0.00  0.00    +0.030 A 
ATOM      3  C   LIG    1        1.288  -0.399  -0.012  0.00  0.00    +0.130 A 
ATOM      4  O   LIG    1        2.048   0.714  -0.014  0.00  0.00    -0.200 OA
ATOM      5  C   LIG    1        1.221   1.774  -0.000  0.00  0.00    +0.210 A 
ATOM      6  N   LIG    1       -0.016   1.337   0.009  0.00  0.00    -0.430 NA
BRANCH   5   7
ATOM      7  C   LIG    1        1.636   3.193   0.004  0.00  0.00    -0.000 A 
ATOM      8  C   LIG    1        0.675   4.204   0.012  0.00  0.00    +0.070 A 
ATOM      9  C   LIG    1        1.069   5.526   0.021  0.00  0.00    +0.010 A 
ATOM     10  C   LIG    1        2.414   5.851   0.009  0.00  0.00    +0.010 A 
ATOM     11  C   LIG    1        3.372   4.853  -0.005  0.00  0.00    +0.010 A 
ATOM     12  C   LIG    1        2.991   3.527  -0.008  0.00  0.00    +0.030 A 
ENDBRANCH   5   7
ENDBRANCH   1   2
BRANCH   1  14
ATOM     13  O   LIG    1       -1.762   0.328   1.940  0.00  0.00    -0.560 OA
ATOM     14  C   LIG    1       -2.083  -0.564   1.183  0.00  0.00    +0.460 C 
ATOM     15  N   LIG    1       -3.226  -1.247   1.392  0.00  0.00    -0.700 NA
BRANCH  15  16
ATOM     16  C   LIG    1       -4.037  -0.930   2.476  0.00  0.00    +0.350 A 
ATOM     17  N   LIG    1       -3.786  -0.007   3.340  0.00  0.00    -0.550 NA
ATOM     18  C   LIG    1       -4.671   0.178   4.325  0.00  0.00    +0.090 A 
ATOM     19  C   LIG    1       -5.712  -0.660   4.263  0.00  0.00    -0.360 A 
ATOM     20  C   LIG    1       -6.679  -0.408   5.405  0.00  0.00    +0.110 C 
ATOM     21  C   LIG    1       -6.309   0.995   5.932  0.00  0.00    +0.030 C 
ATOM     22  C   LIG    1       -4.823   1.098   5.533  0.00  0.00    +0.100 C 
ATOM     23  S   LIG    1       -5.506  -1.710   2.858  0.00  0.00    +0.020 S 
ENDBRANCH  15  16
ENDBRANCH   1  14
TORSDOF 4
