REMARK  Name = ZINCkj00000dDGHH.1
REMARK                            x       y       z     vdW  Elec       q    Type
REMARK                         _______ _______ _______ _____ _____    ______ ____
ROOT
ATOM      1  C   LIG    1        1.588   2.495   1.432  0.00  0.00    +0.030 C 
ATOM      2  C   LIG    1        1.243   2.075   0.001  0.00  0.00    +0.260 C 
ATOM      3  C   LIG    1        1.155   3.312  -0.872  0.00  0.00    +0.250 C 
ATOM      4  N   LIG    1       -0.049   4.106  -0.612  0.00  0.00    -0.390 N 
ATOM      5  C   LIG    1       -0.147   5.089  -1.740  0.00  0.00    +0.280 C 
ATOM      6  C   LIG    1       -0.558   4.213  -2.949  0.00  0.00    +0.070 C 
ATOM      7  C   LIG    1       -1.297   3.004  -2.324  0.00  0.00    +0.080 C 
ATOM      8  C   LIG    1       -1.268   3.294  -0.815  0.00  0.00    +0.170 C 
ATOM      9  C   LIG    1       -1.296   2.041   0.019  0.00  0.00    +0.310 C 
ATOM     10  H   LIG    1       -0.022   4.555   0.291  0.00  0.00    +0.430 HD
ATOM     11  N   LIG    1       -0.016   1.344   0.009  0.00  0.00    -0.620 N 
ATOM     12  C   LIG    1        0.002  -0.004   0.002  0.00  0.00    +0.520 C 
ATOM     13  O   LIG    1        1.060  -0.596  -0.011  0.00  0.00    -0.500 OA
ENDROOT
BRANCH  12  14
ATOM     14  C   LIG    1       -1.293  -0.775   0.010  0.00  0.00    +0.060 C 
BRANCH  14  15
ATOM     15  C   LIG    1       -0.993  -2.276  -0.001  0.00  0.00    +0.040 C 
BRANCH  15  16
ATOM     16  C   LIG    1       -2.307  -3.058   0.008  0.00  0.00    +0.300 C 
BRANCH  16  17
ATOM     17  N   LIG    1       -2.020  -4.495  -0.003  0.00  0.00    -0.460 N 
ATOM     18  C   LIG    1       -1.877  -5.287  -1.110  0.00  0.00    +0.110 A 
ATOM     19  C   LIG    1       -1.618  -6.532  -0.668  0.00  0.00    +0.150 A 
ATOM     20  N   LIG    1       -1.613  -6.504   0.673  0.00  0.00    -0.490 NA
ATOM     21  C   LIG    1       -1.853  -5.287   1.078  0.00  0.00    +0.380 A 
ENDBRANCH  16  17
ENDBRANCH  15  16
ENDBRANCH  14  15
ENDBRANCH  12  14
TORSDOF 4
