REMARK  Name = ZINCkj00000dDGHH.0
REMARK                            x       y       z     vdW  Elec       q    Type
REMARK                         _______ _______ _______ _____ _____    ______ ____
ROOT
ATOM      1  C   LIG    1       -0.680   1.552   1.310  0.00  0.00    +0.100 C 
ATOM      2  C   LIG    1        0.007   1.071   0.030  0.00  0.00    +0.230 C 
ATOM      3  C   LIG    1        1.525   1.291   0.152  0.00  0.00    +0.260 C 
ATOM      4  N   LIG    1        2.120   1.011  -1.147  0.00  0.00    -0.390 N 
ATOM      5  C   LIG    1        3.583   1.056  -1.196  0.00  0.00    +0.260 C 
ATOM      6  C   LIG    1        3.948   1.511  -2.630  0.00  0.00    +0.080 C 
ATOM      7  C   LIG    1        2.586   1.802  -3.317  0.00  0.00    +0.080 C 
ATOM      8  C   LIG    1        1.664   2.049  -2.110  0.00  0.00    +0.170 C 
ATOM      9  C   LIG    1        0.194   1.770  -2.409  0.00  0.00    +0.320 C 
ATOM     10  H   LIG    1        1.805   0.109  -1.472  0.00  0.00    +0.420 HD
ATOM     11  N   LIG    1       -0.516   1.827  -1.115  0.00  0.00    -0.640 N 
ATOM     12  C   LIG    1       -1.637   2.565  -0.987  0.00  0.00    +0.520 C 
ATOM     13  O   LIG    1       -2.169   2.676   0.097  0.00  0.00    -0.500 OA
ENDROOT
BRANCH  12  14
ATOM     14  C   LIG    1       -2.228   3.253  -2.191  0.00  0.00    +0.060 C 
BRANCH  14  15
ATOM     15  C   LIG    1       -3.485   4.018  -1.775  0.00  0.00    +0.040 C 
BRANCH  15  16
ATOM     16  C   LIG    1       -4.085   4.716  -2.997  0.00  0.00    +0.290 C 
BRANCH  16  17
ATOM     17  N   LIG    1       -5.290   5.449  -2.599  0.00  0.00    -0.460 N 
ATOM     18  C   LIG    1       -6.570   4.965  -2.592  0.00  0.00    +0.110 A 
ATOM     19  C   LIG    1       -7.362   5.963  -2.156  0.00  0.00    +0.150 A 
ATOM     20  N   LIG    1       -6.587   7.030  -1.912  0.00  0.00    -0.490 NA
ATOM     21  C   LIG    1       -5.345   6.730  -2.175  0.00  0.00    +0.380 A 
ENDBRANCH  16  17
ENDBRANCH  15  16
ENDBRANCH  14  15
ENDBRANCH  12  14
TORSDOF 4
