REMARK  Name = ZINCpk000004ANMu.0
REMARK                            x       y       z     vdW  Elec       q    Type
REMARK                         _______ _______ _______ _____ _____    ______ ____
ROOT
ATOM      1  C   LIG    1        0.677   3.267   8.652  0.00  0.00    +0.520 C 
ATOM      2  N   LIG    1        0.841   3.329   7.316  0.00  0.00    -0.620 N 
ATOM      3  C   LIG    1        0.337   4.478   6.552  0.00  0.00    +0.280 C 
ATOM      4  C   LIG    1       -0.556   3.963   5.419  0.00  0.00    +0.030 C 
ATOM      5  C   LIG    1        0.223   2.946   4.583  0.00  0.00    +0.150 C 
ATOM      6  C   LIG    1        0.621   1.758   5.462  0.00  0.00    +0.000 C 
ATOM      7  C   LIG    1        1.528   2.248   6.595  0.00  0.00    +0.270 C 
ATOM      8  O   LIG    1        0.187   4.204   9.247  0.00  0.00    -0.530 OA
ENDROOT
BRANCH   1  13
ATOM      9  C   LIG    1        0.325  -0.512  12.536  0.00  0.00    +0.550 C 
ATOM     10  N   LIG    1        0.853   0.102  11.459  0.00  0.00    -0.610 N 
ATOM     11  C   LIG    1        1.864   1.155  11.618  0.00  0.00    +0.280 C 
ATOM     12  C   LIG    1        1.400   2.404  10.862  0.00  0.00    +0.040 C 
ATOM     13  C   LIG    1        1.102   2.034   9.408  0.00  0.00    -0.010 C 
ATOM     14  C   LIG    1       -0.022   0.996   9.364  0.00  0.00    +0.030 C 
ATOM     15  C   LIG    1        0.426  -0.269  10.102  0.00  0.00    +0.270 C 
ATOM     16  O   LIG    1        0.614  -0.133  13.655  0.00  0.00    -0.540 OA
BRANCH   9  18
ATOM     17  C   LIG    1       -1.041  -2.313  13.419  0.00  0.00    +0.140 C 
ATOM     18  C   LIG    1       -0.599  -1.643  12.359  0.00  0.00    -0.090 C 
ENDBRANCH   9  18
ENDBRANCH   1  13
BRANCH   5  19
ATOM     19  O   LIG    1       -0.596   2.487   3.505  0.00  0.00    -0.380 OA
BRANCH  19  20
ATOM     20  C   LIG    1        0.136   2.116   2.336  0.00  0.00    +0.170 C 
BRANCH  20  21
ATOM     21  C   LIG    1       -0.837   1.643   1.254  0.00  0.00    -0.020 C 
ATOM     22  C   LIG    1       -0.072   1.115   0.016  0.00  0.00    +0.010 C 
ATOM     23  C   LIG    1       -0.870   1.659  -1.185  0.00  0.00    +0.200 C 
ATOM     24  O   LIG    1       -1.999   2.375  -0.659  0.00  0.00    -0.380 OA
ATOM     25  C   LIG    1       -1.629   2.838   0.657  0.00  0.00    +0.220 C 
ENDBRANCH  20  21
ENDBRANCH  19  20
ENDBRANCH   5  19
TORSDOF 5
