REMARK  Name = ZINCrD000000fBzH.0
REMARK                            x       y       z     vdW  Elec       q    Type
REMARK                         _______ _______ _______ _____ _____    ______ ____
ROOT
ATOM      1  C   LIG    1        1.150   2.219   0.049  0.00  0.00    +0.180 A 
ATOM      2  C   LIG    1        1.125   3.607   0.068  0.00  0.00    +0.020 A 
ATOM      3  C   LIG    1       -0.083   4.278   0.084  0.00  0.00    +0.050 A 
ATOM      4  C   LIG    1       -1.270   3.571   0.083  0.00  0.00    +0.040 A 
ATOM      5  C   LIG    1       -1.252   2.182   0.059  0.00  0.00    +0.150 A 
ATOM      6  C   LIG    1       -0.040   1.505   0.048  0.00  0.00    -0.100 A 
ATOM      7  C   LIG    1       -0.017  -0.002   0.028  0.00  0.00    +0.110 C 
ENDROOT
BRANCH   1  13
ATOM      8  C   LIG    1        6.382  -0.564   1.292  0.00  0.00    +0.120 C 
ATOM      9  C   LIG    1        5.071   0.027   1.742  0.00  0.00    +0.530 C 
ATOM     10  N   LIG    1        4.205   0.517   0.833  0.00  0.00    -0.590 N 
ATOM     11  C   LIG    1        4.368   0.440  -0.626  0.00  0.00    +0.280 C 
ATOM     12  C   LIG    1        3.108   1.137  -1.175  0.00  0.00    +0.270 C 
ATOM     13  N   LIG    1        2.373   1.540   0.033  0.00  0.00    -0.580 N 
ATOM     14  C   LIG    1        3.059   1.150   1.115  0.00  0.00    +0.700 C 
ATOM     15  O   LIG    1        2.675   1.352   2.251  0.00  0.00    -0.520 OA
ATOM     16  O   LIG    1        4.796   0.063   2.922  0.00  0.00    -0.480 OA
ENDBRANCH   1  13
BRANCH   5  17
ATOM     17  N   LIG    1       -2.453   1.466   0.052  0.00  0.00    -0.660 N 
ATOM     18  H   LIG    1       -2.478   0.557   0.390  0.00  0.00    +0.410 HD
ATOM     19  C   LIG    1       -3.576   2.039  -0.425  0.00  0.00    +0.560 C 
ATOM     20  O   LIG    1       -3.525   3.139  -0.941  0.00  0.00    -0.500 OA
BRANCH  19  21
ATOM     21  C   LIG    1       -4.869   1.331  -0.321  0.00  0.00    -0.080 A 
ATOM     22  C   LIG    1       -4.929   0.066   0.265  0.00  0.00    +0.020 A 
ATOM     23  C   LIG    1       -6.142  -0.591   0.364  0.00  0.00    +0.130 A 
ATOM     24  C   LIG    1       -7.294   0.001  -0.128  0.00  0.00    +0.000 A 
ATOM     25  C   LIG    1       -7.239   1.254  -0.715  0.00  0.00    +0.130 A 
ATOM     26  F   LIG    1       -8.367   1.825  -1.192  0.00  0.00    -0.120 F 
ATOM     27  F   LIG    1       -6.202  -1.813   0.936  0.00  0.00    -0.120 F 
ATOM     28  C   LIG    1       -6.033   1.922  -0.814  0.00  0.00    +0.060 A 
ENDBRANCH  19  21
ENDBRANCH   5  17
TORSDOF 3
