REMARK  Name = ZINCrg000000sihP.0
REMARK                            x       y       z     vdW  Elec       q    Type
REMARK                         _______ _______ _______ _____ _____    ______ ____
ROOT
ATOM      1  C   LIG    1        0.331   6.469   2.135  0.00  0.00    +0.600 C 
ATOM      2  N   LIG    1       -0.407   5.856   1.189  0.00  0.00    -0.590 N 
ATOM      3  C   LIG    1       -1.744   5.332   1.485  0.00  0.00    +0.340 C 
ATOM      4  C   LIG    1       -2.692   5.708   0.368  0.00  0.00    -0.100 A 
ATOM      5  C   LIG    1       -4.049   5.507   0.576  0.00  0.00    +0.010 A 
ATOM      6  C   LIG    1       -4.962   5.816  -0.412  0.00  0.00    +0.010 A 
ATOM      7  C   LIG    1       -4.521   6.330  -1.617  0.00  0.00    +0.020 A 
ATOM      8  C   LIG    1       -3.172   6.535  -1.822  0.00  0.00    +0.020 A 
ATOM      9  C   LIG    1       -2.251   6.228  -0.829  0.00  0.00    -0.070 A 
ATOM     10  C   LIG    1       -0.796   6.486  -1.121  0.00  0.00    +0.100 C 
ATOM     11  C   LIG    1        0.099   5.679  -0.183  0.00  0.00    +0.240 C 
ATOM     12  O   LIG    1        1.399   6.974   1.841  0.00  0.00    -0.510 OA
ENDROOT
BRANCH   1  20
ATOM     13  C   LIG    1       -1.867   8.108   7.989  0.00  0.00    +0.130 C 
ATOM     14  C   LIG    1       -1.516   6.766   7.401  0.00  0.00    -0.100 A 
ATOM     15  C   LIG    1       -1.649   5.632   8.149  0.00  0.00    +0.130 A 
ATOM     16  C   LIG    1       -1.318   4.392   7.588  0.00  0.00    +0.020 A 
ATOM     17  C   LIG    1       -0.871   4.323   6.313  0.00  0.00    +0.280 A 
ATOM     18  N   LIG    1       -0.736   5.449   5.560  0.00  0.00    -0.420 N 
ATOM     19  C   LIG    1       -0.287   5.348   4.290  0.00  0.00    +0.530 A 
ATOM     20  C   LIG    1       -0.152   6.528   3.519  0.00  0.00    -0.360 A 
ATOM     21  C   LIG    1       -0.490   7.754   4.109  0.00  0.00    +0.430 A 
ATOM     22  N   LIG    1       -0.922   7.785   5.352  0.00  0.00    -0.540 NA
ATOM     23  O   LIG    1        0.001   4.262   3.818  0.00  0.00    -0.510 OA
ATOM     24  C   LIG    1       -1.050   6.672   6.079  0.00  0.00    +0.400 A 
ENDBRANCH   1  20
BRANCH  11  25
ATOM     25  C   LIG    1        1.517   6.182  -0.272  0.00  0.00    +0.550 C 
ATOM     26  O   LIG    1        2.436   5.394  -0.342  0.00  0.00    -0.540 OA
ATOM     27  N   LIG    1        1.764   7.507  -0.273  0.00  0.00    -0.830 N 
ATOM     28  H   LIG    1        2.676   7.830  -0.330  0.00  0.00    +0.400 HD
ATOM     29  H   LIG    1        1.028   8.137  -0.217  0.00  0.00    +0.390 HD
ENDBRANCH  11  25
TORSDOF 2
