REMARK  Name = ZINCtV000002O9R9.0
REMARK                            x       y       z     vdW  Elec       q    Type
REMARK                         _______ _______ _______ _____ _____    ______ ____
ROOT
ATOM      1  C   LIG    1       -0.212   0.806  -1.350  0.00  0.00    +0.000 A 
ATOM      2  C   LIG    1       -0.104   1.791  -0.352  0.00  0.00    -0.200 A 
ATOM      3  C   LIG    1        1.142   2.390  -0.109  0.00  0.00    +0.300 A 
ATOM      4  O   LIG    1        0.963   3.285   0.883  0.00  0.00    -0.070 OA
ATOM      5  N   LIG    1       -0.390   3.277   1.292  0.00  0.00    -0.250 NA
ATOM      6  N   LIG    1        2.201   2.026  -0.816  0.00  0.00    -0.450 NA
ATOM      7  C   LIG    1        2.131   1.108  -1.756  0.00  0.00    +0.240 A 
ATOM      8  C   LIG    1       -1.057   2.409   0.579  0.00  0.00    +0.200 A 
ATOM      9  C   LIG    1        0.941   0.468  -2.059  0.00  0.00    -0.010 A 
ENDROOT
BRANCH   8  10
ATOM     10  C   LIG    1       -2.504   2.103   0.692  0.00  0.00    -0.000 A 
ATOM     11  C   LIG    1       -2.929   0.992   1.419  0.00  0.00    +0.050 A 
ATOM     12  C   LIG    1       -4.277   0.716   1.526  0.00  0.00    +0.010 A 
ATOM     13  C   LIG    1       -5.205   1.531   0.902  0.00  0.00    +0.020 A 
ATOM     14  C   LIG    1       -4.788   2.631   0.175  0.00  0.00    +0.020 A 
ATOM     15  C   LIG    1       -3.443   2.921   0.067  0.00  0.00    +0.040 A 
ENDBRANCH   8  10
BRANCH   1  17
ATOM     16  O   LIG    1       -2.520   0.533  -1.088  0.00  0.00    -0.460 OA
ATOM     17  C   LIG    1       -1.507   0.149  -1.639  0.00  0.00    +0.550 C 
ATOM     18  N   LIG    1       -1.562  -0.877  -2.512  0.00  0.00    -0.660 N 
ATOM     19  H   LIG    1       -0.744  -1.238  -2.889  0.00  0.00    +0.410 HD
BRANCH  18  20
ATOM     20  C   LIG    1       -2.799  -1.420  -2.876  0.00  0.00    +0.170 A 
ATOM     21  C   LIG    1       -3.951  -0.650  -2.784  0.00  0.00    +0.070 A 
ATOM     22  C   LIG    1       -5.170  -1.186  -3.150  0.00  0.00    +0.070 A 
ATOM     23  C   LIG    1       -5.247  -2.494  -3.595  0.00  0.00    -0.040 A 
ATOM     24  C   LIG    1       -4.102  -3.266  -3.682  0.00  0.00    +0.070 A 
ATOM     25 CL   LIG    1       -6.782  -3.167  -4.047  0.00  0.00    -0.050 Cl
ATOM     26  C   LIG    1       -2.879  -2.733  -3.324  0.00  0.00    -0.060 A 
ATOM     27 CL   LIG    1       -1.442  -3.702  -3.433  0.00  0.00    -0.050 Cl
ENDBRANCH  18  20
ENDBRANCH   1  17
BRANCH   7  28
ATOM     28  C   LIG    1        3.378   0.743  -2.521  0.00  0.00    +0.020 C 
ATOM     29  C   LIG    1        3.360  -0.562  -3.319  0.00  0.00    +0.040 C 
ATOM     30  C   LIG    1        4.180  -0.464  -2.030  0.00  0.00    +0.060 C 
ENDBRANCH   7  28
TORSDOF 4
