REMARK  Name = ZINCpk00001AZiuK.0
REMARK                            x       y       z     vdW  Elec       q    Type
REMARK                         _______ _______ _______ _____ _____    ______ ____
ROOT
ATOM      1  N   LIG    1        1.250   0.175   4.680  0.00  0.00    -0.530 N 
ATOM      2  H   LIG    1        0.324  -0.071   4.532  0.00  0.00    +0.420 HD
ATOM      3  C   LIG    1        1.899  -0.269   5.774  0.00  0.00    +0.520 C 
ATOM      4  O   LIG    1        3.058   0.039   5.959  0.00  0.00    -0.520 OA
ENDROOT
BRANCH   1   8
ATOM      5  N   LIG    1       -0.023   1.096   2.456  0.00  0.00    -0.730 N 
ATOM      6  H   LIG    1       -0.482   0.529   3.096  0.00  0.00    +0.390 HD
ATOM      7  C   LIG    1        1.264   1.438   2.662  0.00  0.00    +0.720 C 
ATOM      8  N   LIG    1        1.913   0.994   3.756  0.00  0.00    -0.530 N 
ATOM      9  H   LIG    1        2.840   1.240   3.904  0.00  0.00    +0.440 HD
ATOM     10  O   LIG    1        1.840   2.148   1.860  0.00  0.00    -0.560 OA
BRANCH   5  12
ATOM     11  C   LIG    1       -0.013   1.086   0.008  0.00  0.00    +0.040 C 
ATOM     12  C   LIG    1       -0.729   1.579   1.267  0.00  0.00    +0.200 C 
ATOM     13  C   LIG    1       -0.761   3.109   1.274  0.00  0.00    +0.080 C 
ATOM     14  C   LIG    1       -1.681   3.602   2.353  0.00  0.00    -0.040 C 
ATOM     15  C   LIG    1       -2.574   2.868   2.935  0.00  0.00    -0.070 C 
ATOM     16  C   LIG    1       -2.808   1.419   2.620  0.00  0.00    +0.050 C 
ATOM     17  C   LIG    1       -2.172   1.059   1.276  0.00  0.00    +0.040 C 
ENDBRANCH   5  12
ENDBRANCH   1   8
BRANCH   3  18
ATOM     18  C   LIG    1        1.186  -1.149   6.768  0.00  0.00    +0.140 C 
BRANCH  18  19
ATOM     19  C   LIG    1        2.127  -1.505   7.890  0.00  0.00    -0.020 A 
ATOM     20  C   LIG    1        2.909  -2.641   7.803  0.00  0.00    +0.010 A 
ATOM     21  C   LIG    1        3.774  -2.965   8.830  0.00  0.00    +0.120 A 
ATOM     22  C   LIG    1        3.852  -2.157   9.949  0.00  0.00    -0.660 A 
ATOM     23  C   LIG    1        3.067  -1.023  10.039  0.00  0.00    +0.120 A 
ATOM     24  C   LIG    1        2.204  -0.697   9.009  0.00  0.00    +0.010 A 
BRANCH  22  25
ATOM     25  S   LIG    1        4.952  -2.574  11.262  0.00  0.00    +2.500 S 
ATOM     26  O   LIG    1        5.242  -1.329  11.883  0.00  0.00    -0.940 OA
ATOM     27  O   LIG    1        5.974  -3.335  10.634  0.00  0.00    -0.940 OA
ATOM     28  C   LIG    1        3.964  -3.621  12.365  0.00  0.00    -0.260 C 
ENDBRANCH  22  25
ENDBRANCH  18  19
ENDBRANCH   3  18
TORSDOF 5
