REMARK  Name = ZINCpe000000Svsy.0
REMARK                            x       y       z     vdW  Elec       q    Type
REMARK                         _______ _______ _______ _____ _____    ______ ____
ROOT
ATOM      1  C   LIG    1       -1.249   3.133   0.031  0.00  0.00    -0.690 A 
ATOM      2  C   LIG    1       -1.221   1.750   0.017  0.00  0.00    +0.150 A 
ATOM      3  C   LIG    1       -0.013   1.076   0.008  0.00  0.00    +0.000 A 
ATOM      4  C   LIG    1        1.173   1.780   0.000  0.00  0.00    +0.100 A 
ATOM      5  C   LIG    1        1.153   3.176   0.008  0.00  0.00    -0.150 A 
ATOM      6  C   LIG    1       -0.070   3.849   0.023  0.00  0.00    +0.200 A 
ENDROOT
BRANCH   5   7
ATOM      7  C   LIG    1        2.420   3.937   0.001  0.00  0.00    +0.560 C 
ATOM      8  N   LIG    1        3.599   3.284  -0.014  0.00  0.00    -0.730 N 
ATOM      9  H   LIG    1        3.615   2.314  -0.019  0.00  0.00    +0.400 HD
ATOM     10  O   LIG    1        2.399   5.153   0.007  0.00  0.00    -0.530 OA
BRANCH   8  11
ATOM     11  C   LIG    1        4.854   4.038  -0.021  0.00  0.00    +0.270 C 
BRANCH  11  12
ATOM     12  C   LIG    1        6.034   3.065  -0.037  0.00  0.00    +0.000 C 
BRANCH  12  13
ATOM     13  C   LIG    1        7.346   3.853  -0.045  0.00  0.00    +0.310 C 
BRANCH  13  14
ATOM     14  N   LIG    1        8.476   2.920  -0.060  0.00  0.00    -0.620 N 
ATOM     15  C   LIG    1        9.129   2.391   1.143  0.00  0.00    +0.250 C 
ATOM     16  C   LIG    1        9.929   1.157   0.665  0.00  0.00    +0.040 C 
ATOM     17  C   LIG    1       10.178   1.500  -0.822  0.00  0.00    +0.050 C 
ATOM     18  C   LIG    1        9.051   2.444  -1.178  0.00  0.00    +0.520 C 
ATOM     19  O   LIG    1        8.715   2.729  -2.308  0.00  0.00    -0.530 OA
ENDBRANCH  13  14
ENDBRANCH  12  13
ENDBRANCH  11  12
ENDBRANCH   8  11
ENDBRANCH   5   7
BRANCH   1  20
ATOM     20  S   LIG    1       -2.793   3.981   0.051  0.00  0.00    +2.700 S 
ATOM     21  O   LIG    1       -2.537   5.267   0.600  0.00  0.00    -0.950 OA
ATOM     22  O   LIG    1       -3.741   3.076   0.599  0.00  0.00    -0.950 OA
BRANCH  20  23
ATOM     23  N   LIG    1       -3.238   4.226  -1.526  0.00  0.00    -1.110 NA
ATOM     24  H   LIG    1       -3.298   5.128  -1.878  0.00  0.00    +0.420 HD
BRANCH  23  25
ATOM     25  C   LIG    1       -3.541   3.081  -2.388  0.00  0.00    +0.300 C 
BRANCH  25  27
ATOM     26  C   LIG    1       -3.790   3.263  -4.809  0.00  0.00    +0.050 C 
ATOM     27  C   LIG    1       -4.260   3.559  -3.623  0.00  0.00    -0.050 C 
ENDBRANCH  25  27
ENDBRANCH  23  25
ENDBRANCH  20  23
ENDBRANCH   1  20
TORSDOF 9
