REMARK  Name = ZINCrH00000tj18X.0
REMARK                            x       y       z     vdW  Elec       q    Type
REMARK                         _______ _______ _______ _____ _____    ______ ____
ROOT
ATOM      1  C   LIG    1        0.371  -5.335   0.079  0.00  0.00    +0.200 A 
ATOM      2  N   LIG    1        1.187  -6.358   0.201  0.00  0.00    -0.260 NA
ATOM      3  N   LIG    1        2.500  -5.921  -0.002  0.00  0.00    -0.300 N 
ATOM      4  C   LIG    1        2.502  -4.602  -0.262  0.00  0.00    +0.300 A 
ATOM      5  C   LIG    1        1.194  -4.163  -0.232  0.00  0.00    -0.270 A 
ENDROOT
BRANCH   1  12
ATOM      6  C   LIG    1       -1.173  -7.323  -1.348  0.00  0.00    +0.100 C 
ATOM      7  C   LIG    1       -1.857  -6.317  -0.458  0.00  0.00    -0.050 A 
ATOM      8  C   LIG    1       -3.230  -6.339  -0.319  0.00  0.00    +0.000 A 
ATOM      9  C   LIG    1       -3.859  -5.416   0.498  0.00  0.00    +0.030 A 
ATOM     10  C   LIG    1       -3.117  -4.467   1.178  0.00  0.00    +0.000 A 
ATOM     11  C   LIG    1       -1.743  -4.439   1.050  0.00  0.00    +0.070 A 
ATOM     12  C   LIG    1       -1.104  -5.363   0.225  0.00  0.00    -0.030 A 
ENDBRANCH   1  12
BRANCH   3  13
ATOM     13  C   LIG    1        3.639  -6.735   0.056  0.00  0.00    +0.140 A 
ATOM     14  C   LIG    1        4.896  -6.189  -0.169  0.00  0.00    -0.010 A 
ATOM     15  C   LIG    1        6.017  -6.992  -0.105  0.00  0.00    +0.050 A 
ATOM     16  C   LIG    1        5.889  -8.341   0.172  0.00  0.00    +0.010 A 
ATOM     17  C   LIG    1        4.638  -8.889   0.391  0.00  0.00    +0.050 A 
ATOM     18  C   LIG    1        3.513  -8.089   0.334  0.00  0.00    +0.030 A 
ENDBRANCH   3  13
BRANCH   5  19
ATOM     19  C   LIG    1        0.721  -2.787  -0.459  0.00  0.00    +0.600 C 
ATOM     20  N   LIG    1        1.609  -1.787  -0.621  0.00  0.00    -0.620 N 
ATOM     21  H   LIG    1        2.561  -1.973  -0.587  0.00  0.00    +0.420 HD
ATOM     22  O   LIG    1       -0.472  -2.554  -0.502  0.00  0.00    -0.450 OA
BRANCH  20  23
ATOM     23  C   LIG    1        1.163  -0.492  -0.835  0.00  0.00    +0.380 A 
ATOM     24  N   LIG    1       -0.086  -0.102  -0.904  0.00  0.00    -0.260 NA
ATOM     25  N   LIG    1       -0.124   1.167  -1.113  0.00  0.00    -0.270 NA
ATOM     26  C   LIG    1        1.088   1.633  -1.185  0.00  0.00    +0.160 A 
ATOM     27  C   LIG    1        1.478   3.070  -1.419  0.00  0.00    +0.250 C 
ATOM     28  O   LIG    1        1.932   0.598  -1.012  0.00  0.00    -0.240 OA
ENDBRANCH  20  23
ENDBRANCH   5  19
TORSDOF 4
