REMARK  Name = ZINCqH0000007nq5.0
REMARK                            x       y       z     vdW  Elec       q    Type
REMARK                         _______ _______ _______ _____ _____    ______ ____
ROOT
ATOM      1  C   LIG    1        4.042  -0.768  -0.042  0.00  0.00    +0.160 A 
ATOM      2  C   LIG    1        4.485   0.552  -0.039  0.00  0.00    +0.040 A 
ATOM      3  C   LIG    1        3.586   1.589  -0.024  0.00  0.00    +0.090 A 
ATOM      4  C   LIG    1        2.199   1.334  -0.012  0.00  0.00    +0.100 A 
ATOM      5  N   LIG    1        1.179   2.219   0.003  0.00  0.00    -0.500 NA
ATOM      6  C   LIG    1       -0.022   1.754   0.012  0.00  0.00    +0.290 A 
ATOM      7  S   LIG    1        0.002  -0.004   0.002  0.00  0.00    +0.090 S 
ATOM      8  C   LIG    1        1.764   0.005  -0.015  0.00  0.00    -0.170 A 
ATOM      9  C   LIG    1        2.685  -1.038  -0.030  0.00  0.00    +0.060 A 
ENDROOT
BRANCH   6  10
ATOM     10  N   LIG    1       -1.166   2.526   0.021  0.00  0.00    -0.440 N 
ATOM     11  C   LIG    1       -1.958   2.289   1.255  0.00  0.00    +0.200 C 
ATOM     12  C   LIG    1       -2.853   3.550   1.351  0.00  0.00    +0.040 C 
ATOM     13  C   LIG    1       -1.914   4.678   0.864  0.00  0.00    +0.020 C 
ATOM     14  C   LIG    1       -0.833   3.967   0.028  0.00  0.00    +0.210 C 
ENDBRANCH   6  10
BRANCH   1  15
ATOM     15  N   LIG    1        4.966  -1.819  -0.056  0.00  0.00    -1.050 N 
ATOM     16  H   LIG    1        4.835  -2.572  -0.653  0.00  0.00    +0.430 HD
BRANCH  15  17
ATOM     17  S   LIG    1        6.285  -1.775   0.945  0.00  0.00    +2.700 S 
ATOM     18  O   LIG    1        6.865  -0.488   0.788  0.00  0.00    -0.950 OA
ATOM     19  O   LIG    1        7.000  -2.983   0.719  0.00  0.00    -0.950 OA
BRANCH  17  23
ATOM     20  C   LIG    1        4.746  -1.974   5.199  0.00  0.00    +0.190 A 
ATOM     21  C   LIG    1        5.046  -3.142   4.513  0.00  0.00    -0.030 A 
ATOM     22  C   LIG    1        5.516  -3.079   3.215  0.00  0.00    +0.170 A 
ATOM     23  C   LIG    1        5.686  -1.853   2.600  0.00  0.00    -0.720 A 
ATOM     24  C   LIG    1        5.393  -0.687   3.283  0.00  0.00    +0.170 A 
ATOM     25  C   LIG    1        4.917  -0.745   4.579  0.00  0.00    -0.090 A 
BRANCH  20  27
ATOM     26  C   LIG    1        3.996  -0.792   7.120  0.00  0.00    +0.250 C 
ATOM     27  O   LIG    1        4.285  -2.034   6.476  0.00  0.00    -0.310 OA
ENDBRANCH  20  27
ENDBRANCH  17  23
ENDBRANCH  15  17
ENDBRANCH   1  15
TORSDOF 5
