REMARK  Name = ZINCrD00000cAlvp.1
REMARK                            x       y       z     vdW  Elec       q    Type
REMARK                         _______ _______ _______ _____ _____    ______ ____
ROOT
ATOM      1  C   LIG    1        3.846   1.131  -3.363  0.00  0.00    +0.100 A 
ATOM      2  N   LIG    1        3.689   1.674  -2.183  0.00  0.00    -0.280 NA
ATOM      3  N   LIG    1        2.903   0.817  -1.403  0.00  0.00    -0.380 N 
ATOM      4  C   LIG    1        2.597  -0.270  -2.158  0.00  0.00    +0.300 A 
ATOM      5  C   LIG    1        3.169  -0.091  -3.381  0.00  0.00    -0.090 A 
ENDROOT
BRANCH   4   6
ATOM      6  N   LIG    1        1.835  -1.365  -1.756  0.00  0.00    -0.640 N 
ATOM      7  H   LIG    1        1.467  -1.397  -0.860  0.00  0.00    +0.410 HD
ATOM      8  C   LIG    1        1.609  -2.380  -2.614  0.00  0.00    +0.570 C 
ATOM      9  O   LIG    1        2.070  -2.340  -3.738  0.00  0.00    -0.480 OA
BRANCH   8  10
ATOM     10  C   LIG    1        0.799  -3.544  -2.188  0.00  0.00    -0.070 A 
ATOM     11  C   LIG    1        0.259  -3.611  -0.899  0.00  0.00    +0.000 A 
ATOM     12  C   LIG    1       -0.490  -4.717  -0.546  0.00  0.00    +0.280 A 
ATOM     13  N   LIG    1       -0.698  -5.697  -1.401  0.00  0.00    -0.450 NA
ATOM     14  C   LIG    1       -0.208  -5.677  -2.626  0.00  0.00    +0.120 A 
ATOM     15  C   LIG    1       -0.310  -6.669  -3.764  0.00  0.00    +0.280 C 
ATOM     16  N   LIG    1        0.047  -5.911  -4.989  0.00  0.00    -0.650 NA
ATOM     17  H   LIG    1        0.514  -6.508  -5.654  0.00  0.00    +0.360 HD
ATOM     18  C   LIG    1        0.958  -4.854  -4.493  0.00  0.00    +0.260 C 
ATOM     19  C   LIG    1        0.548  -4.603  -3.062  0.00  0.00    -0.090 A 
ENDBRANCH   8  10
ENDBRANCH   4   6
BRANCH   1  21
ATOM     20  C   LIG    1        6.048   1.159  -4.503  0.00  0.00    +0.040 C 
ATOM     21  C   LIG    1        4.626   1.723  -4.509  0.00  0.00    +0.070 C 
ATOM     22  C   LIG    1        3.941   1.367  -5.830  0.00  0.00    +0.040 C 
ENDBRANCH   1  21
BRANCH   3  23
ATOM     23  C   LIG    1        2.490   1.048  -0.016  0.00  0.00    +0.370 C 
BRANCH  23  24
ATOM     24  C   LIG    1        1.175   1.783   0.000  0.00  0.00    -0.120 A 
ATOM     25  C   LIG    1       -0.013   1.076   0.008  0.00  0.00    +0.010 A 
ATOM     26  C   LIG    1       -1.219   1.751   0.017  0.00  0.00    +0.010 A 
ATOM     27  C   LIG    1       -1.238   3.133   0.030  0.00  0.00    +0.020 A 
ATOM     28  C   LIG    1       -0.050   3.840   0.022  0.00  0.00    +0.010 A 
ATOM     29  C   LIG    1        1.156   3.165   0.008  0.00  0.00    +0.040 A 
ENDBRANCH  23  24
ENDBRANCH   3  23
TORSDOF 5
