REMARK  Name = ZINCpe00000VVGPu.0
REMARK                            x       y       z     vdW  Elec       q    Type
REMARK                         _______ _______ _______ _____ _____    ______ ____
ROOT
ATOM      1  N   LIG    1       -2.640   1.199   5.058  0.00  0.00    -0.740 N 
ATOM      2  H   LIG    1       -2.232   1.856   5.643  0.00  0.00    +0.400 HD
ATOM      3  C   LIG    1       -3.833   0.660   5.379  0.00  0.00    +0.710 C 
ATOM      4  N   LIG    1       -4.457   1.033   6.514  0.00  0.00    -0.680 N 
ATOM      5  H   LIG    1       -4.019   1.638   7.132  0.00  0.00    +0.410 HD
ATOM      6  O   LIG    1       -4.346  -0.164   4.646  0.00  0.00    -0.570 OA
ENDROOT
BRANCH   4   7
ATOM      7  C   LIG    1       -5.740   0.548   6.800  0.00  0.00    +0.110 A 
ATOM      8  C   LIG    1       -6.102  -0.746   6.433  0.00  0.00    +0.110 A 
ATOM      9  C   LIG    1       -7.380  -1.183   6.736  0.00  0.00    +0.020 A 
ATOM     10  C   LIG    1       -8.252  -0.324   7.392  0.00  0.00    +0.340 A 
ATOM     11  N   LIG    1       -7.874   0.899   7.726  0.00  0.00    -0.480 NA
ATOM     12  C   LIG    1       -6.663   1.348   7.458  0.00  0.00    +0.280 A 
BRANCH  10  13
ATOM     13  N   LIG    1       -9.546  -0.757   7.703  0.00  0.00    -0.330 N 
ATOM     14  C   LIG    1      -10.503  -0.052   8.337  0.00  0.00    +0.520 A 
ATOM     15  N   LIG    1      -11.567  -0.808   8.431  0.00  0.00    -0.540 NA
ATOM     16  C   LIG    1      -11.327  -1.998   7.882  0.00  0.00    +0.450 A 
ATOM     17  N   LIG    1      -10.103  -2.015   7.422  0.00  0.00    -0.310 NA
ENDBRANCH  10  13
ENDBRANCH   4   7
BRANCH   1  18
ATOM     18  C   LIG    1       -1.962   0.793   3.825  0.00  0.00    +0.290 C 
BRANCH  18  19
ATOM     19  C   LIG    1       -0.637   1.549   3.699  0.00  0.00    +0.160 C 
BRANCH  19  23
ATOM     20  C   LIG    1       -0.738   1.593  -1.222  0.00  0.00    +0.050 C 
ATOM     21  C   LIG    1       -0.001   1.079   0.016  0.00  0.00    +0.160 C 
ATOM     22  C   LIG    1       -0.713   1.574   1.278  0.00  0.00    +0.160 C 
ATOM     23  N   LIG    1        0.043   1.142   2.462  0.00  0.00    -0.530 NA
ATOM     24  C   LIG    1        1.418   1.662   2.422  0.00  0.00    +0.160 C 
ATOM     25  C   LIG    1        2.108   1.165   1.148  0.00  0.00    +0.200 C 
ATOM     26  C   LIG    1        2.209  -0.361   1.182  0.00  0.00    +0.010 C 
ATOM     27  O   LIG    1        1.343   1.568   0.009  0.00  0.00    -0.380 OA
ENDBRANCH  19  23
ENDBRANCH  18  19
ENDBRANCH   1  18
TORSDOF 5
