REMARK  Name = ZINCpk000000ov9j.0
REMARK                            x       y       z     vdW  Elec       q    Type
REMARK                         _______ _______ _______ _____ _____    ______ ____
ROOT
ATOM      1  C   LIG    1        6.070   1.225  -2.013  0.00  0.00    +0.520 C 
ATOM      2  N   LIG    1        4.889   0.934  -1.432  0.00  0.00    -0.620 N 
ATOM      3  H   LIG    1        4.135   1.534  -1.541  0.00  0.00    +0.430 HD
ATOM      4  O   LIG    1        7.015   0.474  -1.876  0.00  0.00    -0.480 OA
ENDROOT
BRANCH   2   5
ATOM      5  C   LIG    1        4.752  -0.226  -0.676  0.00  0.00    +0.300 A 
ATOM      6  C   LIG    1        5.721  -1.153  -0.440  0.00  0.00    -0.080 A 
ATOM      7  C   LIG    1        5.169  -2.156   0.361  0.00  0.00    +0.280 A 
ATOM      8  N   LIG    1        3.920  -1.851   0.608  0.00  0.00    -0.270 NA
ATOM      9  N   LIG    1        3.624  -0.643  -0.036  0.00  0.00    -0.340 N 
BRANCH   9  10
ATOM     10  C   LIG    1        2.392   0.020  -0.021  0.00  0.00    +0.200 A 
ATOM     11  C   LIG    1        1.196  -0.695  -0.013  0.00  0.00    -0.010 A 
ATOM     12  C   LIG    1        0.002  -0.004   0.002  0.00  0.00    +0.300 A 
ATOM     13  N   LIG    1       -0.016   1.315   0.009  0.00  0.00    -0.480 NA
ATOM     14  C   LIG    1        1.095   2.027   0.003  0.00  0.00    +0.300 A 
ATOM     15  C   LIG    1        2.330   1.412  -0.013  0.00  0.00    -0.070 A 
ENDBRANCH   9  10
ENDBRANCH   2   5
BRANCH   1  18
ATOM     16  N   LIG    1        7.398   2.759  -3.404  0.00  0.00    -0.600 N 
ATOM     17  H   LIG    1        8.153   2.159  -3.295  0.00  0.00    +0.420 HD
ATOM     18  C   LIG    1        6.217   2.469  -2.823  0.00  0.00    +0.520 C 
ATOM     19  O   LIG    1        5.273   3.219  -2.960  0.00  0.00    -0.500 OA
BRANCH  16  22
ATOM     20  N   LIG    1        8.381   5.512  -5.422  0.00  0.00    -0.360 N 
ATOM     21  C   LIG    1        8.665   4.345  -4.799  0.00  0.00    +0.220 A 
ATOM     22  C   LIG    1        7.537   3.930  -4.167  0.00  0.00    -0.020 A 
ATOM     23  C   LIG    1        6.536   4.884  -4.408  0.00  0.00    +0.270 A 
ATOM     24  N   LIG    1        7.042   5.828  -5.158  0.00  0.00    -0.280 NA
BRANCH  20  25
ATOM     25  C   LIG    1        9.311   6.307  -6.227  0.00  0.00    +0.330 C 
BRANCH  25  27
ATOM     26  C   LIG    1        9.680   7.381  -8.452  0.00  0.00    +0.030 C 
ATOM     27  C   LIG    1        8.708   6.550  -7.612  0.00  0.00    +0.010 C 
ENDBRANCH  25  27
ENDBRANCH  20  25
ENDBRANCH  16  22
ENDBRANCH   1  18
TORSDOF 6
