REMARK  Name = ZINCrD0000073LkC.0
REMARK                            x       y       z     vdW  Elec       q    Type
REMARK                         _______ _______ _______ _____ _____    ______ ____
ROOT
ATOM      1  C   LIG    1        1.774   2.932  -0.900  0.00  0.00    +0.580 C 
ATOM      2  N   LIG    1        1.461   1.819  -0.209  0.00  0.00    -0.600 N 
ATOM      3  C   LIG    1        0.075   1.327  -0.158  0.00  0.00    +0.290 C 
ATOM      4  C   LIG    1        0.072  -0.158  -0.539  0.00  0.00    +0.190 C 
ATOM      5  N   LIG    1        1.020  -0.882   0.317  0.00  0.00    -0.490 N 
ATOM      6  C   LIG    1        2.396  -0.410   0.107  0.00  0.00    +0.180 C 
ATOM      7  C   LIG    1        2.495   1.063   0.515  0.00  0.00    +0.300 C 
ATOM      8  O   LIG    1        0.932   3.479  -1.586  0.00  0.00    -0.530 OA
ENDROOT
BRANCH   1  11
ATOM      9  C   LIG    1        5.227   3.446   0.204  0.00  0.00    +0.360 A 
ATOM     10  N   LIG    1        3.996   3.003   0.083  0.00  0.00    -0.530 NA
ATOM     11  C   LIG    1        3.142   3.490  -0.824  0.00  0.00    +0.090 A 
ATOM     12  C   LIG    1        3.507   4.504  -1.689  0.00  0.00    +0.050 A 
ATOM     13  C   LIG    1        4.811   5.026  -1.606  0.00  0.00    -0.010 A 
ATOM     14  C   LIG    1        5.256   6.055  -2.448  0.00  0.00    +0.030 A 
ATOM     15  C   LIG    1        6.532   6.520  -2.322  0.00  0.00    +0.040 A 
ATOM     16  C   LIG    1        7.397   5.988  -1.370  0.00  0.00    +0.010 A 
ATOM     17  C   LIG    1        6.996   4.986  -0.536  0.00  0.00    +0.070 A 
ATOM     18  C   LIG    1        5.693   4.484  -0.636  0.00  0.00    -0.100 A 
BRANCH   9  20
ATOM     19  C   LIG    1        5.513   1.866   1.953  0.00  0.00    +0.260 C 
ATOM     20  O   LIG    1        6.049   2.911   1.138  0.00  0.00    -0.300 OA
ENDBRANCH   9  20
ENDBRANCH   1  11
BRANCH   5  21
ATOM     21  C   LIG    1        0.927  -2.262   0.113  0.00  0.00    +0.100 A 
ATOM     22  C   LIG    1        0.015  -2.769  -0.803  0.00  0.00    +0.000 A 
ATOM     23  C   LIG    1       -0.072  -4.133  -1.007  0.00  0.00    +0.020 A 
ATOM     24  C   LIG    1        0.742  -4.994  -0.292  0.00  0.00    +0.070 A 
ATOM     25  C   LIG    1        1.649  -4.491   0.625  0.00  0.00    +0.010 A 
ATOM     26  F   LIG    1        0.652  -6.327  -0.490  0.00  0.00    -0.140 F 
ATOM     27  C   LIG    1        1.743  -3.128   0.829  0.00  0.00    +0.030 A 
ENDBRANCH   5  21
TORSDOF 3
