REMARK  Name = ZINCrg00000bL7lQ.0
REMARK                            x       y       z     vdW  Elec       q    Type
REMARK                         _______ _______ _______ _____ _____    ______ ____
ROOT
ATOM      1  C   LIG    1       -3.190   2.407  -1.449  0.00  0.00    +0.620 C 
ATOM      2  N   LIG    1       -2.183   1.902  -0.710  0.00  0.00    -0.610 N 
ATOM      3  C   LIG    1       -0.821   1.627  -1.190  0.00  0.00    +0.260 C 
ATOM      4  C   LIG    1       -0.013   1.086   0.008  0.00  0.00    +0.060 C 
ATOM      5  C   LIG    1       -0.802   1.617   1.234  0.00  0.00    +0.160 C 
ATOM      6  C   LIG    1       -0.595   0.716   2.452  0.00  0.00    +0.060 C 
ATOM      7  C   LIG    1       -2.264   1.534   0.716  0.00  0.00    +0.270 C 
ATOM      8  O   LIG    1       -4.280   2.594  -0.945  0.00  0.00    -0.530 OA
ENDROOT
BRANCH   1  15
ATOM      9  C   LIG    1       -5.362   3.603  -3.482  0.00  0.00    +0.130 C 
ATOM     10  C   LIG    1       -3.924   3.261  -3.774  0.00  0.00    -0.140 A 
ATOM     11  C   LIG    1       -3.272   3.398  -4.953  0.00  0.00    +0.160 A 
ATOM     12  N   LIG    1       -2.007   2.966  -4.763  0.00  0.00    -0.280 N 
ATOM     13  N   LIG    1       -1.846   2.583  -3.547  0.00  0.00    -0.260 NA
ATOM     14  C   LIG    1       -0.967   2.939  -5.794  0.00  0.00    +0.380 C 
ATOM     15  C   LIG    1       -2.969   2.733  -2.873  0.00  0.00    -0.020 A 
ENDBRANCH   1  15
BRANCH   5  16
ATOM     16  N   LIG    1       -0.430   3.001   1.538  0.00  0.00    -0.690 N 
ATOM     17  H   LIG    1        0.233   3.456   0.994  0.00  0.00    +0.410 HD
ATOM     18  C   LIG    1       -1.009   3.643   2.572  0.00  0.00    +0.580 C 
ATOM     19  O   LIG    1       -1.839   3.074   3.252  0.00  0.00    -0.510 OA
BRANCH  18  20
ATOM     20  C   LIG    1       -0.633   5.042   2.879  0.00  0.00    +0.180 A 
ATOM     21  C   LIG    1       -1.223   5.728   3.951  0.00  0.00    -0.160 A 
ATOM     22  C   LIG    1       -2.221   5.405   4.964  0.00  0.00    +0.010 A 
ATOM     23  C   LIG    1       -2.368   6.501   5.731  0.00  0.00    +0.260 A 
ATOM     24  N   LIG    1       -1.542   7.497   5.286  0.00  0.00    -0.570 N 
ATOM     25  H   LIG    1       -1.473   8.381   5.680  0.00  0.00    +0.430 HD
ATOM     26  C   LIG    1       -0.827   7.064   4.201  0.00  0.00    +0.320 A 
ATOM     27  N   LIG    1        0.086   7.611   3.411  0.00  0.00    -0.510 NA
ATOM     28  C   LIG    1        0.613   6.928   2.415  0.00  0.00    +0.520 A 
ATOM     29  N   LIG    1        0.279   5.682   2.148  0.00  0.00    -0.510 NA
ENDBRANCH  18  20
ENDBRANCH   5  16
TORSDOF 3
