REMARK  Name = ZINCvU000000059n.0
REMARK                            x       y       z     vdW  Elec       q    Type
REMARK                         _______ _______ _______ _____ _____    ______ ____
ROOT
ATOM      1  N   LIG    1        9.845  -2.355  -0.097  0.00  0.00    -0.470 N 
ATOM      2  C   LIG    1        9.373  -1.683   1.121  0.00  0.00    +0.230 C 
ATOM      3  C   LIG    1        7.844  -1.730   1.170  0.00  0.00    +0.060 C 
ATOM      4  C   LIG    1        7.276  -1.036  -0.071  0.00  0.00    +0.120 C 
ATOM      5  C   LIG    1        7.822  -1.724  -1.325  0.00  0.00    +0.060 C 
ATOM      6  C   LIG    1        9.351  -1.677  -1.302  0.00  0.00    +0.220 C 
ENDROOT
BRANCH   1  10
ATOM      7  C   LIG    1       14.023  -3.765  -2.285  0.00  0.00    +0.140 C 
ATOM      8  C   LIG    1       13.268  -3.120  -1.151  0.00  0.00    +0.200 A 
ATOM      9  C   LIG    1       11.888  -3.057  -1.178  0.00  0.00    -0.100 A 
ATOM     10  C   LIG    1       11.227  -2.446  -0.109  0.00  0.00    +0.370 A 
ATOM     11  N   LIG    1       11.944  -1.958   0.897  0.00  0.00    -0.550 NA
ATOM     12  C   LIG    1       13.267  -2.043   0.888  0.00  0.00    +0.390 A 
ATOM     13  N   LIG    1       13.920  -2.613  -0.116  0.00  0.00    -0.530 NA
BRANCH  12  14
ATOM     14  C   LIG    1       14.036  -1.488   2.028  0.00  0.00    -0.030 A 
ATOM     15  C   LIG    1       13.370  -0.880   3.091  0.00  0.00    +0.080 A 
ATOM     16  C   LIG    1       14.089  -0.369   4.151  0.00  0.00    +0.040 A 
ATOM     17  C   LIG    1       15.471  -0.451   4.156  0.00  0.00    -0.070 A 
ATOM     18  C   LIG    1       16.138  -1.050   3.101  0.00  0.00    +0.040 A 
ATOM     19 BR   LIG    1       16.452   0.258   5.610  0.00  0.00    -0.040 Br
ATOM     20  C   LIG    1       15.428  -1.568   2.038  0.00  0.00    +0.090 A 
ENDBRANCH  12  14
ENDBRANCH   1  10
BRANCH   4  21
ATOM     21  C   LIG    1        5.772  -1.131  -0.058  0.00  0.00    +0.190 A 
ATOM     22  N   LIG    1        4.929  -0.129  -0.051  0.00  0.00    -0.470 NA
ATOM     23  C   LIG    1        3.699  -0.689  -0.036  0.00  0.00    +0.210 A 
ATOM     24  N   LIG    1        3.865  -1.986  -0.045  0.00  0.00    -0.370 NA
ATOM     25  O   LIG    1        5.048  -2.255  -0.057  0.00  0.00    +0.090 OA
BRANCH  23  26
ATOM     26  C   LIG    1        2.402   0.033  -0.021  0.00  0.00    -0.030 A 
ATOM     27  C   LIG    1        1.205  -0.680  -0.013  0.00  0.00    +0.050 A 
ATOM     28  C   LIG    1        0.002  -0.004   0.002  0.00  0.00    +0.010 A 
ATOM     29  C   LIG    1       -0.017   1.379   0.010  0.00  0.00    +0.030 A 
ATOM     30  C   LIG    1        1.169   2.092   0.002  0.00  0.00    +0.010 A 
ATOM     31  C   LIG    1        2.377   1.426  -0.013  0.00  0.00    +0.050 A 
ENDBRANCH  23  26
ENDBRANCH   4  21
TORSDOF 4
