REMARK  Name = ZINCfA000000JmlL.0
REMARK                            x       y       z     vdW  Elec       q    Type
REMARK                         _______ _______ _______ _____ _____    ______ ____
ROOT
ATOM      1  C   LIG    1       -2.188   1.063  -1.221  0.00  0.00    +0.130 C 
ATOM      2  C   LIG    1       -0.753   1.593  -1.232  0.00  0.00    +0.070 C 
ATOM      3  C   LIG    1       -0.013   1.086   0.008  0.00  0.00    +0.030 C 
ATOM      4  C   LIG    1       -0.729   1.579   1.267  0.00  0.00    +0.020 C 
ATOM      5  C   LIG    1       -2.164   1.050   1.278  0.00  0.00    +0.030 C 
ATOM      6  C   LIG    1       -2.904   1.556   0.038  0.00  0.00    +0.070 C 
ENDROOT
BRANCH   1   7
ATOM      7  C   LIG    1       -2.917   1.562  -2.442  0.00  0.00    -0.180 A 
ATOM      8  C   LIG    1       -3.433   0.662  -3.354  0.00  0.00    +0.060 A 
ATOM      9  C   LIG    1       -4.107   1.118  -4.471  0.00  0.00    +0.020 A 
ATOM     10  C   LIG    1       -4.255   2.478  -4.683  0.00  0.00    +0.160 A 
ATOM     11  C   LIG    1       -3.733   3.381  -3.773  0.00  0.00    -0.010 A 
ATOM     12  F   LIG    1       -4.909   2.924  -5.778  0.00  0.00    -0.110 F 
ATOM     13  C   LIG    1       -3.064   2.923  -2.652  0.00  0.00    +0.170 A 
ATOM     14  F   LIG    1       -2.554   3.803  -1.763  0.00  0.00    -0.110 F 
ENDBRANCH   1   7
BRANCH   1  15
ATOM     15  N   LIG    1       -2.168  -0.406  -1.229  0.00  0.00    -0.640 N 
ATOM     16  H   LIG    1       -1.696  -0.731  -2.059  0.00  0.00    +0.440 HD
ATOM     17  H   LIG    1       -3.115  -0.755  -1.222  0.00  0.00    +0.440 HD
ATOM     18  H   LIG    1       -1.680  -0.740  -0.411  0.00  0.00    +0.440 HD
ENDBRANCH   1  15
TORSDOF 2
