REMARK  Name = ZINCrg000000obJ1.0
REMARK                            x       y       z     vdW  Elec       q    Type
REMARK                         _______ _______ _______ _____ _____    ______ ____
ROOT
ATOM      1  N   LIG    1        0.002  -0.004   0.002  0.00  0.00    -1.120 NA
ATOM      2  H   LIG    1        0.818  -0.477  -0.226  0.00  0.00    +0.420 HD
ENDROOT
BRANCH   1   3
ATOM      3  S   LIG    1       -1.368  -0.853   0.382  0.00  0.00    +2.700 S 
ATOM      4  O   LIG    1       -1.872  -0.285   1.583  0.00  0.00    -0.950 OA
ATOM      5  O   LIG    1       -1.037  -2.229   0.251  0.00  0.00    -0.950 OA
BRANCH   3   9
ATOM      6  C   LIG    1       -4.432   0.037  -2.836  0.00  0.00    -0.070 A 
ATOM      7  C   LIG    1       -3.555  -1.040  -2.981  0.00  0.00    +0.070 A 
ATOM      8  C   LIG    1       -2.624  -1.305  -1.998  0.00  0.00    +0.120 A 
ATOM      9  C   LIG    1       -2.560  -0.507  -0.870  0.00  0.00    -0.650 A 
ATOM     10  C   LIG    1       -3.430   0.558  -0.716  0.00  0.00    +0.120 A 
ATOM     11  C   LIG    1       -4.361   0.838  -1.695  0.00  0.00    +0.070 A 
BRANCH   6  12
ATOM     12  C   LIG    1       -5.432   0.326  -3.885  0.00  0.00    +0.500 C 
ATOM     13  O   LIG    1       -5.492  -0.373  -4.876  0.00  0.00    -0.490 OA
BRANCH  12  14
ATOM     14  O   LIG    1       -6.277   1.365  -3.741  0.00  0.00    -0.350 OA
BRANCH  14  16
ATOM     15  C   LIG    1       -8.100   2.805  -4.473  0.00  0.00    +0.070 C 
ATOM     16  C   LIG    1       -7.232   1.591  -4.811  0.00  0.00    +0.200 C 
ENDBRANCH  14  16
ENDBRANCH  12  14
ENDBRANCH   6  12
ENDBRANCH   3   9
ENDBRANCH   1   3
BRANCH   1  17
ATOM     17  C   LIG    1       -0.018   1.461   0.010  0.00  0.00    +0.280 C 
BRANCH  17  18
ATOM     18  C   LIG    1        1.418   1.990  -0.001  0.00  0.00    +0.080 C 
BRANCH  18  19
ATOM     19  C   LIG    1        1.397   3.497   0.007  0.00  0.00    -0.030 A 
ATOM     20  C   LIG    1        1.382   4.195  -1.186  0.00  0.00    +0.000 A 
ATOM     21  C   LIG    1        1.358   5.577  -1.178  0.00  0.00    +0.130 A 
ATOM     22  C   LIG    1        1.361   6.262   0.023  0.00  0.00    -0.680 A 
ATOM     23  C   LIG    1        1.381   5.564   1.216  0.00  0.00    +0.130 A 
ATOM     24  C   LIG    1        1.399   4.182   1.208  0.00  0.00    +0.010 A 
BRANCH  22  25
ATOM     25  S   LIG    1        1.338   8.023   0.032  0.00  0.00    +2.700 S 
ATOM     26  O   LIG    1        0.800   8.411   1.289  0.00  0.00    -0.960 OA
ATOM     27  O   LIG    1        0.776   8.424  -1.210  0.00  0.00    -0.960 OA
BRANCH  25  28
ATOM     28  N   LIG    1        2.913   8.534   0.020  0.00  0.00    -1.250 NA
ATOM     29  H   LIG    1        3.603   7.989   0.431  0.00  0.00    +0.420 HD
ATOM     30  H   LIG    1        3.146   9.378  -0.398  0.00  0.00    +0.420 HD
ENDBRANCH  25  28
ENDBRANCH  22  25
ENDBRANCH  18  19
ENDBRANCH  17  18
ENDBRANCH   1  17
TORSDOF 10
