REMARK  Name = ZINCrD000000fNZX.0
REMARK                            x       y       z     vdW  Elec       q    Type
REMARK                         _______ _______ _______ _____ _____    ______ ____
ROOT
ATOM      1  C   LIG    1        2.489   1.146  -0.444  0.00  0.00    +0.580 C 
ATOM      2  N   LIG    1        2.785  -0.136  -0.150  0.00  0.00    -0.610 N 
ATOM      3  C   LIG    1        1.733  -1.161  -0.131  0.00  0.00    +0.260 C 
ATOM      4  C   LIG    1        2.160  -2.317  -1.049  0.00  0.00    +0.020 C 
ATOM      5  C   LIG    1        3.538  -2.822  -0.616  0.00  0.00    +0.020 C 
ATOM      6  C   LIG    1        4.563  -1.695  -0.753  0.00  0.00    +0.030 C 
ATOM      7  C   LIG    1        4.164  -0.533   0.163  0.00  0.00    +0.220 C 
ATOM      8  O   LIG    1        3.381   1.966  -0.552  0.00  0.00    -0.490 OA
ENDROOT
BRANCH   1  13
ATOM      9  C   LIG    1       -0.765   2.531  -1.399  0.00  0.00    -0.250 A 
ATOM     10  C   LIG    1       -1.106   1.684  -0.356  0.00  0.00    +0.100 A 
ATOM     11  N   LIG    1        0.014   1.104   0.101  0.00  0.00    -0.530 N 
ATOM     12  H   LIG    1        0.059   0.467   0.831  0.00  0.00    +0.420 HD
ATOM     13  C   LIG    1        1.091   1.552  -0.635  0.00  0.00    -0.060 A 
ATOM     14  C   LIG    1       -2.497   1.455   0.176  0.00  0.00    +0.150 C 
ATOM     15  C   LIG    1        0.637   2.434  -1.568  0.00  0.00    -0.040 A 
ATOM     16  C   LIG    1        1.470   3.168  -2.587  0.00  0.00    +0.120 C 
BRANCH   9  18
ATOM     17  C   LIG    1       -1.920   4.800  -1.786  0.00  0.00    +0.060 C 
ATOM     18  C   LIG    1       -1.683   3.365  -2.181  0.00  0.00    +0.440 C 
ATOM     19  O   LIG    1       -2.251   2.899  -3.146  0.00  0.00    -0.450 OA
ENDBRANCH   9  18
ENDBRANCH   1  13
BRANCH   7  20
ATOM     20  C   LIG    1        5.105   0.651  -0.071  0.00  0.00    +0.320 C 
BRANCH  20  21
ATOM     21  N   LIG    1        4.878   1.665   0.961  0.00  0.00    -0.680 N 
ATOM     22  H   LIG    1        4.149   1.561   1.592  0.00  0.00    +0.400 HD
ATOM     23  C   LIG    1        5.684   2.744   1.033  0.00  0.00    +0.660 C 
ATOM     24  O   LIG    1        6.597   2.874   0.243  0.00  0.00    -0.570 OA
BRANCH  23  25
ATOM     25  O   LIG    1        5.476   3.676   1.982  0.00  0.00    -0.370 OA
BRANCH  25  26
ATOM     26  C   LIG    1        6.381   4.811   2.001  0.00  0.00    +0.140 C 
ATOM     27  C   LIG    1        7.813   4.317   2.217  0.00  0.00    +0.040 C 
ATOM     28  C   LIG    1        5.991   5.757   3.138  0.00  0.00    +0.070 C 
ATOM     29  C   LIG    1        6.295   5.555   0.667  0.00  0.00    +0.040 C 
ENDBRANCH  25  26
ENDBRANCH  23  25
ENDBRANCH  20  21
ENDBRANCH   7  20
TORSDOF 6
