REMARK  Name = ZINCrH000004pq1i.0
REMARK                            x       y       z     vdW  Elec       q    Type
REMARK                         _______ _______ _______ _____ _____    ______ ____
ROOT
ATOM      1  C   LIG    1       -3.652   2.454  -0.174  0.00  0.00    +0.230 C 
ATOM      2  C   LIG    1       -2.798   1.797  -1.264  0.00  0.00    +0.110 C 
ATOM      3  C   LIG    1       -2.910   0.296  -1.200  0.00  0.00    -0.070 A 
ATOM      4  C   LIG    1       -2.555  -0.425  -2.333  0.00  0.00    +0.000 A 
ATOM      5  C   LIG    1       -2.611  -1.804  -2.333  0.00  0.00    +0.020 A 
ATOM      6  C   LIG    1       -3.023  -2.475  -1.198  0.00  0.00    +0.010 A 
ATOM      7  C   LIG    1       -3.382  -1.761  -0.073  0.00  0.00    +0.020 A 
ATOM      8  C   LIG    1       -3.331  -0.374  -0.073  0.00  0.00    -0.100 A 
ATOM      9  C   LIG    1       -3.748   0.346   1.185  0.00  0.00    +0.350 C 
ATOM     10  N   LIG    1       -3.370   1.760   1.093  0.00  0.00    -0.600 N 
ATOM     11  C   LIG    1       -2.793   2.400   2.130  0.00  0.00    +0.600 C 
ATOM     12  O   LIG    1       -2.572   3.595   2.060  0.00  0.00    -0.480 OA
ENDROOT
BRANCH  11  13
ATOM     13  C   LIG    1       -2.430   1.657   3.341  0.00  0.00    -0.080 A 
ATOM     14  C   LIG    1       -1.729   2.148   4.404  0.00  0.00    +0.050 A 
ATOM     15  C   LIG    1       -1.607   1.098   5.327  0.00  0.00    -0.060 A 
ATOM     16  C   LIG    1       -2.233   0.025   4.794  0.00  0.00    +0.200 A 
ATOM     17  O   LIG    1       -2.727   0.366   3.597  0.00  0.00    -0.160 OA
ENDBRANCH  11  13
BRANCH   1  20
ATOM     18  N   LIG    1       -4.261   4.846  -0.007  0.00  0.00    -0.720 N 
ATOM     19  H   LIG    1       -5.192   4.580  -0.057  0.00  0.00    +0.390 HD
ATOM     20  C   LIG    1       -3.290   3.912  -0.049  0.00  0.00    +0.540 C 
ATOM     21  O   LIG    1       -2.126   4.244   0.015  0.00  0.00    -0.510 OA
BRANCH  18  23
ATOM     22  C   LIG    1       -3.619   6.838  -1.272  0.00  0.00    +0.040 C 
ATOM     23  C   LIG    1       -3.909   6.263   0.115  0.00  0.00    +0.330 C 
BRANCH  23  24
ATOM     24  C   LIG    1       -5.058   7.013   0.740  0.00  0.00    -0.190 A 
ATOM     25  C   LIG    1       -4.939   7.985   1.646  0.00  0.00    +0.020 A 
ATOM     26  C   LIG    1       -6.136   8.530   2.077  0.00  0.00    +0.010 A 
ATOM     27  C   LIG    1       -7.227   8.001   1.520  0.00  0.00    -0.040 A 
ATOM     28  S   LIG    1       -6.758   6.747   0.379  0.00  0.00    +0.090 S 
ENDBRANCH  23  24
ENDBRANCH  18  23
ENDBRANCH   1  20
TORSDOF 4
