REMARK  Name = ZINCkj00000BgvIZ.0
REMARK                            x       y       z     vdW  Elec       q    Type
REMARK                         _______ _______ _______ _____ _____    ______ ____
ROOT
ATOM      1  N   LIG    1        3.272  -2.760   0.059  0.00  0.00    -0.730 N 
ATOM      2  H   LIG    1        2.318  -2.582   0.069  0.00  0.00    +0.390 HD
ATOM      3  C   LIG    1        4.146  -1.739  -0.045  0.00  0.00    +0.600 C 
ATOM      4  O   LIG    1        5.338  -1.967  -0.150  0.00  0.00    -0.530 OA
ENDROOT
BRANCH   3   5
ATOM      5  C   LIG    1        3.679  -0.401  -0.033  0.00  0.00    -0.160 A 
ATOM      6  C   LIG    1        2.358   0.017  -0.019  0.00  0.00    +0.300 A 
ATOM      7  N   LIG    1        2.342   1.339  -0.011  0.00  0.00    -0.480 NA
ATOM      8  C   LIG    1        3.591   1.806  -0.020  0.00  0.00    +0.240 A 
ATOM      9  C   LIG    1        4.101   3.116  -0.017  0.00  0.00    +0.130 A 
ATOM     10  C   LIG    1        5.450   3.309  -0.029  0.00  0.00    +0.060 A 
ATOM     11  C   LIG    1        6.309   2.199  -0.042  0.00  0.00    +0.100 A 
ATOM     12  C   LIG    1        5.797   0.945  -0.044  0.00  0.00    +0.210 A 
ATOM     13  F   LIG    1        7.647   2.382  -0.053  0.00  0.00    -0.110 F 
ATOM     14  N   LIG    1        4.451   0.746  -0.034  0.00  0.00    -0.300 N 
ENDBRANCH   3   5
BRANCH   1  19
ATOM     15  C   LIG    1        2.719  -5.017   0.869  0.00  0.00    -0.020 C 
ATOM     16  C   LIG    1        2.313  -6.117  -0.134  0.00  0.00    +0.020 C 
ATOM     17  C   LIG    1        3.518  -6.211  -1.102  0.00  0.00    +0.040 C 
ATOM     18  C   LIG    1        3.953  -4.732  -1.252  0.00  0.00    +0.030 C 
ATOM     19  C   LIG    1        3.761  -4.137   0.158  0.00  0.00    +0.270 C 
BRANCH  15  20
ATOM     20  C   LIG    1        1.497  -4.178   1.250  0.00  0.00    +0.270 C 
BRANCH  20  21
ATOM     21  N   LIG    1        0.563  -5.000   2.032  0.00  0.00    -0.640 N 
ATOM     22  H   LIG    1        0.269  -5.792   1.480  0.00  0.00    +0.440 HD
ATOM     23  H   LIG    1       -0.242  -4.447   2.283  0.00  0.00    +0.440 HD
ATOM     24  H   LIG    1        1.022  -5.326   2.869  0.00  0.00    +0.440 HD
ENDBRANCH  20  21
ENDBRANCH  15  20
ENDBRANCH   1  19
TORSDOF 4
