REMARK  Name = ZINCrD00000hQ4gT.0
REMARK                            x       y       z     vdW  Elec       q    Type
REMARK                         _______ _______ _______ _____ _____    ______ ____
ROOT
ATOM      1  C   LIG    1        1.220   1.806  -0.286  0.00  0.00    +0.250 A 
ATOM      2  N   LIG    1        0.083   1.271  -0.650  0.00  0.00    -0.280 NA
ATOM      3  N   LIG    1        0.071  -0.045  -0.161  0.00  0.00    -0.330 N 
ATOM      4  C   LIG    1        1.255  -0.217   0.492  0.00  0.00    +0.380 A 
ATOM      5  N   LIG    1        1.929   0.915   0.401  0.00  0.00    -0.500 NA
ENDROOT
BRANCH   3   6
ATOM      6  C   LIG    1       -0.951  -0.991  -0.313  0.00  0.00    +0.100 A 
ATOM      7  C   LIG    1       -0.828  -2.002  -1.257  0.00  0.00    +0.080 A 
ATOM      8  C   LIG    1       -1.837  -2.934  -1.405  0.00  0.00    +0.000 A 
ATOM      9  C   LIG    1       -2.971  -2.860  -0.614  0.00  0.00    +0.130 A 
ATOM     10  C   LIG    1       -3.095  -1.853   0.329  0.00  0.00    +0.000 A 
ATOM     11  F   LIG    1       -3.956  -3.772  -0.760  0.00  0.00    -0.130 F 
ATOM     12  C   LIG    1       -2.087  -0.922   0.484  0.00  0.00    -0.020 A 
ATOM     13  C   LIG    1       -2.220   0.170   1.513  0.00  0.00    +0.120 C 
ENDBRANCH   3   6
BRANCH   4  14
ATOM     14  C   LIG    1        1.702  -1.442   1.175  0.00  0.00    -0.220 A 
ATOM     15  C   LIG    1        2.918  -1.646   1.733  0.00  0.00    +0.150 A 
ATOM     16  N   LIG    1        3.067  -2.829   2.282  0.00  0.00    -0.470 NA
ATOM     17  C   LIG    1        2.061  -3.639   2.227  0.00  0.00    +0.100 A 
ATOM     18  C   LIG    1        4.008  -0.605   1.726  0.00  0.00    +0.170 C 
ATOM     19  S   LIG    1        0.748  -2.904   1.417  0.00  0.00    +0.180 S 
BRANCH  17  20
ATOM     20  C   LIG    1        2.047  -5.033   2.800  0.00  0.00    +0.020 C 
ATOM     21  C   LIG    1        3.232  -5.450   3.673  0.00  0.00    +0.070 C 
ATOM     22  C   LIG    1        3.078  -6.028   2.264  0.00  0.00    +0.060 C 
ENDBRANCH  17  20
ENDBRANCH   4  14
BRANCH   1  23
ATOM     23  C   LIG    1        1.658   3.214  -0.597  0.00  0.00    +0.200 C 
BRANCH  23  27
ATOM     24  C   LIG    1        1.046   6.350   1.511  0.00  0.00    +0.290 C 
ATOM     25  N   LIG    1        1.487   5.453   0.440  0.00  0.00    -0.730 N 
ATOM     26  H   LIG    1        1.981   5.806  -0.316  0.00  0.00    +0.400 HD
ATOM     27  C   LIG    1        1.205   4.136   0.505  0.00  0.00    +0.520 C 
ATOM     28  O   LIG    1        0.587   3.694   1.450  0.00  0.00    -0.530 OA
ENDBRANCH  23  27
ENDBRANCH   1  23
TORSDOF 5
