REMARK  Name = ZINCpk00000eb0PV.0
REMARK                            x       y       z     vdW  Elec       q    Type
REMARK                         _______ _______ _______ _____ _____    ______ ____
ROOT
ATOM      1  N   LIG    1       -0.900   1.880  -1.312  0.00  0.00    -1.000 NA
ATOM      2  C   LIG    1       -1.884   0.970  -1.919  0.00  0.00    +0.310 C 
ATOM      3  C   LIG    1       -3.216   1.724  -2.057  0.00  0.00    +0.170 C 
ATOM      4  N   LIG    1       -2.991   2.975  -2.794  0.00  0.00    -0.520 NA
ATOM      5  C   LIG    1       -2.091   3.873  -2.057  0.00  0.00    +0.170 C 
ATOM      6  C   LIG    1       -0.717   3.209  -1.915  0.00  0.00    +0.310 C 
ENDROOT
BRANCH   1   7
ATOM      7  S   LIG    1       -0.017   1.417   0.010  0.00  0.00    +2.690 S 
ATOM      8  O   LIG    1        1.162   2.210   0.003  0.00  0.00    -0.950 OA
ATOM      9  O   LIG    1        0.002  -0.004   0.002  0.00  0.00    -0.950 OA
BRANCH   7  14
ATOM     10  C   LIG    1       -3.142   3.051   4.906  0.00  0.00    +0.090 C 
ATOM     11  C   LIG    1       -2.361   2.643   3.683  0.00  0.00    -0.030 A 
ATOM     12  C   LIG    1       -2.559   1.395   3.122  0.00  0.00    -0.010 A 
ATOM     13  C   LIG    1       -1.843   1.021   2.000  0.00  0.00    +0.120 A 
ATOM     14  C   LIG    1       -0.930   1.894   1.440  0.00  0.00    -0.680 A 
ATOM     15  C   LIG    1       -0.728   3.140   2.004  0.00  0.00    +0.120 A 
ATOM     16  C   LIG    1       -1.447   3.516   3.123  0.00  0.00    -0.010 A 
ENDBRANCH   7  14
ENDBRANCH   1   7
BRANCH   4  17
ATOM     17  C   LIG    1       -4.263   3.642  -3.101  0.00  0.00    +0.150 C 
BRANCH  17  18
ATOM     18  C   LIG    1       -5.260   2.614  -3.640  0.00  0.00    +0.220 C 
BRANCH  18  19
ATOM     19  O   LIG    1       -4.735   2.019  -4.829  0.00  0.00    -0.540 OA
ATOM     20  H   LIG    1       -4.562   2.650  -5.541  0.00  0.00    +0.370 HD
ENDBRANCH  18  19
BRANCH  18  21
ATOM     21  C   LIG    1       -6.585   3.308  -3.960  0.00  0.00    +0.150 C 
BRANCH  21  22
ATOM     22  O   LIG    1       -7.552   2.332  -4.353  0.00  0.00    -0.360 OA
BRANCH  22  23
ATOM     23  C   LIG    1       -8.832   2.878  -4.676  0.00  0.00    +0.110 C 
ATOM     24  C   LIG    1       -9.398   3.608  -3.455  0.00  0.00    +0.010 C 
ATOM     25  C   LIG    1       -9.782   1.749  -5.080  0.00  0.00    +0.050 C 
ATOM     26  C   LIG    1       -8.688   3.864  -5.837  0.00  0.00    +0.020 C 
ENDBRANCH  22  23
ENDBRANCH  21  22
ENDBRANCH  18  21
ENDBRANCH  17  18
ENDBRANCH   4  17
TORSDOF 8
