REMARK  Name = ZINCpk000005Rvx4.0
REMARK                            x       y       z     vdW  Elec       q    Type
REMARK                         _______ _______ _______ _____ _____    ______ ____
ROOT
ATOM      1  C   LIG    1       -0.825   1.630  -1.196  0.00  0.00    -0.020 C 
ATOM      2  C   LIG    1       -0.013   1.086   0.008  0.00  0.00    +0.050 C 
ATOM      3  C   LIG    1       -0.798   1.615   1.227  0.00  0.00    +0.240 C 
ATOM      4  N   LIG    1       -1.581   2.775   0.768  0.00  0.00    -0.630 N 
ATOM      5  C   LIG    1       -2.419   3.507   1.529  0.00  0.00    +0.530 C 
ATOM      6  O   LIG    1       -3.013   4.447   1.046  0.00  0.00    -0.520 OA
ATOM      7  C   LIG    1       -1.294   3.006  -0.659  0.00  0.00    +0.280 C 
ENDROOT
BRANCH   1   8
ATOM      8  C   LIG    1        0.067   1.798  -2.429  0.00  0.00    +0.350 C 
BRANCH   8  11
ATOM      9  C   LIG    1        0.919  -1.259  -4.121  0.00  0.00    +0.050 A 
ATOM     10  C   LIG    1        0.352  -0.019  -4.135  0.00  0.00    +0.190 A 
ATOM     11  N   LIG    1        0.516   0.482  -2.889  0.00  0.00    -0.290 N 
ATOM     12  N   LIG    1        1.129  -0.396  -2.175  0.00  0.00    -0.070 NA
ATOM     13  N   LIG    1        1.385  -1.445  -2.873  0.00  0.00    -0.250 NA
BRANCH   9  16
ATOM     14  C   LIG    1        3.057  -3.520  -4.474  0.00  0.00    +0.200 C 
ATOM     15  C   LIG    1        1.922  -3.196  -5.412  0.00  0.00    -0.000 A 
ATOM     16  C   LIG    1        1.001  -2.216  -5.254  0.00  0.00    +0.050 A 
ATOM     17  N   LIG    1        0.172  -2.266  -6.321  0.00  0.00    -0.480 NA
ATOM     18  C   LIG    1        0.556  -3.233  -7.102  0.00  0.00    +0.430 A 
ATOM     19  O   LIG    1        1.631  -3.827  -6.566  0.00  0.00    -0.200 OA
ENDBRANCH   9  16
ENDBRANCH   8  11
ENDBRANCH   1   8
BRANCH   5  20
ATOM     20  C   LIG    1       -2.618   3.156   2.982  0.00  0.00    +0.040 C 
BRANCH  20  21
ATOM     21  C   LIG    1       -3.611   4.135   3.611  0.00  0.00    +0.230 C 
BRANCH  21  22
ATOM     22  C   LIG    1       -3.908   3.706   5.049  0.00  0.00    -0.060 C 
ATOM     23  C   LIG    1       -4.510   2.300   5.048  0.00  0.00    +0.030 C 
ATOM     24  C   LIG    1       -4.901   4.685   5.678  0.00  0.00    +0.030 C 
ENDBRANCH  21  22
BRANCH  21  25
ATOM     25  O   LIG    1       -3.048   5.449   3.612  0.00  0.00    -0.540 OA
ATOM     26  H   LIG    1       -2.222   5.523   4.109  0.00  0.00    +0.370 HD
ENDBRANCH  21  25
ENDBRANCH  20  21
ENDBRANCH   5  20
TORSDOF 7
