REMARK  Name = ZINCpk00000e8ZKH.0
REMARK                            x       y       z     vdW  Elec       q    Type
REMARK                         _______ _______ _______ _____ _____    ______ ____
ROOT
ATOM      1  C   LIG    1       -0.462   2.200  -2.296  0.00  0.00    +0.510 C 
ATOM      2  N   LIG    1       -0.990   1.501  -1.272  0.00  0.00    -0.610 N 
ATOM      3  C   LIG    1       -0.174   1.160  -0.099  0.00  0.00    +0.290 C 
ATOM      4  C   LIG    1       -0.894   1.643   1.164  0.00  0.00    +0.030 C 
ATOM      5  C   LIG    1       -2.312   1.058   1.190  0.00  0.00    +0.000 C 
ATOM      6  C   LIG    1       -3.092   1.549  -0.032  0.00  0.00    +0.050 C 
ATOM      7  C   LIG    1       -2.393   1.065  -1.307  0.00  0.00    +0.280 C 
ATOM      8  O   LIG    1        0.697   2.553  -2.255  0.00  0.00    -0.530 OA
ENDROOT
BRANCH   5   9
ATOM      9  C   LIG    1       -3.015   1.503   2.446  0.00  0.00    +0.520 C 
ATOM     10  N   LIG    1       -2.506   1.183   3.652  0.00  0.00    -0.670 N 
ATOM     11  H   LIG    1       -1.731   0.603   3.713  0.00  0.00    +0.410 HD
ATOM     12  O   LIG    1       -4.039   2.149   2.372  0.00  0.00    -0.510 OA
BRANCH  10  13
ATOM     13  C   LIG    1       -3.095   1.687   4.813  0.00  0.00    +0.190 A 
ATOM     14  C   LIG    1       -3.692   2.946   4.824  0.00  0.00    -0.040 A 
ATOM     15  C   LIG    1       -4.266   3.406   5.991  0.00  0.00    +0.280 A 
ATOM     16  N   LIG    1       -4.246   2.674   7.089  0.00  0.00    -0.500 NA
ATOM     17  C   LIG    1       -3.687   1.479   7.120  0.00  0.00    +0.280 A 
ATOM     18  C   LIG    1       -3.095   0.945   5.994  0.00  0.00    -0.060 A 
ENDBRANCH  10  13
ENDBRANCH   5   9
BRANCH   1  19
ATOM     19  C   LIG    1       -1.312   2.542  -3.493  0.00  0.00    +0.300 C 
BRANCH  19  21
ATOM     20  C   LIG    1       -1.069   3.714  -5.614  0.00  0.00    +0.530 C 
ATOM     21  N   LIG    1       -0.513   3.298  -4.459  0.00  0.00    -0.720 N 
ATOM     22  H   LIG    1        0.416   3.500  -4.268  0.00  0.00    +0.410 HD
ATOM     23  O   LIG    1       -2.231   3.462  -5.854  0.00  0.00    -0.540 OA
BRANCH  20  25
ATOM     24  C   LIG    1       -1.109   4.840  -7.824  0.00  0.00    +0.050 C 
ATOM     25  C   LIG    1       -0.246   4.492  -6.609  0.00  0.00    -0.080 C 
ATOM     26  C   LIG    1        0.947   3.647  -7.057  0.00  0.00    +0.050 C 
ATOM     27  C   LIG    1        0.258   5.781  -5.957  0.00  0.00    +0.050 C 
ENDBRANCH  20  25
ENDBRANCH  19  21
ENDBRANCH   1  19
TORSDOF 5
