REMARK  Name = ZINCqH0000008Cvc.0
REMARK                            x       y       z     vdW  Elec       q    Type
REMARK                         _______ _______ _______ _____ _____    ______ ____
ROOT
ATOM      1  N   LIG    1       -2.775   2.822   0.083  0.00  0.00    -0.740 N 
ATOM      2  H   LIG    1       -1.899   3.195   0.271  0.00  0.00    +0.400 HD
ATOM      3  C   LIG    1       -3.713   3.579  -0.521  0.00  0.00    +0.710 C 
ATOM      4  N   LIG    1       -3.404   4.817  -0.955  0.00  0.00    -0.630 N 
ATOM      5  C   LIG    1       -4.440   5.693  -1.517  0.00  0.00    +0.320 C 
ATOM      6  C   LIG    1       -4.411   7.031  -0.762  0.00  0.00    +0.010 C 
ATOM      7  C   LIG    1       -2.996   7.612  -0.821  0.00  0.00    +0.110 C 
ATOM      8  C   LIG    1       -2.019   6.652  -0.138  0.00  0.00    +0.070 C 
ATOM      9  C   LIG    1       -2.023   5.313  -0.881  0.00  0.00    +0.290 C 
ATOM     10  O   LIG    1       -4.838   3.144  -0.673  0.00  0.00    -0.580 OA
ENDROOT
BRANCH   1  22
ATOM     11  C   LIG    1       -2.574   1.353   2.896  0.00  0.00    +0.030 C 
ATOM     12  C   LIG    1       -2.075   0.956   1.505  0.00  0.00    +0.000 C 
ATOM     13  C   LIG    1       -0.710   1.571   1.272  0.00  0.00    +0.000 C 
ATOM     14  C   LIG    1       -0.011   1.091   0.015  0.00  0.00    +0.020 C 
ATOM     15  C   LIG    1       -0.736   1.592  -1.237  0.00  0.00    +0.060 C 
ATOM     16  C   LIG    1       -1.850   0.620  -1.567  0.00  0.00    -0.070 A 
ATOM     17  C   LIG    1       -1.739  -0.191  -2.682  0.00  0.00    +0.000 A 
ATOM     18  C   LIG    1       -2.755  -1.080  -2.985  0.00  0.00    +0.000 A 
ATOM     19  C   LIG    1       -3.873  -1.154  -2.176  0.00  0.00    -0.010 A 
ATOM     20  C   LIG    1       -3.978  -0.340  -1.062  0.00  0.00    +0.020 A 
ATOM     21  C   LIG    1       -2.959   0.547  -0.765  0.00  0.00    -0.090 A 
ATOM     22  C   LIG    1       -3.077   1.438   0.454  0.00  0.00    +0.310 C 
ENDBRANCH   1  22
BRANCH   7  23
ATOM     23  C   LIG    1       -2.970   8.963  -0.103  0.00  0.00    +0.420 C 
ATOM     24  F   LIG    1       -3.345   8.788   1.234  0.00  0.00    -0.180 F 
ATOM     25  F   LIG    1       -3.863   9.841  -0.727  0.00  0.00    -0.180 F 
ATOM     26  F   LIG    1       -1.677   9.495  -0.158  0.00  0.00    -0.170 F 
ENDBRANCH   7  23
BRANCH   7  27
ATOM     27  O   LIG    1       -2.612   7.792  -2.186  0.00  0.00    -0.520 OA
ATOM     28  H   LIG    1       -3.188   8.389  -2.681  0.00  0.00    +0.390 HD
ENDBRANCH   7  27
TORSDOF 3
