REMARK  Name = ZINCpk00000y5tvv.0
REMARK                            x       y       z     vdW  Elec       q    Type
REMARK                         _______ _______ _______ _____ _____    ______ ____
ROOT
ATOM      1  N   LIG    1       -0.723   1.572  -1.182  0.00  0.00    -0.460 N 
ATOM      2  C   LIG    1       -0.013   1.086   0.008  0.00  0.00    +0.190 C 
ATOM      3  C   LIG    1       -0.729   1.579   1.267  0.00  0.00    +0.040 C 
ATOM      4  C   LIG    1       -0.764   3.110   1.262  0.00  0.00    +0.040 C 
ATOM      5  C   LIG    1       -1.466   3.591  -0.011  0.00  0.00    +0.160 C 
ATOM      6  C   LIG    1       -0.729   3.040  -1.234  0.00  0.00    +0.190 C 
ENDROOT
BRANCH   1   9
ATOM      7  C   LIG    1        1.697   0.726  -3.657  0.00  0.00    +0.480 A 
ATOM      8  N   LIG    1        1.118   1.217  -2.572  0.00  0.00    -0.620 NA
ATOM      9  C   LIG    1       -0.179   1.038  -2.336  0.00  0.00    +0.540 A 
ATOM     10  N   LIG    1       -0.970   0.376  -3.159  0.00  0.00    -0.520 NA
ATOM     11  C   LIG    1       -0.480  -0.156  -4.289  0.00  0.00    +0.200 A 
ATOM     12  C   LIG    1       -1.292  -0.864  -5.186  0.00  0.00    +0.030 A 
ATOM     13  C   LIG    1       -0.745  -1.386  -6.321  0.00  0.00    +0.060 A 
ATOM     14  C   LIG    1        0.608  -1.226  -6.604  0.00  0.00    +0.000 A 
ATOM     15  C   LIG    1        1.426  -0.542  -5.752  0.00  0.00    +0.050 A 
ATOM     16  C   LIG    1        0.896   0.005  -4.579  0.00  0.00    -0.200 A 
BRANCH   7  18
ATOM     17  C   LIG    1        3.853   1.662  -2.922  0.00  0.00    +0.300 C 
ATOM     18  N   LIG    1        3.043   0.914  -3.887  0.00  0.00    -0.700 N 
ATOM     19  H   LIG    1        3.454   0.552  -4.688  0.00  0.00    +0.410 HD
ENDBRANCH   7  18
ENDBRANCH   1   9
BRANCH   5  20
ATOM     20  O   LIG    1       -2.817   3.124  -0.017  0.00  0.00    -0.540 OA
ATOM     21  H   LIG    1       -3.321   3.390  -0.798  0.00  0.00    +0.380 HD
ENDBRANCH   5  20
BRANCH   5  22
ATOM     22  C   LIG    1       -1.454   5.121  -0.055  0.00  0.00    +0.040 C 
BRANCH  22  23
ATOM     23  C   LIG    1       -2.141   5.593  -1.310  0.00  0.00    +0.510 C 
ATOM     24  N   LIG    1       -2.251   6.912  -1.563  0.00  0.00    -0.620 N 
ATOM     25  C   LIG    1       -1.702   7.887  -0.618  0.00  0.00    +0.290 C 
ATOM     26  C   LIG    1       -2.918   7.371  -2.784  0.00  0.00    +0.290 C 
ATOM     27  O   LIG    1       -2.595   4.785  -2.093  0.00  0.00    -0.530 OA
ENDBRANCH  22  23
ENDBRANCH   5  22
TORSDOF 5
