REMARK  Name = ZINCnE00000kjlFS.0
REMARK                            x       y       z     vdW  Elec       q    Type
REMARK                         _______ _______ _______ _____ _____    ______ ____
ROOT
ATOM      1  C   LIG    1       -2.508   1.000   0.019  0.00  0.00    +0.110 A 
ATOM      2  N   LIG    1       -3.693   1.535   0.033  0.00  0.00    -0.270 NA
ATOM      3  N   LIG    1       -4.636   0.497   0.027  0.00  0.00    -0.520 NA
ATOM      4  C   LIG    1       -3.927  -0.676   0.017  0.00  0.00    +0.440 A 
ATOM      5  N   LIG    1       -4.423  -1.884   0.013  0.00  0.00    -0.670 NA
ATOM      6  O   LIG    1       -2.619  -0.346   0.012  0.00  0.00    -0.290 OA
ENDROOT
BRANCH   5   7
ATOM      7  C   LIG    1       -5.875  -2.080   0.019  0.00  0.00    +0.180 C 
ATOM      8  C   LIG    1       -6.285  -2.870   1.267  0.00  0.00    +0.020 C 
ATOM      9  C   LIG    1       -7.808  -2.851   1.372  0.00  0.00    +0.060 C 
ATOM     10  C   LIG    1       -8.434  -3.277   0.070  0.00  0.00    -0.070 A 
ATOM     11  C   LIG    1       -9.764  -3.676   0.092  0.00  0.00    +0.000 A 
ATOM     12  C   LIG    1      -10.396  -4.073  -1.069  0.00  0.00    -0.010 A 
ATOM     13  C   LIG    1       -9.701  -4.073  -2.263  0.00  0.00    -0.010 A 
ATOM     14  C   LIG    1       -8.379  -3.679  -2.287  0.00  0.00    +0.000 A 
ATOM     15  C   LIG    1       -7.740  -3.282  -1.119  0.00  0.00    -0.060 A 
ATOM     16  C   LIG    1       -6.292  -2.877  -1.215  0.00  0.00    +0.070 C 
ENDBRANCH   5   7
BRANCH   1  21
ATOM     17  C   LIG    1        2.483   3.772  -0.002  0.00  0.00    +0.110 C 
ATOM     18  C   LIG    1        1.154   3.063   0.007  0.00  0.00    +0.100 A 
ATOM     19  C   LIG    1       -0.013   3.805   0.023  0.00  0.00    -0.040 A 
ATOM     20  C   LIG    1       -1.232   3.150   0.031  0.00  0.00    +0.090 A 
ATOM     21  C   LIG    1       -1.234   1.751   0.018  0.00  0.00    -0.020 A 
ATOM     22  C   LIG    1       -0.013   1.076   0.008  0.00  0.00    +0.270 A 
ATOM     23  N   LIG    1        1.122   1.744   0.001  0.00  0.00    -0.480 NA
ENDBRANCH   1  21
TORSDOF 2
