REMARK  Name = ZINCrD0000075mSJ.0
REMARK                            x       y       z     vdW  Elec       q    Type
REMARK                         _______ _______ _______ _____ _____    ______ ____
ROOT
ATOM      1  C   LIG    1       -3.764  -0.725  -2.868  0.00  0.00    +0.130 A 
ATOM      2  C   LIG    1       -3.235  -1.069  -1.631  0.00  0.00    +0.020 A 
ATOM      3  C   LIG    1       -2.232  -0.303  -1.071  0.00  0.00    +0.000 A 
ATOM      4  C   LIG    1       -1.752   0.811  -1.745  0.00  0.00    +0.150 A 
ATOM      5  C   LIG    1       -2.285   1.156  -2.979  0.00  0.00    -0.100 A 
ATOM      6  C   LIG    1       -1.758   2.362  -3.712  0.00  0.00    +0.100 C 
ATOM      7  C   LIG    1       -1.366   3.442  -2.703  0.00  0.00    +0.070 C 
ATOM      8  C   LIG    1       -0.514   2.843  -1.616  0.00  0.00    +0.520 C 
ATOM      9  O   LIG    1        0.383   3.498  -1.129  0.00  0.00    -0.520 OA
ATOM     10  N   LIG    1       -0.735   1.590  -1.180  0.00  0.00    -0.550 N 
ATOM     11  C   LIG    1       -3.290   0.392  -3.536  0.00  0.00    +0.060 A 
ENDROOT
BRANCH   1  13
ATOM     12  C   LIG    1       -4.850  -1.648  -4.774  0.00  0.00    +0.570 C 
ATOM     13  N   LIG    1       -4.781  -1.501  -3.436  0.00  0.00    -0.650 N 
ATOM     14  H   LIG    1       -5.436  -1.934  -2.866  0.00  0.00    +0.420 HD
ATOM     15  O   LIG    1       -3.976  -1.187  -5.482  0.00  0.00    -0.510 OA
BRANCH  12  20
ATOM     16  C   LIG    1       -7.137  -3.202  -7.319  0.00  0.00    +0.250 A 
ATOM     17  C   LIG    1       -8.111  -3.710  -6.460  0.00  0.00    -0.090 A 
ATOM     18  C   LIG    1       -7.975  -3.522  -5.097  0.00  0.00    +0.300 A 
ATOM     19  N   LIG    1       -6.943  -2.873  -4.602  0.00  0.00    -0.500 NA
ATOM     20  C   LIG    1       -5.991  -2.371  -5.382  0.00  0.00    +0.110 A 
ATOM     21  C   LIG    1       -6.059  -2.513  -6.763  0.00  0.00    -0.030 A 
BRANCH  16  22
ATOM     22  N   LIG    1       -7.242  -3.372  -8.696  0.00  0.00    -0.860 N 
ATOM     23  H   LIG    1       -6.557  -3.013  -9.282  0.00  0.00    +0.410 HD
ATOM     24  H   LIG    1       -7.999  -3.849  -9.070  0.00  0.00    +0.410 HD
ENDBRANCH  16  22
ENDBRANCH  12  20
ENDBRANCH   1  13
BRANCH  10  25
ATOM     25  C   LIG    1        0.098   1.034  -0.110  0.00  0.00    +0.280 C 
BRANCH  25  26
ATOM     26  C   LIG    1       -0.539   1.347   1.246  0.00  0.00    -0.040 C 
ATOM     27  C   LIG    1       -0.478   2.864   1.521  0.00  0.00    +0.010 C 
ATOM     28  C   LIG    1       -0.205   2.963   3.043  0.00  0.00    +0.000 C 
ATOM     29  C   LIG    1        0.773   1.789   3.292  0.00  0.00    +0.010 C 
ATOM     30  C   LIG    1        0.257   0.663   2.372  0.00  0.00    +0.020 C 
ENDBRANCH  25  26
ENDBRANCH  10  25
TORSDOF 5
