REMARK  Name = ZINCrD000000AAkD.0
REMARK                            x       y       z     vdW  Elec       q    Type
REMARK                         _______ _______ _______ _____ _____    ______ ____
ROOT
ATOM      1  C   LIG    1       -0.010  -2.249   2.998  0.00  0.00    +0.120 A 
ATOM      2  C   LIG    1       -0.101  -1.315   4.022  0.00  0.00    +0.010 A 
ATOM      3  C   LIG    1       -0.183  -1.736   5.335  0.00  0.00    +0.050 A 
ATOM      4  C   LIG    1       -0.165  -3.092   5.631  0.00  0.00    +0.150 A 
ATOM      5  C   LIG    1       -0.069  -4.026   4.607  0.00  0.00    +0.000 A 
ATOM      6  C   LIG    1        0.008  -3.605   3.295  0.00  0.00    +0.040 A 
ENDROOT
BRANCH   4   7
ATOM      7  N   LIG    1       -0.243  -3.519   6.963  0.00  0.00    -0.690 N 
ATOM      8  H   LIG    1        0.244  -4.308   7.249  0.00  0.00    +0.410 HD
ATOM      9  C   LIG    1       -0.996  -2.835   7.847  0.00  0.00    +0.700 C 
ATOM     10  N   LIG    1       -1.146  -3.296   9.104  0.00  0.00    -0.740 N 
ATOM     11  H   LIG    1       -0.713  -4.122   9.373  0.00  0.00    +0.400 HD
ATOM     12  O   LIG    1       -1.539  -1.800   7.511  0.00  0.00    -0.570 OA
BRANCH  10  13
ATOM     13  C   LIG    1       -1.964  -2.552  10.065  0.00  0.00    +0.300 C 
BRANCH  13  14
ATOM     14  C   LIG    1       -1.970  -3.287  11.407  0.00  0.00    +0.140 C 
ATOM     15  C   LIG    1       -2.834  -2.516  12.423  0.00  0.00    +0.010 C 
ATOM     16  C   LIG    1       -3.920  -3.534  12.848  0.00  0.00    +0.000 C 
ATOM     17  C   LIG    1       -3.262  -4.886  12.473  0.00  0.00    +0.200 C 
ATOM     18  O   LIG    1       -2.553  -4.591  11.248  0.00  0.00    -0.370 OA
ENDBRANCH  13  14
ENDBRANCH  10  13
ENDBRANCH   4   7
BRANCH   1  21
ATOM     19  O   LIG    1       -1.041  -3.607   0.955  0.00  0.00    -0.510 OA
ATOM     20  C   LIG    1       -0.518  -2.545   0.691  0.00  0.00    +0.510 C 
ATOM     21  N   LIG    1        0.068  -1.822   1.666  0.00  0.00    -0.670 N 
ATOM     22  H   LIG    1        0.544  -1.006   1.446  0.00  0.00    +0.410 HD
BRANCH  20  23
ATOM     23  C   LIG    1       -0.523  -2.033  -0.726  0.00  0.00    +0.120 C 
BRANCH  23  24
ATOM     24  C   LIG    1       -1.236  -3.021  -1.614  0.00  0.00    -0.040 A 
ATOM     25  C   LIG    1       -0.524  -4.032  -2.232  0.00  0.00    +0.010 A 
ATOM     26  C   LIG    1       -1.177  -4.942  -3.043  0.00  0.00    +0.040 A 
ATOM     27  C   LIG    1       -2.540  -4.835  -3.245  0.00  0.00    -0.010 A 
ATOM     28  C   LIG    1       -3.253  -3.820  -2.630  0.00  0.00    +0.100 A 
ATOM     29  F   LIG    1       -4.585  -3.714  -2.826  0.00  0.00    -0.140 F 
ATOM     30  C   LIG    1       -2.599  -2.912  -1.814  0.00  0.00    -0.010 A 
ENDBRANCH  23  24
ENDBRANCH  20  23
ENDBRANCH   1  21
TORSDOF 6
