REMARK  Name = ZINCqH0000034t6A.0
REMARK                            x       y       z     vdW  Elec       q    Type
REMARK                         _______ _______ _______ _____ _____    ______ ____
ROOT
ATOM      1  C   LIG    1       -0.689  -1.202   0.780  0.00  0.00    +0.020 A 
ATOM      2  N   LIG    1        0.087  -2.259   0.632  0.00  0.00    -0.230 NA
ATOM      3  N   LIG    1        1.317  -1.897   0.554  0.00  0.00    -0.220 N 
ATOM      4  C   LIG    1        1.412  -0.543   0.650  0.00  0.00    -0.020 A 
ATOM      5  C   LIG    1        2.405   0.598   0.653  0.00  0.00    +0.130 C 
ATOM      6  C   LIG    1        1.634   1.798   1.245  0.00  0.00    +0.060 C 
ATOM      7  C   LIG    1        0.170   1.437   0.910  0.00  0.00    +0.130 C 
ATOM      8  C   LIG    1        0.157  -0.068   0.795  0.00  0.00    -0.140 A 
ENDROOT
BRANCH   3   9
ATOM      9  C   LIG    1        2.402  -2.769   0.395  0.00  0.00    +0.150 A 
ATOM     10  C   LIG    1        3.694  -2.265   0.317  0.00  0.00    +0.050 A 
ATOM     11  C   LIG    1        4.762  -3.127   0.166  0.00  0.00    +0.080 A 
ATOM     12  C   LIG    1        4.546  -4.491   0.079  0.00  0.00    -0.030 A 
ATOM     13  C   LIG    1        3.260  -4.997   0.150  0.00  0.00    +0.080 A 
ATOM     14 CL   LIG    1        5.891  -5.571  -0.119  0.00  0.00    -0.040 Cl
ATOM     15  C   LIG    1        2.188  -4.139   0.308  0.00  0.00    -0.030 A 
ATOM     16 CL   LIG    1        0.574  -4.773   0.398  0.00  0.00    -0.010 Cl
ENDBRANCH   3   9
BRANCH   1  19
ATOM     17  C   LIG    1       -2.130  -3.614   0.555  0.00  0.00    +0.340 C 
ATOM     18  N   LIG    1       -2.846  -2.356   0.780  0.00  0.00    -0.520 N 
ATOM     19  C   LIG    1       -2.159  -1.203   0.905  0.00  0.00    +0.600 C 
ATOM     20  O   LIG    1       -2.751  -0.164   1.122  0.00  0.00    -0.450 OA
BRANCH  18  21
ATOM     21  C   LIG    1       -4.231  -2.351   0.864  0.00  0.00    +0.540 A 
ATOM     22  N   LIG    1       -4.862  -1.206   1.073  0.00  0.00    -0.510 NA
ATOM     23  C   LIG    1       -6.182  -1.166   1.153  0.00  0.00    +0.350 A 
ATOM     24  C   LIG    1       -6.903  -2.343   1.026  0.00  0.00    -0.110 A 
ATOM     25  C   LIG    1       -6.210  -3.524   0.813  0.00  0.00    +0.350 A 
ATOM     26  N   LIG    1       -4.890  -3.493   0.738  0.00  0.00    -0.550 NA
ENDBRANCH  18  21
ENDBRANCH   1  19
TORSDOF 3
