REMARK  Name = ZINCpe000000XG0v.0
REMARK                            x       y       z     vdW  Elec       q    Type
REMARK                         _______ _______ _______ _____ _____    ______ ____
ROOT
ATOM      1  N   LIG    1       -4.008   0.048  -2.011  0.00  0.00    -0.740 N 
ATOM      2  H   LIG    1       -4.520   0.270  -1.218  0.00  0.00    +0.400 HD
ATOM      3  C   LIG    1       -2.747   0.505  -2.148  0.00  0.00    +0.710 C 
ATOM      4  N   LIG    1       -2.163   1.183  -1.141  0.00  0.00    -0.630 N 
ATOM      5  C   LIG    1       -0.754   1.592  -1.231  0.00  0.00    +0.320 C 
ATOM      6  C   LIG    1       -0.012   1.082   0.008  0.00  0.00    +0.050 C 
ATOM      7  C   LIG    1       -0.729   1.576   1.267  0.00  0.00    -0.450 C 
ATOM      8  C   LIG    1       -2.155   1.019   1.294  0.00  0.00    +0.060 C 
ATOM      9  C   LIG    1       -2.922   1.528   0.069  0.00  0.00    +0.280 C 
ATOM     10  O   LIG    1       -2.137   0.306  -3.181  0.00  0.00    -0.580 OA
ENDROOT
BRANCH   7  11
ATOM     11  S   LIG    1        0.170   1.009   2.737  0.00  0.00    +2.630 S 
ATOM     12  O   LIG    1        1.374   1.745   2.899  0.00  0.00    -0.950 OA
ATOM     13  O   LIG    1        0.164  -0.411   2.808  0.00  0.00    -0.940 OA
BRANCH  11  14
ATOM     14  N   LIG    1       -0.776   1.485   4.010  0.00  0.00    -1.010 NA
ATOM     15  C   LIG    1       -0.676   2.771   4.716  0.00  0.00    +0.260 C 
ATOM     16  C   LIG    1       -1.736   2.760   5.838  0.00  0.00    +0.030 C 
ATOM     17  C   LIG    1       -1.982   1.245   6.066  0.00  0.00    +0.030 C 
ATOM     18  C   LIG    1       -1.852   0.689   4.626  0.00  0.00    +0.270 C 
ENDBRANCH  11  14
ENDBRANCH   7  11
BRANCH   1  19
ATOM     19  C   LIG    1       -4.604  -0.783  -3.060  0.00  0.00    +0.370 C 
BRANCH  19  23
ATOM     20  C   LIG    1       -9.566  -0.014  -3.177  0.00  0.00    +0.150 C 
ATOM     21  C   LIG    1       -8.361  -0.794  -2.720  0.00  0.00    +0.180 A 
ATOM     22  C   LIG    1       -7.087  -0.410  -3.109  0.00  0.00    -0.060 A 
ATOM     23  C   LIG    1       -6.008  -1.159  -2.665  0.00  0.00    +0.160 A 
ATOM     24  N   LIG    1       -6.230  -2.211  -1.894  0.00  0.00    -0.510 NA
ATOM     25  C   LIG    1       -7.455  -2.543  -1.539  0.00  0.00    +0.500 A 
ATOM     26  N   LIG    1       -8.504  -1.855  -1.943  0.00  0.00    -0.520 NA
ENDBRANCH  19  23
ENDBRANCH   1  19
TORSDOF 4
