REMARK  Name = ZINCvU0000000FUv.0
REMARK                            x       y       z     vdW  Elec       q    Type
REMARK                         _______ _______ _______ _____ _____    ______ ____
ROOT
ATOM      1  N   LIG    1       -8.908   3.281  -0.467  0.00  0.00    -0.480 N 
ATOM      2  C   LIG    1       -9.699   4.070  -1.231  0.00  0.00    +0.560 A 
ATOM      3  C   LIG    1       -9.474   5.520  -1.173  0.00  0.00    -0.200 A 
ATOM      4  C   LIG    1      -10.237   6.413  -1.923  0.00  0.00    +0.130 A 
ATOM      5  C   LIG    1       -9.991   7.755  -1.834  0.00  0.00    +0.020 A 
ATOM      6  C   LIG    1       -8.986   8.239  -1.004  0.00  0.00    +0.010 A 
ATOM      7  C   LIG    1       -8.217   7.378  -0.252  0.00  0.00    +0.040 A 
ATOM      8 CL   LIG    1       -8.698   9.949  -0.914  0.00  0.00    -0.050 Cl
ATOM      9  C   LIG    1       -8.450   6.003  -0.325  0.00  0.00    +0.180 A 
ATOM     10  N   LIG    1       -7.723   5.121   0.400  0.00  0.00    -0.530 NA
ATOM     11  O   LIG    1      -10.565   3.594  -1.942  0.00  0.00    -0.490 OA
ATOM     12  C   LIG    1       -7.939   3.831   0.327  0.00  0.00    +0.360 A 
ENDROOT
BRANCH   1  17
ATOM     13  C   LIG    1       -9.619  -2.348  -0.555  0.00  0.00    +0.100 C 
ATOM     14  C   LIG    1       -9.430  -0.853  -0.531  0.00  0.00    -0.060 A 
ATOM     15  C   LIG    1      -10.100  -0.087   0.405  0.00  0.00    +0.030 A 
ATOM     16  C   LIG    1       -9.929   1.283   0.429  0.00  0.00    +0.050 A 
ATOM     17  C   LIG    1       -9.083   1.892  -0.488  0.00  0.00    +0.080 A 
ATOM     18  C   LIG    1       -8.416   1.121  -1.431  0.00  0.00    +0.050 A 
ATOM     19  C   LIG    1       -8.587  -0.249  -1.447  0.00  0.00    +0.030 A 
ENDBRANCH   1  17
BRANCH  12  20
ATOM     20  S   LIG    1       -6.939   2.754   1.300  0.00  0.00    +0.110 S 
BRANCH  20  21
ATOM     21  C   LIG    1       -5.872   3.968   2.115  0.00  0.00    +0.120 C 
BRANCH  21  22
ATOM     22  C   LIG    1       -4.906   3.255   3.026  0.00  0.00    +0.530 C 
ATOM     23  N   LIG    1       -4.008   3.962   3.741  0.00  0.00    -0.670 N 
ATOM     24  H   LIG    1       -4.032   4.931   3.728  0.00  0.00    +0.420 HD
ATOM     25  O   LIG    1       -4.935   2.046   3.114  0.00  0.00    -0.500 OA
BRANCH  23  26
ATOM     26  C   LIG    1       -3.042   3.296   4.504  0.00  0.00    +0.150 A 
ATOM     27  C   LIG    1       -2.608   3.840   5.706  0.00  0.00    -0.020 A 
ATOM     28  C   LIG    1       -1.651   3.183   6.454  0.00  0.00    +0.030 A 
ATOM     29  C   LIG    1       -1.132   1.980   6.012  0.00  0.00    -0.010 A 
ATOM     30  C   LIG    1       -1.565   1.434   4.818  0.00  0.00    -0.070 A 
ATOM     31  C   LIG    1       -0.996   0.123   4.340  0.00  0.00    +0.090 C 
ATOM     32  C   LIG    1       -2.518   2.088   4.063  0.00  0.00    +0.010 A 
ENDBRANCH  23  26
ENDBRANCH  21  22
ENDBRANCH  20  21
ENDBRANCH  12  20
TORSDOF 5
