REMARK  Name = ZINCpk000000mWMk.0
REMARK                            x       y       z     vdW  Elec       q    Type
REMARK                         _______ _______ _______ _____ _____    ______ ____
ROOT
ATOM      1  C   LIG    1        1.779   9.217   0.927  0.00  0.00    +0.220 C 
ATOM      2  C   LIG    1        3.003   9.838   0.250  0.00  0.00    +0.010 C 
ATOM      3  C   LIG    1        4.149   8.825   0.236  0.00  0.00    +0.020 C 
ATOM      4  C   LIG    1        3.727   7.594  -0.564  0.00  0.00    +0.260 C 
ATOM      5  N   LIG    1        2.469   7.073  -0.013  0.00  0.00    -0.610 N 
ATOM      6  C   LIG    1        2.364   5.782   0.360  0.00  0.00    +0.530 C 
ATOM      7  O   LIG    1        1.321   5.366   0.819  0.00  0.00    -0.500 OA
ATOM      8  C   LIG    1        1.328   7.989   0.130  0.00  0.00    +0.290 C 
ENDROOT
BRANCH   6   9
ATOM      9  C   LIG    1        3.542   4.856   0.207  0.00  0.00    +0.230 C 
ATOM     10  C   LIG    1        4.074   4.464   1.590  0.00  0.00    +0.040 C 
ATOM     11  C   LIG    1        5.180   3.419   1.429  0.00  0.00    +0.020 C 
ATOM     12  C   LIG    1        4.608   2.167   0.759  0.00  0.00    +0.010 C 
ATOM     13  C   LIG    1        4.080   2.531  -0.627  0.00  0.00    +0.280 C 
ATOM     14  N   LIG    1        3.124   3.639  -0.500  0.00  0.00    -0.600 N 
ATOM     15  C   LIG    1        1.883   3.538  -1.019  0.00  0.00    +0.600 C 
ATOM     16  O   LIG    1        1.144   4.504  -1.020  0.00  0.00    -0.480 OA
BRANCH  15  17
ATOM     17  C   LIG    1        1.425   2.263  -1.581  0.00  0.00    -0.080 A 
ATOM     18  C   LIG    1        0.253   2.057  -2.251  0.00  0.00    +0.040 A 
ATOM     19  C   LIG    1        0.226   0.700  -2.607  0.00  0.00    -0.060 A 
ATOM     20  C   LIG    1        1.367   0.144  -2.146  0.00  0.00    +0.200 A 
ATOM     21  O   LIG    1        2.088   1.089  -1.528  0.00  0.00    -0.160 OA
ENDBRANCH  15  17
ENDBRANCH   6   9
BRANCH   1  24
ATOM     22  C   LIG    1       -0.488  12.102   2.018  0.00  0.00    +0.110 C 
ATOM     23  C   LIG    1        0.629  11.093   1.975  0.00  0.00    +0.510 C 
ATOM     24  N   LIG    1        0.692  10.199   0.969  0.00  0.00    -0.730 N 
ATOM     25  H   LIG    1        0.017  10.205   0.272  0.00  0.00    +0.400 HD
ATOM     26  O   LIG    1        1.473  11.085   2.847  0.00  0.00    -0.540 OA
ENDBRANCH   1  24
TORSDOF 3
