REMARK  Name = ZINCqH0000037XTp.0
REMARK                            x       y       z     vdW  Elec       q    Type
REMARK                         _______ _______ _______ _____ _____    ______ ____
ROOT
ATOM      1  C   LIG    1       -5.977   3.920   0.053  0.00  0.00    +0.340 C 
ENDROOT
BRANCH   1   7
ATOM      2  C   LIG    1       -7.482   5.728  -1.051  0.00  0.00    +0.140 A 
ATOM      3  N   LIG    1       -8.409   6.567  -0.638  0.00  0.00    -0.280 NA
ATOM      4  N   LIG    1       -8.575   6.388   0.741  0.00  0.00    -0.470 N 
ATOM      5  H   LIG    1       -9.193   6.874   1.308  0.00  0.00    +0.440 HD
ATOM      6  C   LIG    1       -7.727   5.416   1.144  0.00  0.00    +0.270 A 
ATOM      7  C   LIG    1       -7.035   4.993   0.064  0.00  0.00    -0.250 A 
BRANCH   2  12
ATOM      8  C   LIG    1       -5.587   5.170  -6.461  0.00  0.00    +0.090 C 
ATOM      9  C   LIG    1       -6.083   5.316  -5.045  0.00  0.00    -0.070 A 
ATOM     10  C   LIG    1       -7.413   5.611  -4.808  0.00  0.00    +0.000 A 
ATOM     11  C   LIG    1       -7.873   5.746  -3.514  0.00  0.00    +0.030 A 
ATOM     12  C   LIG    1       -6.994   5.584  -2.445  0.00  0.00    -0.030 A 
ATOM     13  C   LIG    1       -5.654   5.292  -2.690  0.00  0.00    +0.040 A 
ATOM     14  C   LIG    1       -5.206   5.153  -3.988  0.00  0.00    +0.010 A 
ENDBRANCH   2  12
ENDBRANCH   1   7
BRANCH   1  15
ATOM     15  N   LIG    1       -4.651   4.542   0.050  0.00  0.00    -0.740 N 
ATOM     16  H   LIG    1       -4.568   5.508   0.054  0.00  0.00    +0.400 HD
BRANCH  15  17
ATOM     17  C   LIG    1       -3.506   3.744   0.040  0.00  0.00    +0.230 A 
ATOM     18  C   LIG    1       -2.248   4.335   0.037  0.00  0.00    -0.080 A 
ATOM     19  C   LIG    1       -1.115   3.548   0.027  0.00  0.00    +0.110 A 
ATOM     20  C   LIG    1       -1.233   2.159   0.020  0.00  0.00    -0.080 A 
ATOM     21  C   LIG    1       -2.495   1.569   0.017  0.00  0.00    +0.100 A 
ATOM     22  C   LIG    1       -3.625   2.358   0.033  0.00  0.00    -0.070 A 
BRANCH  20  23
ATOM     23  C   LIG    1       -0.016   1.311   0.009  0.00  0.00    +0.280 A 
ATOM     24  N   LIG    1        0.002  -0.004   0.002  0.00  0.00    -0.320 NA
ATOM     25  N   LIG    1        1.352  -0.390  -0.013  0.00  0.00    -0.390 N 
ATOM     26  C   LIG    1        2.074   0.745  -0.014  0.00  0.00    +0.480 A 
ATOM     27  C   LIG    1        1.873  -1.759  -0.025  0.00  0.00    +0.360 C 
ATOM     28  N   LIG    1        1.248   1.758  -0.000  0.00  0.00    -0.540 NA
ENDBRANCH  20  23
ENDBRANCH  15  17
ENDBRANCH   1  15
TORSDOF 5
