REMARK  Name = ZINCvU0000000Il5.0
REMARK                            x       y       z     vdW  Elec       q    Type
REMARK                         _______ _______ _______ _____ _____    ______ ____
ROOT
ATOM      1  C   LIG    1        0.001   1.243   0.345  0.00  0.00    +0.580 C 
ATOM      2  N   LIG    1        1.169   1.915   0.364  0.00  0.00    -0.580 N 
ATOM      3  H   LIG    1        1.177   2.869   0.533  0.00  0.00    +0.380 HD
ATOM      4  O   LIG    1       -0.009   0.045   0.132  0.00  0.00    -0.500 OA
ENDROOT
BRANCH   1   8
ATOM      5  C   LIG    1       -3.648   3.311   1.012  0.00  0.00    +0.150 A 
ATOM      6  C   LIG    1       -3.662   1.942   0.769  0.00  0.00    +0.020 A 
ATOM      7  C   LIG    1       -2.480   1.268   0.552  0.00  0.00    +0.110 A 
ATOM      8  C   LIG    1       -1.267   1.962   0.577  0.00  0.00    -0.130 A 
ATOM      9  C   LIG    1       -1.258   3.336   0.827  0.00  0.00    +0.060 A 
ATOM     10  C   LIG    1       -2.443   4.005   1.038  0.00  0.00    +0.020 A 
BRANCH   5  17
ATOM     11  C   LIG    1       -5.847   3.643  -1.100  0.00  0.00    +0.120 C 
ATOM     12  C   LIG    1       -5.850   4.160   0.316  0.00  0.00    +0.020 A 
ATOM     13  C   LIG    1       -6.840   4.864   0.899  0.00  0.00    -0.050 A 
ATOM     14  C   LIG    1       -6.437   5.149   2.219  0.00  0.00    -0.050 A 
ATOM     15  C   LIG    1       -5.216   4.605   2.397  0.00  0.00    +0.020 A 
ATOM     16  C   LIG    1       -4.398   4.662   3.661  0.00  0.00    +0.120 C 
ATOM     17  N   LIG    1       -4.850   3.992   1.232  0.00  0.00    -0.410 N 
ENDBRANCH   5  17
ENDBRANCH   1   8
BRANCH   2  18
ATOM     18  N   LIG    1        2.372   1.233   0.138  0.00  0.00    -0.250 NA
ATOM     19  C   LIG    1        3.501   1.882   0.156  0.00  0.00    +0.220 C 
BRANCH  19  20
ATOM     20  C   LIG    1        4.757   1.172  -0.079  0.00  0.00    -0.060 C 
ATOM     21  C   LIG    1        5.910   1.856  -0.166  0.00  0.00    +0.190 C 
ATOM     22  N   LIG    1        6.057   3.225  -0.153  0.00  0.00    -0.540 N 
ATOM     23  C   LIG    1        7.395   3.600  -0.261  0.00  0.00    +0.160 A 
ATOM     24  C   LIG    1        7.982   4.864  -0.287  0.00  0.00    -0.030 A 
ATOM     25  C   LIG    1        9.351   4.990  -0.401  0.00  0.00    +0.050 A 
ATOM     26  C   LIG    1       10.151   3.866  -0.490  0.00  0.00    -0.020 A 
ATOM     27  C   LIG    1        9.575   2.607  -0.464  0.00  0.00    +0.070 A 
ATOM     28  C   LIG    1        8.209   2.478  -0.350  0.00  0.00    -0.140 A 
ATOM     29  C   LIG    1        4.944   4.170  -0.042  0.00  0.00    +0.310 C 
ATOM     30  C   LIG    1        7.301   1.271  -0.289  0.00  0.00    +0.010 C 
ATOM     31  C   LIG    1        7.423   0.447  -1.573  0.00  0.00    +0.070 C 
ATOM     32  C   LIG    1        7.630   0.412   0.933  0.00  0.00    +0.070 C 
ENDBRANCH  19  20
ENDBRANCH   2  18
TORSDOF 4
