REMARK  Name = ZINCpe000000XC2m.0
REMARK                            x       y       z     vdW  Elec       q    Type
REMARK                         _______ _______ _______ _____ _____    ______ ____
ROOT
ATOM      1  N   LIG    1       -4.656   0.143   1.312  0.00  0.00    -0.520 NA
ATOM      2  C   LIG    1       -4.561   1.609   1.344  0.00  0.00    +0.170 C 
ATOM      3  C   LIG    1       -3.753   2.092   0.135  0.00  0.00    +0.310 C 
ATOM      4  N   LIG    1       -2.463   1.385   0.123  0.00  0.00    -0.590 N 
ATOM      5  C   LIG    1       -2.473  -0.083   0.221  0.00  0.00    +0.310 C 
ATOM      6  C   LIG    1       -1.304   2.064   0.019  0.00  0.00    +0.570 C 
ATOM      7  O   LIG    1       -0.252   1.461  -0.063  0.00  0.00    -0.500 OA
ATOM      8  C   LIG    1       -3.331  -0.479   1.433  0.00  0.00    +0.190 C 
ENDROOT
BRANCH   6   9
ATOM      9  C   LIG    1       -1.311   3.547   0.006  0.00  0.00    +0.150 A 
ATOM     10  N   LIG    1       -2.265   4.214  -0.641  0.00  0.00    -0.480 NA
ATOM     11  C   LIG    1       -2.278   5.529  -0.651  0.00  0.00    +0.510 A 
ATOM     12  N   LIG    1       -1.359   6.241  -0.029  0.00  0.00    -0.490 NA
ATOM     13  C   LIG    1       -0.378   5.657   0.637  0.00  0.00    +0.360 A 
ATOM     14  C   LIG    1       -0.321   4.269   0.677  0.00  0.00    -0.110 A 
ATOM     15 CL   LIG    1        0.948   3.453   1.537  0.00  0.00    -0.000 Cl
ENDBRANCH   6   9
BRANCH   1  16
ATOM     16  C   LIG    1       -5.566  -0.348   2.356  0.00  0.00    +0.230 C 
BRANCH  16  19
ATOM     17  N   LIG    1       -6.643  -2.485   2.984  0.00  0.00    -0.630 N 
ATOM     18  H   LIG    1       -7.057  -2.021   3.728  0.00  0.00    +0.420 HD
ATOM     19  C   LIG    1       -5.830  -1.816   2.141  0.00  0.00    +0.520 C 
ATOM     20  O   LIG    1       -5.312  -2.396   1.210  0.00  0.00    -0.490 OA
BRANCH  17  24
ATOM     21  C   LIG    1       -6.669  -7.140   1.199  0.00  0.00    +0.180 C 
ATOM     22  C   LIG    1       -6.894  -5.881   1.996  0.00  0.00    -0.020 A 
ATOM     23  C   LIG    1       -6.367  -4.661   1.746  0.00  0.00    -0.040 A 
ATOM     24  C   LIG    1       -6.887  -3.844   2.785  0.00  0.00    +0.250 A 
ATOM     25  N   LIG    1       -7.647  -4.619   3.513  0.00  0.00    -0.390 NA
ATOM     26  O   LIG    1       -7.660  -5.751   3.088  0.00  0.00    +0.100 OA
ENDBRANCH  17  24
ENDBRANCH  16  19
ENDBRANCH   1  16
TORSDOF 4
