REMARK  Name = ZINCpe00000FUpgJ.0
REMARK                            x       y       z     vdW  Elec       q    Type
REMARK                         _______ _______ _______ _____ _____    ______ ____
ROOT
ATOM      1  O   LIG    1       -1.736   2.268  -1.088  0.00  0.00    -0.520 OA
ATOM      2  C   LIG    1       -0.742   1.585  -1.213  0.00  0.00    +0.500 C 
ATOM      3  N   LIG    1       -0.288   1.272  -2.443  0.00  0.00    -0.620 N 
ATOM      4  C   LIG    1        0.919   0.450  -2.616  0.00  0.00    +0.290 C 
ATOM      5  C   LIG    1        0.584  -0.702  -3.577  0.00  0.00    +0.190 C 
ATOM      6  N   LIG    1        0.025  -0.150  -4.819  0.00  0.00    -0.490 N 
ATOM      7  C   LIG    1       -1.242   0.551  -4.568  0.00  0.00    +0.190 C 
ATOM      8  C   LIG    1       -0.985   1.749  -3.648  0.00  0.00    +0.300 C 
ENDROOT
BRANCH   6   9
ATOM      9  C   LIG    1       -0.138  -1.150  -5.782  0.00  0.00    +0.100 A 
ATOM     10  C   LIG    1       -1.385  -1.367  -6.356  0.00  0.00    +0.000 A 
ATOM     11  C   LIG    1       -1.542  -2.352  -7.311  0.00  0.00    +0.020 A 
ATOM     12  C   LIG    1       -0.462  -3.130  -7.689  0.00  0.00    +0.070 A 
ATOM     13  C   LIG    1        0.781  -2.919  -7.115  0.00  0.00    +0.010 A 
ATOM     14  F   LIG    1       -0.619  -4.096  -8.620  0.00  0.00    -0.140 F 
ATOM     15  C   LIG    1        0.944  -1.932  -6.163  0.00  0.00    +0.030 A 
ENDBRANCH   6   9
BRANCH   2  16
ATOM     16  C   LIG    1       -0.013   1.086   0.008  0.00  0.00    +0.310 C 
BRANCH  16  17
ATOM     17  N   LIG    1       -0.698   1.558   1.213  0.00  0.00    -0.580 N 
ATOM     18  C   LIG    1       -1.764   0.741   1.816  0.00  0.00    +0.290 C 
ATOM     19  C   LIG    1       -3.110   1.420   1.554  0.00  0.00    +0.010 C 
ATOM     20  C   LIG    1       -3.415   2.448   2.628  0.00  0.00    +0.020 C 
ATOM     21  C   LIG    1       -2.481   3.644   2.615  0.00  0.00    +0.050 C 
ATOM     22  C   LIG    1       -1.060   3.227   3.000  0.00  0.00    +0.190 C 
ATOM     23  C   LIG    1       -0.349   2.723   1.760  0.00  0.00    +0.490 C 
ATOM     24  O   LIG    1        0.537   3.384   1.261  0.00  0.00    -0.540 OA
BRANCH  22  25
ATOM     25  O   LIG    1       -1.113   2.183   3.975  0.00  0.00    -0.540 OA
ATOM     26  H   LIG    1       -0.245   1.870   4.264  0.00  0.00    +0.380 HD
ENDBRANCH  22  25
ENDBRANCH  16  17
ENDBRANCH   2  16
TORSDOF 4
