REMARK  Name = ZINCpe000000YyTL.0
REMARK                            x       y       z     vdW  Elec       q    Type
REMARK                         _______ _______ _______ _____ _____    ______ ____
ROOT
ATOM      1  N   LIG    1       -0.853   1.667   3.540  0.00  0.00    -0.740 N 
ATOM      2  H   LIG    1       -1.650   2.214   3.462  0.00  0.00    +0.400 HD
ATOM      3  C   LIG    1       -0.222   1.232   2.431  0.00  0.00    +0.700 C 
ATOM      4  N   LIG    1       -0.698   1.558   1.213  0.00  0.00    -0.750 N 
ATOM      5  H   LIG    1       -1.495   2.106   1.135  0.00  0.00    +0.400 HD
ATOM      6  O   LIG    1        0.777   0.546   2.530  0.00  0.00    -0.580 OA
ENDROOT
BRANCH   1  11
ATOM      7  C   LIG    1        1.198   3.048   8.614  0.00  0.00    -0.020 C 
ATOM      8  C   LIG    1        1.407   2.471   7.203  0.00  0.00    +0.080 C 
ATOM      9  C   LIG    1       -0.085   2.124   7.213  0.00  0.00    -0.050 C 
ATOM     10  C   LIG    1       -0.785   2.363   5.878  0.00  0.00    +0.050 C 
ATOM     11  C   LIG    1       -0.335   1.313   4.864  0.00  0.00    +0.250 C 
ATOM     12  C   LIG    1       -0.850  -0.070   5.251  0.00  0.00    +0.030 C 
ATOM     13  C   LIG    1       -0.083  -0.598   6.467  0.00  0.00    +0.120 C 
ATOM     14  S   LIG    1       -0.440   0.478   7.890  0.00  0.00    -0.220 S 
ATOM     15  C   LIG    1       -0.278   3.256   8.227  0.00  0.00    +0.100 C 
BRANCH   7  19
ATOM     16  N   LIG    1        1.853   4.952  10.051  0.00  0.00    -0.850 N 
ATOM     17  H   LIG    1        2.333   5.779  10.207  0.00  0.00    +0.400 HD
ATOM     18  H   LIG    1        1.305   4.568  10.754  0.00  0.00    +0.400 HD
ATOM     19  C   LIG    1        1.945   4.334   8.857  0.00  0.00    +0.530 C 
ATOM     20  O   LIG    1        2.629   4.813   7.977  0.00  0.00    -0.540 OA
ENDBRANCH   7  19
ENDBRANCH   1  11
BRANCH   4  21
ATOM     21  C   LIG    1       -0.013   1.086   0.008  0.00  0.00    +0.310 C 
BRANCH  21  22
ATOM     22  C   LIG    1       -0.753   1.593  -1.232  0.00  0.00    +0.050 C 
BRANCH  22  23
ATOM     23  C   LIG    1       -0.047   1.107  -2.471  0.00  0.00    +0.530 C 
ATOM     24  N   LIG    1       -0.524   1.433  -3.689  0.00  0.00    -0.620 N 
ATOM     25  C   LIG    1       -1.720   2.246  -3.952  0.00  0.00    +0.240 C 
ATOM     26  C   LIG    1       -1.888   2.333  -5.483  0.00  0.00    +0.030 C 
ATOM     27  C   LIG    1       -1.110   1.089  -5.987  0.00  0.00    +0.030 C 
ATOM     28  C   LIG    1        0.064   1.027  -4.979  0.00  0.00    +0.250 C 
ATOM     29  O   LIG    1        0.949   0.422  -2.373  0.00  0.00    -0.530 OA
ENDBRANCH  22  23
ENDBRANCH  21  22
ENDBRANCH   4  21
TORSDOF 5
