REMARK  Name = ZINCqH0000004APO.0
REMARK                            x       y       z     vdW  Elec       q    Type
REMARK                         _______ _______ _______ _____ _____    ______ ____
ROOT
ATOM      1  C   LIG    1       -0.468   5.307   0.908  0.00  0.00    -0.100 A 
ATOM      2  C   LIG    1       -0.293   3.982   0.629  0.00  0.00    +0.110 A 
ATOM      3  C   LIG    1       -0.845   3.015   1.477  0.00  0.00    -0.140 A 
ATOM      4  C   LIG    1       -1.586   3.408   2.606  0.00  0.00    +0.160 A 
ATOM      5  O   LIG    1       -2.122   2.471   3.419  0.00  0.00    -0.270 OA
ATOM      6  C   LIG    1       -1.968   1.161   3.173  0.00  0.00    +0.510 A 
ATOM      7  C   LIG    1       -1.242   0.696   2.057  0.00  0.00    -0.080 A 
ATOM      8  O   LIG    1       -2.470   0.352   3.934  0.00  0.00    -0.460 OA
ATOM      9  C   LIG    1       -1.754   4.758   2.874  0.00  0.00    +0.020 A 
ATOM     10  C   LIG    1       -0.678   1.586   1.200  0.00  0.00    +0.030 A 
ATOM     11  C   LIG    1        0.104   1.117   0.001  0.00  0.00    +0.130 C 
ATOM     12  C   LIG    1       -1.197   5.702   2.028  0.00  0.00    +0.140 A 
ENDROOT
BRANCH   1  14
ATOM     13  C   LIG    1        1.490   6.785   0.549  0.00  0.00    +0.030 C 
ATOM     14  C   LIG    1        0.131   6.348  -0.002  0.00  0.00    +0.070 C 
ENDBRANCH   1  14
BRANCH  12  15
ATOM     15  O   LIG    1       -1.363   7.024   2.291  0.00  0.00    -0.280 OA
BRANCH  15  16
ATOM     16  C   LIG    1       -2.363   7.656   1.645  0.00  0.00    +0.510 C 
ATOM     17  O   LIG    1       -3.132   7.023   0.950  0.00  0.00    -0.470 OA
BRANCH  16  18
ATOM     18  C   LIG    1       -2.524   9.117   1.784  0.00  0.00    -0.120 A 
ATOM     19  C   LIG    1       -1.645   9.847   2.587  0.00  0.00    +0.150 A 
ATOM     20  C   LIG    1       -1.799  11.213   2.708  0.00  0.00    +0.040 A 
ATOM     21  C   LIG    1       -2.827  11.858   2.044  0.00  0.00    +0.140 A 
ATOM     22  C   LIG    1       -3.705  11.140   1.250  0.00  0.00    -0.050 A 
ATOM     23  C   LIG    1       -3.560   9.775   1.116  0.00  0.00    +0.180 A 
BRANCH  22  24
ATOM     24  N   LIG    1       -4.802  11.839   0.544  0.00  0.00    +0.020 N 
ATOM     25  O   LIG    1       -4.931  13.044   0.661  0.00  0.00    -0.150 OA
ATOM     26  O   LIG    1       -5.575  11.209  -0.155  0.00  0.00    -0.150 OA
ENDBRANCH  22  24
ENDBRANCH  16  18
ENDBRANCH  15  16
ENDBRANCH  12  15
TORSDOF 5
