REMARK  Name = ZINCvU00000004kW.0
REMARK                            x       y       z     vdW  Elec       q    Type
REMARK                         _______ _______ _______ _____ _____    ______ ____
ROOT
ATOM      1  N   LIG    1       -4.280   4.092  -0.837  0.00  0.00    -0.490 NA
ATOM      2  C   LIG    1       -4.966   3.206  -0.142  0.00  0.00    +0.390 A 
ATOM      3  S   LIG    1       -6.658   2.730  -0.376  0.00  0.00    +0.010 S 
ATOM      4  C   LIG    1       -6.667   1.564   0.959  0.00  0.00    -0.020 A 
ATOM      5  C   LIG    1       -5.431   1.600   1.481  0.00  0.00    +0.180 A 
ATOM      6  N   LIG    1       -4.525   2.456   0.911  0.00  0.00    -0.500 N 
ENDROOT
BRANCH   5   7
ATOM      7  C   LIG    1       -5.061   0.750   2.625  0.00  0.00    +0.070 A 
ATOM      8  C   LIG    1       -5.892  -0.123   3.250  0.00  0.00    +0.020 A 
ATOM      9  C   LIG    1       -5.103  -0.741   4.317  0.00  0.00    -0.130 A 
ATOM     10  C   LIG    1       -5.371  -1.700   5.295  0.00  0.00    +0.070 A 
ATOM     11  C   LIG    1       -4.378  -2.072   6.174  0.00  0.00    +0.000 A 
ATOM     12  C   LIG    1       -3.118  -1.498   6.089  0.00  0.00    +0.050 A 
ATOM     13  C   LIG    1       -2.839  -0.550   5.127  0.00  0.00    +0.020 A 
ATOM     14  C   LIG    1       -3.825  -0.159   4.231  0.00  0.00    +0.060 A 
ATOM     15  O   LIG    1       -3.845   0.719   3.206  0.00  0.00    -0.190 OA
ENDBRANCH   5   7
BRANCH   1  19
ATOM     16  C   LIG    1       -6.087   6.120  -3.962  0.00  0.00    +0.090 A 
ATOM     17  C   LIG    1       -5.305   6.813  -3.048  0.00  0.00    +0.030 A 
ATOM     18  C   LIG    1       -4.701   6.142  -2.006  0.00  0.00    +0.060 A 
ATOM     19  C   LIG    1       -4.878   4.763  -1.870  0.00  0.00    +0.100 A 
ATOM     20  C   LIG    1       -5.661   4.069  -2.795  0.00  0.00    +0.010 A 
ATOM     21  C   LIG    1       -6.266   4.750  -3.832  0.00  0.00    -0.030 A 
BRANCH  16  22
ATOM     22  O   LIG    1       -6.680   6.787  -4.989  0.00  0.00    -0.320 OA
BRANCH  22  24
ATOM     23  F   LIG    1       -6.672   5.034  -6.492  0.00  0.00    -0.200 F 
ATOM     24  C   LIG    1       -7.472   6.013  -5.893  0.00  0.00    +0.590 C 
ATOM     25  F   LIG    1       -8.514   5.399  -5.191  0.00  0.00    -0.200 F 
ENDBRANCH  22  24
ENDBRANCH  16  22
ENDBRANCH   1  19
BRANCH   6  26
ATOM     26  C   LIG    1       -3.152   2.566   1.410  0.00  0.00    +0.330 C 
BRANCH  26  27
ATOM     27  C   LIG    1       -2.261   1.562   0.675  0.00  0.00    +0.140 C 
ATOM     28  C   LIG    1       -0.809   1.621   1.229  0.00  0.00    +0.030 C 
ATOM     29  C   LIG    1       -0.013   1.086   0.008  0.00  0.00    +0.010 C 
ATOM     30  C   LIG    1       -0.827   1.631  -1.185  0.00  0.00    +0.190 C 
ATOM     31  O   LIG    1       -2.149   1.916  -0.712  0.00  0.00    -0.360 OA
ENDBRANCH  26  27
ENDBRANCH   6  26
TORSDOF 6
