REMARK  Name = ZINCrg000000r48T.0
REMARK                            x       y       z     vdW  Elec       q    Type
REMARK                         _______ _______ _______ _____ _____    ______ ____
ROOT
ATOM      1  C   LIG    1        0.002  -0.004   0.002  0.00  0.00    +0.560 C 
ATOM      2  N   LIG    1       -0.016   1.344   0.009  0.00  0.00    -0.640 N 
ATOM      3  H   LIG    1       -0.863   1.817   0.016  0.00  0.00    +0.410 HD
ATOM      4  O   LIG    1        1.063  -0.598  -0.011  0.00  0.00    -0.520 OA
ENDROOT
BRANCH   1   8
ATOM      5  C   LIG    1       -3.647  -2.178   0.025  0.00  0.00    -0.070 A 
ATOM      6  C   LIG    1       -2.441  -2.856   0.010  0.00  0.00    +0.030 A 
ATOM      7  C   LIG    1       -1.252  -2.156   0.002  0.00  0.00    +0.100 A 
ATOM      8  C   LIG    1       -1.268  -0.761   0.010  0.00  0.00    -0.120 A 
ATOM      9  C   LIG    1       -2.488  -0.082   0.031  0.00  0.00    +0.050 A 
ATOM     10  C   LIG    1       -3.669  -0.794   0.032  0.00  0.00    +0.030 A 
BRANCH   5  11
ATOM     11  C   LIG    1       -4.942  -2.949   0.033  0.00  0.00    -0.270 C 
BRANCH  11  13
ATOM     12  C   LIG    1       -6.992  -4.186   1.518  0.00  0.00    -0.270 C 
ATOM     13  S   LIG    1       -5.445  -3.268   1.747  0.00  0.00    +2.420 S 
ATOM     14  O   LIG    1       -5.744  -2.026   2.369  0.00  0.00    -0.930 OA
ATOM     15  O   LIG    1       -4.489  -4.132   2.346  0.00  0.00    -0.930 OA
ENDBRANCH  11  13
ENDBRANCH   5  11
ENDBRANCH   1   8
BRANCH   2  16
ATOM     16  C   LIG    1        1.193   2.064   0.002  0.00  0.00    -0.000 A 
ATOM     17  C   LIG    1        1.318   3.416   0.002  0.00  0.00    +0.200 A 
ATOM     18  N   LIG    1        2.645   3.704  -0.004  0.00  0.00    -0.370 N 
ATOM     19  N   LIG    1        3.349   2.493  -0.018  0.00  0.00    -0.280 NA
ATOM     20  C   LIG    1        2.482   1.512  -0.014  0.00  0.00    +0.270 A 
BRANCH  18  21
ATOM     21  C   LIG    1        3.236   5.044  -0.003  0.00  0.00    +0.340 C 
BRANCH  21  22
ATOM     22  C   LIG    1        4.211   5.171   1.170  0.00  0.00    +0.170 C 
BRANCH  22  23
ATOM     23  N   LIG    1        4.803   6.515   1.171  0.00  0.00    -0.540 NA
ATOM     24  C   LIG    1        5.658   6.715  -0.009  0.00  0.00    +0.150 C 
ATOM     25  C   LIG    1        6.206   8.145   0.001  0.00  0.00    +0.220 C 
ATOM     26  O   LIG    1        6.910   8.371   1.225  0.00  0.00    -0.380 OA
ATOM     27  C   LIG    1        6.107   8.186   2.394  0.00  0.00    +0.220 C 
ATOM     28  C   LIG    1        5.559   6.757   2.409  0.00  0.00    +0.160 C 
ENDBRANCH  22  23
ENDBRANCH  21  22
ENDBRANCH  18  21
ENDBRANCH   2  16
TORSDOF 7
