REMARK  Name = ZINCpe00000MJIkJ.0
REMARK                            x       y       z     vdW  Elec       q    Type
REMARK                         _______ _______ _______ _____ _____    ______ ____
ROOT
ATOM      1  N   LIG    1       -4.438  -7.332   0.007  0.00  0.00    -0.510 N 
ATOM      2  H   LIG    1       -5.358  -7.024   0.018  0.00  0.00    +0.430 HD
ATOM      3  C   LIG    1       -3.428  -6.440   0.002  0.00  0.00    +0.520 C 
ATOM      4  O   LIG    1       -2.278  -6.825  -0.012  0.00  0.00    -0.530 OA
ENDROOT
BRANCH   1   5
ATOM      5  N   LIG    1       -4.159  -8.706  -0.003  0.00  0.00    -0.510 N 
ATOM      6  H   LIG    1       -3.240  -9.014  -0.014  0.00  0.00    +0.440 HD
BRANCH   5  11
ATOM      7  C   LIG    1       -8.702 -10.784   0.419  0.00  0.00    +0.180 C 
ATOM      8  C   LIG    1       -7.227 -10.582   0.184  0.00  0.00    +0.160 A 
ATOM      9  N   LIG    1       -6.376 -11.505  -0.167  0.00  0.00    -0.280 NA
ATOM     10  N   LIG    1       -5.104 -10.934  -0.292  0.00  0.00    -0.380 N 
ATOM     11  C   LIG    1       -5.195  -9.621   0.002  0.00  0.00    +0.420 A 
ATOM     12  C   LIG    1       -3.881 -11.644  -0.676  0.00  0.00    +0.360 C 
ATOM     13  C   LIG    1       -6.528  -9.359   0.306  0.00  0.00    -0.260 A 
BRANCH  13  14
ATOM     14  C   LIG    1       -7.085  -8.092   0.672  0.00  0.00    +0.290 C 
ATOM     15  N   LIG    1       -7.528  -7.087   0.963  0.00  0.00    -0.430 NA
ENDBRANCH  13  14
ENDBRANCH   5  11
ENDBRANCH   1   5
BRANCH   3  16
ATOM     16  C   LIG    1       -3.728  -4.963   0.013  0.00  0.00    +0.330 C 
BRANCH  16  17
ATOM     17  N   LIG    1       -2.472  -4.210   0.004  0.00  0.00    -0.720 N 
ATOM     18  H   LIG    1       -1.624  -4.681  -0.007  0.00  0.00    +0.410 HD
ATOM     19  C   LIG    1       -2.494  -2.862   0.011  0.00  0.00    +0.550 C 
ATOM     20  O   LIG    1       -3.558  -2.271   0.025  0.00  0.00    -0.540 OA
BRANCH  19  21
ATOM     21  C   LIG    1       -1.238  -2.109   0.003  0.00  0.00    -0.090 C 
ATOM     22  C   LIG    1       -1.260  -0.761   0.011  0.00  0.00    +0.130 C 
BRANCH  22  23
ATOM     23  C   LIG    1        0.002  -0.004   0.002  0.00  0.00    -0.080 A 
ATOM     24  C   LIG    1       -0.017   1.394   0.010  0.00  0.00    +0.040 A 
ATOM     25  C   LIG    1        1.170   2.096   0.002  0.00  0.00    +0.010 A 
ATOM     26  C   LIG    1        2.378   1.421  -0.013  0.00  0.00    +0.020 A 
ATOM     27  C   LIG    1        2.405   0.037  -0.021  0.00  0.00    +0.010 A 
ATOM     28  C   LIG    1        1.226  -0.679  -0.013  0.00  0.00    +0.030 A 
ENDBRANCH  22  23
ENDBRANCH  19  21
ENDBRANCH  16  17
ENDBRANCH   3  16
TORSDOF 7
