REMARK  Name = ZINCpe00000VVGMM.0
REMARK                            x       y       z     vdW  Elec       q    Type
REMARK                         _______ _______ _______ _____ _____    ______ ____
ROOT
ATOM      1  C   LIG    1       -2.447  -0.211   1.024  0.00  0.00    +0.580 C 
ATOM      2  N   LIG    1       -2.115  -0.046   2.320  0.00  0.00    -0.610 N 
ATOM      3  C   LIG    1       -1.846   1.242   2.978  0.00  0.00    +0.270 C 
ATOM      4  C   LIG    1       -1.486   0.940   4.451  0.00  0.00    +0.080 C 
ATOM      5  C   LIG    1       -1.056  -0.535   4.400  0.00  0.00    +0.100 C 
ATOM      6  N   LIG    1       -1.224  -1.202   5.685  0.00  0.00    -0.710 N 
ATOM      7  H   LIG    1       -2.044  -1.294   6.194  0.00  0.00    +0.450 HD
ATOM      8  C   LIG    1       -0.002  -1.667   6.024  0.00  0.00    +0.710 C 
ATOM      9  N   LIG    1        0.928  -1.374   5.103  0.00  0.00    -0.680 N 
ATOM     10  H   LIG    1        1.862  -1.625   5.172  0.00  0.00    +0.440 HD
ATOM     11  O   LIG    1        0.230  -2.280   7.047  0.00  0.00    -0.530 OA
ATOM     12  C   LIG    1        0.400  -0.685   4.066  0.00  0.00    +0.540 C 
ATOM     13  O   LIG    1        0.977  -0.277   3.081  0.00  0.00    -0.440 OA
ATOM     14  C   LIG    1       -1.967  -1.129   3.314  0.00  0.00    +0.300 C 
ATOM     15  O   LIG    1       -2.736  -1.312   0.607  0.00  0.00    -0.530 OA
ENDROOT
BRANCH   1  16
ATOM     16  C   LIG    1       -2.458   0.974   0.092  0.00  0.00    -0.120 C 
ATOM     17  C   LIG    1       -3.478   0.966  -1.048  0.00  0.00    +0.090 C 
ATOM     18  C   LIG    1       -3.672   1.903   0.146  0.00  0.00    +0.060 C 
BRANCH  16  21
ATOM     19  C   LIG    1        1.106   1.448  -1.071  0.00  0.00    +0.130 A 
ATOM     20  C   LIG    1       -0.129   0.870  -0.817  0.00  0.00    -0.050 A 
ATOM     21  C   LIG    1       -1.114   1.600  -0.180  0.00  0.00    -0.010 A 
ATOM     22  C   LIG    1       -0.867   2.902   0.213  0.00  0.00    -0.010 A 
ATOM     23  C   LIG    1        0.363   3.481  -0.040  0.00  0.00    +0.050 A 
ATOM     24  C   LIG    1        1.350   2.757  -0.681  0.00  0.00    -0.110 A 
ATOM     25  C   LIG    1        2.690   3.389  -0.956  0.00  0.00    +0.100 C 
BRANCH  19  27
ATOM     26  C   LIG    1        1.771  -0.623  -2.029  0.00  0.00    +0.250 C 
ATOM     27  O   LIG    1        2.075   0.735  -1.703  0.00  0.00    -0.310 OA
ENDBRANCH  19  27
ENDBRANCH  16  21
ENDBRANCH   1  16
TORSDOF 3
