REMARK  Name = ZINCrD0000075Rss.0
REMARK                            x       y       z     vdW  Elec       q    Type
REMARK                         _______ _______ _______ _____ _____    ______ ____
ROOT
ATOM      1  C   LIG    1        0.065   7.819   0.060  0.00  0.00    +0.240 C 
ENDROOT
BRANCH   1   2
ATOM      2  C   LIG    1       -1.077   8.506  -0.644  0.00  0.00    +0.530 C 
ATOM      3  N   LIG    1       -0.848   9.614  -1.377  0.00  0.00    -0.600 N 
ATOM      4  C   LIG    1        0.522  10.098  -1.593  0.00  0.00    +0.260 C 
ATOM      5  C   LIG    1        0.751  10.258  -3.104  0.00  0.00    +0.010 C 
ATOM      6  C   LIG    1       -0.335  11.165  -3.686  0.00  0.00    +0.020 C 
ATOM      7  C   LIG    1       -1.708  10.522  -3.472  0.00  0.00    +0.010 C 
ATOM      8  C   LIG    1       -1.964  10.363  -1.970  0.00  0.00    +0.280 C 
ATOM      9  O   LIG    1       -2.202   8.063  -0.550  0.00  0.00    -0.510 OA
ENDBRANCH   1   2
BRANCH   1  10
ATOM     10  C   LIG    1        0.489   8.640   1.250  0.00  0.00    -0.120 A 
ATOM     11  C   LIG    1       -0.277   8.638   2.400  0.00  0.00    +0.040 A 
ATOM     12  C   LIG    1        0.115   9.388   3.493  0.00  0.00    +0.010 A 
ATOM     13  C   LIG    1        1.268  10.147   3.433  0.00  0.00    +0.020 A 
ATOM     14  C   LIG    1        2.032  10.154   2.280  0.00  0.00    +0.010 A 
ATOM     15  C   LIG    1        1.642   9.400   1.189  0.00  0.00    +0.030 A 
ENDBRANCH   1  10
BRANCH   1  16
ATOM     16  O   LIG    1       -0.362   6.505   0.506  0.00  0.00    -0.320 OA
BRANCH  16  18
ATOM     17  O   LIG    1        1.729   5.799   0.268  0.00  0.00    -0.500 OA
ATOM     18  C   LIG    1        0.581   5.545   0.574  0.00  0.00    +0.520 C 
BRANCH  18  19
ATOM     19  C   LIG    1        0.220   4.186   1.019  0.00  0.00    -0.120 A 
ATOM     20  C   LIG    1       -1.100   3.892   1.370  0.00  0.00    +0.120 A 
ATOM     21  C   LIG    1       -1.437   2.620   1.780  0.00  0.00    +0.030 A 
ATOM     22  C   LIG    1       -0.466   1.631   1.856  0.00  0.00    +0.080 A 
ATOM     23  O   LIG    1       -0.542   0.321   2.229  0.00  0.00    -0.300 OA
ATOM     24  C   LIG    1        0.814  -0.082   2.497  0.00  0.00    +0.440 C 
ATOM     25  O   LIG    1        1.602   0.786   1.662  0.00  0.00    -0.300 OA
ATOM     26  C   LIG    1        0.855   1.918   1.506  0.00  0.00    +0.020 A 
ATOM     27  C   LIG    1        1.197   3.189   1.090  0.00  0.00    +0.120 A 
ENDBRANCH  18  19
ENDBRANCH  16  18
ENDBRANCH   1  16
TORSDOF 5
