REMARK  Name = ZINCrH00000tj1q1.0
REMARK                            x       y       z     vdW  Elec       q    Type
REMARK                         _______ _______ _______ _____ _____    ______ ____
ROOT
ATOM      1  N   LIG    1       -2.102  -2.997   0.006  0.00  0.00    -0.650 N 
ATOM      2  H   LIG    1       -3.003  -2.638   0.017  0.00  0.00    +0.410 HD
ATOM      3  C   LIG    1       -1.044  -2.161   0.000  0.00  0.00    +0.520 C 
ATOM      4  O   LIG    1        0.082  -2.610  -0.013  0.00  0.00    -0.460 OA
ENDROOT
BRANCH   1   9
ATOM      5  C   LIG    1        0.106  -7.472  -0.038  0.00  0.00    +0.160 C 
ATOM      6  C   LIG    1       -0.944  -6.391  -0.023  0.00  0.00    +0.100 A 
ATOM      7  N   LIG    1       -2.238  -6.582  -0.012  0.00  0.00    -0.280 NA
ATOM      8  N   LIG    1       -2.870  -5.332   0.006  0.00  0.00    -0.340 N 
ATOM      9  C   LIG    1       -1.901  -4.377  -0.003  0.00  0.00    +0.310 A 
ATOM     10  C   LIG    1       -0.699  -5.015  -0.018  0.00  0.00    -0.080 A 
BRANCH   8  11
ATOM     11  C   LIG    1       -4.253  -5.105   0.028  0.00  0.00    +0.160 A 
ATOM     12  C   LIG    1       -4.770  -4.028   0.735  0.00  0.00    -0.030 A 
ATOM     13  C   LIG    1       -6.133  -3.805   0.750  0.00  0.00    +0.050 A 
ATOM     14  C   LIG    1       -6.983  -4.659   0.071  0.00  0.00    +0.010 A 
ATOM     15  C   LIG    1       -6.471  -5.736  -0.630  0.00  0.00    +0.050 A 
ATOM     16  C   LIG    1       -5.109  -5.961  -0.653  0.00  0.00    +0.030 A 
ENDBRANCH   8  11
ENDBRANCH   1   9
BRANCH   3  17
ATOM     17  C   LIG    1       -1.262  -0.670   0.011  0.00  0.00    +0.260 C 
BRANCH  17  18
ATOM     18  O   LIG    1        0.002  -0.004   0.002  0.00  0.00    -0.250 OA
BRANCH  18  19
ATOM     19  C   LIG    1       -0.016   1.355   0.009  0.00  0.00    +0.200 A 
ATOM     20  C   LIG    1       -1.226   2.033   0.019  0.00  0.00    -0.040 A 
ATOM     21  C   LIG    1       -1.243   3.414   0.032  0.00  0.00    +0.140 A 
ATOM     22  C   LIG    1       -0.054   4.122   0.024  0.00  0.00    -0.080 A 
ATOM     23  C   LIG    1        1.154   3.447   0.009  0.00  0.00    +0.160 A 
ATOM     24 CL   LIG    1       -0.077   5.857   0.033  0.00  0.00    -0.030 Cl
ATOM     25  C   LIG    1        1.175   2.066   0.002  0.00  0.00    -0.060 A 
BRANCH  25  26
ATOM     26  N   LIG    1        2.467   1.345  -0.013  0.00  0.00    +0.030 N 
ATOM     27  O   LIG    1        2.485   0.127  -0.019  0.00  0.00    -0.110 OA
ATOM     28  O   LIG    1        3.513   1.969  -0.020  0.00  0.00    -0.170 OA
ENDBRANCH  25  26
ENDBRANCH  18  19
ENDBRANCH  17  18
ENDBRANCH   3  17
TORSDOF 6
