REMARK  Name = ZINCtV00001bB3bf.0
REMARK                            x       y       z     vdW  Elec       q    Type
REMARK                         _______ _______ _______ _____ _____    ______ ____
ROOT
ATOM      1  C   LIG    1       -0.293   5.614  -0.753  0.00  0.00    -0.150 C 
ATOM      2  C   LIG    1       -1.377   6.288  -0.235  0.00  0.00    +0.270 C 
ENDROOT
BRANCH   2   3
ATOM      3  C   LIG    1       -1.497   7.735  -0.422  0.00  0.00    -0.160 A 
ATOM      4  C   LIG    1       -0.350   8.543  -0.418  0.00  0.00    +0.080 A 
ATOM      5  C   LIG    1       -0.468   9.892  -0.598  0.00  0.00    -0.080 A 
ATOM      6  C   LIG    1       -1.723  10.466  -0.774  0.00  0.00    +0.160 A 
ATOM      7  C   LIG    1       -2.864   9.671  -0.774  0.00  0.00    -0.020 A 
ATOM      8  C   LIG    1       -2.759   8.320  -0.601  0.00  0.00    +0.110 A 
BRANCH   6   9
ATOM      9  O   LIG    1       -1.834  11.807  -0.947  0.00  0.00    -0.300 OA
BRANCH   9  10
ATOM     10  C   LIG    1       -0.623  12.565  -0.936  0.00  0.00    +0.260 C 
BRANCH  10  11
ATOM     11  C   LIG    1       -0.941  14.024  -1.141  0.00  0.00    -0.090 A 
ATOM     12  C   LIG    1       -0.981  14.550  -2.419  0.00  0.00    +0.050 A 
ATOM     13  C   LIG    1       -1.278  15.886  -2.608  0.00  0.00    +0.050 A 
ATOM     14  C   LIG    1       -1.525  16.700  -1.517  0.00  0.00    -0.080 A 
ATOM     15  C   LIG    1       -1.480  16.175  -0.238  0.00  0.00    +0.050 A 
ATOM     16 BR   LIG    1       -1.924  18.531  -1.774  0.00  0.00    -0.040 Br
ATOM     17  C   LIG    1       -1.188  14.837  -0.051  0.00  0.00    +0.050 A 
ENDBRANCH  10  11
ENDBRANCH   9  10
ENDBRANCH   6   9
ENDBRANCH   2   3
BRANCH   1  18
ATOM     18  C   LIG    1       -0.217   4.149  -0.644  0.00  0.00    +0.580 C 
ATOM     19  N   LIG    1        0.844   3.489  -1.150  0.00  0.00    -0.670 N 
ATOM     20  H   LIG    1        1.596   3.985  -1.510  0.00  0.00    +0.410 HD
ATOM     21  O   LIG    1       -1.112   3.532  -0.096  0.00  0.00    -0.500 OA
BRANCH  19  22
ATOM     22  C   LIG    1        0.860   2.091  -1.157  0.00  0.00    +0.180 A 
ATOM     23  C   LIG    1       -0.334   1.381  -1.143  0.00  0.00    +0.040 A 
ATOM     24  C   LIG    1       -0.314  -0.000  -1.149  0.00  0.00    +0.060 A 
ATOM     25  C   LIG    1        0.891  -0.677  -1.170  0.00  0.00    +0.000 A 
ATOM     26  C   LIG    1        2.082   0.026  -1.184  0.00  0.00    +0.070 A 
ATOM     27  C   LIG    1        2.070   1.408  -1.177  0.00  0.00    -0.130 A 
ATOM     28 BR   LIG    1        3.699   2.369  -1.196  0.00  0.00    -0.040 Br
ENDBRANCH  19  22
ENDBRANCH   1  18
BRANCH   1  30
ATOM     29  N   LIG    1        1.596   6.915  -1.909  0.00  0.00    -0.400 NA
ATOM     30  C   LIG    1        0.760   6.339  -1.397  0.00  0.00    +0.240 C 
ENDBRANCH   1  30
TORSDOF 7
