REMARK  Name = ZINCrD0000075Pml.0
REMARK                            x       y       z     vdW  Elec       q    Type
REMARK                         _______ _______ _______ _____ _____    ______ ____
ROOT
ATOM      1  O   LIG    1       -6.023   1.831  -0.462  0.00  0.00    -0.350 OA
ENDROOT
BRANCH   1   3
ATOM      2  O   LIG    1       -4.980  -0.065   0.048  0.00  0.00    -0.500 OA
ATOM      3  C   LIG    1       -4.903   1.122  -0.209  0.00  0.00    +0.520 C 
BRANCH   3   4
ATOM      4  C   LIG    1       -3.637   1.759  -0.244  0.00  0.00    -0.230 C 
ATOM      5  C   LIG    1       -2.512   1.048   0.010  0.00  0.00    +0.200 C 
ATOM      6  C   LIG    1       -1.227   1.761   0.017  0.00  0.00    -0.150 A 
ATOM      7  C   LIG    1       -0.013   1.076   0.008  0.00  0.00    +0.110 A 
ATOM      8  C   LIG    1        1.171   1.787   0.001  0.00  0.00    -0.070 A 
ATOM      9  C   LIG    1        1.154   3.173   0.008  0.00  0.00    +0.100 A 
ATOM     10  C   LIG    1       -0.044   3.862   0.035  0.00  0.00    +0.020 A 
ATOM     11 CL   LIG    1        2.687   0.941  -0.018  0.00  0.00    -0.060 Cl
ATOM     12  C   LIG    1       -1.240   3.167   0.054  0.00  0.00    +0.150 A 
ATOM     13  O   LIG    1       -2.428   3.816   0.125  0.00  0.00    -0.300 OA
ATOM     14  C   LIG    1       -3.540   3.228  -0.561  0.00  0.00    +0.320 C 
ENDBRANCH   3   4
ENDBRANCH   1   3
BRANCH   1  15
ATOM     15  C   LIG    1       -7.264   1.125  -0.410  0.00  0.00    +0.220 C 
BRANCH  15  16
ATOM     16  C   LIG    1       -8.412   2.088  -0.721  0.00  0.00    +0.020 C 
BRANCH  16  17
ATOM     17  C   LIG    1       -9.741   1.332  -0.666  0.00  0.00    +0.340 C 
BRANCH  17  18
ATOM     18  N   LIG    1      -10.840   2.253  -0.964  0.00  0.00    -0.540 N 
ATOM     19  C   LIG    1      -11.341   2.513  -2.186  0.00  0.00    +0.680 A 
ATOM     20  N   LIG    1      -12.342   3.407  -2.085  0.00  0.00    -0.640 N 
ATOM     21  H   LIG    1      -12.866   3.759  -2.822  0.00  0.00    +0.440 HD
ATOM     22  C   LIG    1      -12.497   3.743  -0.742  0.00  0.00    +0.090 A 
ATOM     23  C   LIG    1      -13.356   4.597  -0.068  0.00  0.00    +0.030 A 
ATOM     24  C   LIG    1      -13.275   4.709   1.306  0.00  0.00    +0.020 A 
ATOM     25  C   LIG    1      -12.332   3.982   2.012  0.00  0.00    +0.020 A 
ATOM     26  C   LIG    1      -11.469   3.131   1.348  0.00  0.00    +0.030 A 
ATOM     27  O   LIG    1      -10.949   2.014  -3.225  0.00  0.00    -0.550 OA
ATOM     28  C   LIG    1      -11.548   3.006  -0.030  0.00  0.00    +0.090 A 
ENDBRANCH  17  18
ENDBRANCH  16  17
ENDBRANCH  15  16
ENDBRANCH   1  15
TORSDOF 6
