REMARK  Name = ZINCvU00000007vK.0
REMARK                            x       y       z     vdW  Elec       q    Type
REMARK                         _______ _______ _______ _____ _____    ______ ____
ROOT
ATOM      1  C   LIG    1       -3.130   2.848  -2.754  0.00  0.00    +0.140 A 
ATOM      2  N   LIG    1       -3.793   2.831  -3.887  0.00  0.00    -0.290 NA
ATOM      3  N   LIG    1       -3.991   1.616  -4.259  0.00  0.00    -0.270 NA
ATOM      4  C   LIG    1       -3.467   0.793  -3.395  0.00  0.00    +0.190 A 
ATOM      5  N   LIG    1       -2.897   1.548  -2.408  0.00  0.00    -0.450 N 
ENDROOT
BRANCH   5   6
ATOM      6  C   LIG    1       -2.188   1.063  -1.221  0.00  0.00    +0.230 C 
ATOM      7  C   LIG    1       -0.753   1.593  -1.232  0.00  0.00    +0.010 C 
ATOM      8  C   LIG    1       -0.013   1.086   0.008  0.00  0.00    +0.030 C 
ATOM      9  C   LIG    1       -0.729   1.579   1.267  0.00  0.00    +0.010 C 
ATOM     10  C   LIG    1       -2.164   1.050   1.278  0.00  0.00    +0.030 C 
ATOM     11  C   LIG    1       -2.904   1.556   0.038  0.00  0.00    +0.020 C 
ENDBRANCH   5   6
BRANCH   1  12
ATOM     12  S   LIG    1       -2.633   4.278  -1.853  0.00  0.00    +0.090 S 
BRANCH  12  13
ATOM     13  C   LIG    1       -3.295   5.574  -2.930  0.00  0.00    +0.100 C 
BRANCH  13  15
ATOM     14  O   LIG    1       -2.368   7.005  -1.298  0.00  0.00    -0.520 OA
ATOM     15  C   LIG    1       -2.980   6.925  -2.342  0.00  0.00    +0.530 C 
ATOM     16  N   LIG    1       -3.379   8.046  -2.976  0.00  0.00    -0.720 N 
ATOM     17  H   LIG    1       -3.868   7.982  -3.811  0.00  0.00    +0.410 HD
BRANCH  16  18
ATOM     18  C   LIG    1       -3.072   9.359  -2.404  0.00  0.00    +0.260 C 
BRANCH  18  19
ATOM     19  C   LIG    1       -3.632  10.455  -3.314  0.00  0.00    +0.010 C 
BRANCH  19  20
ATOM     20  C   LIG    1       -3.313  11.827  -2.717  0.00  0.00    +0.080 C 
BRANCH  20  21
ATOM     21  C   LIG    1       -3.864  12.905  -3.613  0.00  0.00    -0.080 A 
ATOM     22  C   LIG    1       -3.083  13.428  -4.628  0.00  0.00    +0.000 A 
ATOM     23  C   LIG    1       -3.591  14.414  -5.453  0.00  0.00    +0.000 A 
ATOM     24  C   LIG    1       -4.875  14.885  -5.257  0.00  0.00    +0.000 A 
ATOM     25  C   LIG    1       -5.654  14.366  -4.240  0.00  0.00    +0.000 A 
ATOM     26  C   LIG    1       -5.149  13.377  -3.418  0.00  0.00    +0.000 A 
ENDBRANCH  20  21
ENDBRANCH  19  20
ENDBRANCH  18  19
ENDBRANCH  16  18
ENDBRANCH  13  15
ENDBRANCH  12  13
ENDBRANCH   1  12
BRANCH   4  27
ATOM     27  C   LIG    1       -3.486  -0.712  -3.470  0.00  0.00    +0.250 C 
BRANCH  27  28
ATOM     28  C   LIG    1       -4.715  -1.234  -2.773  0.00  0.00    -0.190 A 
ATOM     29  C   LIG    1       -5.898  -1.442  -3.354  0.00  0.00    +0.040 A 
ATOM     30  C   LIG    1       -6.883  -1.930  -2.512  0.00  0.00    +0.010 A 
ATOM     31  C   LIG    1       -6.502  -2.111  -1.246  0.00  0.00    -0.030 A 
ATOM     32  S   LIG    1       -4.812  -1.656  -1.069  0.00  0.00    +0.090 S 
ENDBRANCH  27  28
ENDBRANCH   4  27
TORSDOF 10
