REMARK  Name = ZINCrH000004sJBD.0
REMARK                            x       y       z     vdW  Elec       q    Type
REMARK                         _______ _______ _______ _____ _____    ______ ____
ROOT
ATOM      1  C   LIG    1        2.029   3.002   2.471  0.00  0.00    +0.510 C 
ATOM      2  N   LIG    1        3.354   3.116   2.687  0.00  0.00    -0.630 N 
ATOM      3  H   LIG    1        3.855   2.361   3.034  0.00  0.00    +0.420 HD
ATOM      4  O   LIG    1        1.402   3.946   2.038  0.00  0.00    -0.490 OA
ENDROOT
BRANCH   2   5
ATOM      5  C   LIG    1        4.003   4.314   2.414  0.00  0.00    +0.240 A 
ATOM      6  N   LIG    1        5.270   4.529   2.585  0.00  0.00    -0.500 NA
ATOM      7  C   LIG    1        5.720   5.729   2.273  0.00  0.00    +0.110 A 
ATOM      8  C   LIG    1        4.789   6.570   1.816  0.00  0.00    -0.150 A 
ATOM      9  S   LIG    1        3.247   5.718   1.795  0.00  0.00    +0.240 S 
BRANCH   7  10
ATOM     10  C   LIG    1        7.168   6.120   2.421  0.00  0.00    +0.270 C 
BRANCH  10  11
ATOM     11  N   LIG    1        7.417   6.564   3.799  0.00  0.00    -0.530 NA
ATOM     12  C   LIG    1        6.684   7.801   4.094  0.00  0.00    +0.160 C 
ATOM     13  C   LIG    1        6.850   8.153   5.574  0.00  0.00    +0.020 C 
ATOM     14  C   LIG    1        8.338   8.332   5.888  0.00  0.00    +0.000 C 
ATOM     15  C   LIG    1        9.086   7.046   5.526  0.00  0.00    +0.020 C 
ATOM     16  C   LIG    1        8.855   6.726   4.047  0.00  0.00    +0.170 C 
ENDBRANCH  10  11
ENDBRANCH   7  10
ENDBRANCH   2   5
BRANCH   1  17
ATOM     17  C   LIG    1        1.325   1.703   2.768  0.00  0.00    +0.170 C 
BRANCH  17  24
ATOM     18  C   LIG    1       -0.944   2.666   4.759  0.00  0.00    +0.140 C 
ATOM     19  C   LIG    1       -1.142   2.264   3.320  0.00  0.00    +0.090 A 
ATOM     20  N   LIG    1       -2.281   2.253   2.676  0.00  0.00    -0.290 NA
ATOM     21  N   LIG    1       -2.039   1.824   1.365  0.00  0.00    -0.360 N 
ATOM     22  C   LIG    1       -0.718   1.572   1.248  0.00  0.00    +0.110 A 
ATOM     23  C   LIG    1       -0.013   1.086   0.008  0.00  0.00    +0.140 C 
ATOM     24  C   LIG    1       -0.140   1.839   2.442  0.00  0.00    -0.230 A 
BRANCH  21  25
ATOM     25  C   LIG    1       -3.042   1.673   0.308  0.00  0.00    +0.330 C 
BRANCH  25  26
ATOM     26  C   LIG    1       -3.616   0.255   0.348  0.00  0.00    -0.030 C 
ATOM     27  C   LIG    1       -2.514  -0.750   0.007  0.00  0.00    +0.030 C 
ATOM     28  C   LIG    1       -4.750   0.135  -0.672  0.00  0.00    +0.030 C 
ENDBRANCH  25  26
ENDBRANCH  21  25
ENDBRANCH  17  24
ENDBRANCH   1  17
TORSDOF 7
