REMARK  Name = ZINCrH00000tj14G.1
REMARK                            x       y       z     vdW  Elec       q    Type
REMARK                         _______ _______ _______ _____ _____    ______ ____
ROOT
ATOM      1  C   LIG    1       -2.737   1.266   0.075  0.00  0.00    +0.360 C 
ATOM      2  C   LIG    1       -2.426  -0.212   0.048  0.00  0.00    -0.220 C 
ATOM      3  C   LIG    1       -3.609  -0.862   0.142  0.00  0.00    +0.110 C 
ATOM      4  C   LIG    1       -4.700   0.128   0.241  0.00  0.00    +0.520 C 
ATOM      5  O   LIG    1       -5.880  -0.144   0.341  0.00  0.00    -0.450 OA
ATOM      6  N   LIG    1       -4.196   1.374   0.198  0.00  0.00    -0.530 N 
ENDROOT
BRANCH   1  11
ATOM      7  C   LIG    1       -0.169   3.758   4.612  0.00  0.00    +0.090 C 
ATOM      8  C   LIG    1       -0.839   3.108   3.429  0.00  0.00    -0.070 A 
ATOM      9  C   LIG    1       -0.314   3.273   2.161  0.00  0.00    +0.010 A 
ATOM     10  C   LIG    1       -0.928   2.678   1.075  0.00  0.00    +0.030 A 
ATOM     11  C   LIG    1       -2.068   1.916   1.258  0.00  0.00    -0.120 A 
ATOM     12  C   LIG    1       -2.595   1.755   2.526  0.00  0.00    +0.040 A 
ATOM     13  C   LIG    1       -1.978   2.347   3.611  0.00  0.00    +0.010 A 
ENDBRANCH   1  11
BRANCH   6  14
ATOM     14  C   LIG    1       -4.928   2.557   0.261  0.00  0.00    +0.380 A 
ATOM     15  C   LIG    1       -4.280   3.777   0.107  0.00  0.00    -0.050 A 
ATOM     16  C   LIG    1       -5.021   4.945   0.166  0.00  0.00    +0.100 A 
ATOM     17  C   LIG    1       -6.387   4.852   0.389  0.00  0.00    -0.060 A 
ATOM     18  C   LIG    1       -6.965   3.606   0.539  0.00  0.00    +0.300 A 
ATOM     19  N   LIG    1       -6.234   2.510   0.472  0.00  0.00    -0.490 NA
ENDBRANCH   6  14
BRANCH   3  20
ATOM     20  O   LIG    1       -3.767  -2.206   0.149  0.00  0.00    -0.430 OA
ATOM     21  H   LIG    1       -4.687  -2.494   0.223  0.00  0.00    +0.420 HD
ENDBRANCH   3  20
BRANCH   2  22
ATOM     22  C   LIG    1       -1.097  -0.825  -0.065  0.00  0.00    +0.520 C 
ATOM     23  O   LIG    1       -0.648  -1.479   0.860  0.00  0.00    -0.410 OA
BRANCH  22  24
ATOM     24  C   LIG    1       -0.311  -0.650  -1.289  0.00  0.00    -0.110 A 
ATOM     25  C   LIG    1        0.982  -1.080  -1.492  0.00  0.00    +0.050 A 
ATOM     26  C   LIG    1        1.330  -0.700  -2.796  0.00  0.00    -0.070 A 
ATOM     27  C   LIG    1        0.259  -0.066  -3.326  0.00  0.00    +0.220 A 
ATOM     28  O   LIG    1       -0.725  -0.038  -2.418  0.00  0.00    -0.150 OA
ENDBRANCH  22  24
ENDBRANCH   2  22
TORSDOF 5
