REMARK  Name = ZINCAx0000000baZ.0
REMARK                            x       y       z     vdW  Elec       q    Type
REMARK                         _______ _______ _______ _____ _____    ______ ____
ROOT
ATOM      1  C   LIG    1        2.424   3.931  -0.001  0.00  0.00    +0.560 C 
ATOM      2  N   LIG    1        3.600   3.273  -0.016  0.00  0.00    -0.720 N 
ATOM      3  H   LIG    1        3.613   2.303  -0.021  0.00  0.00    +0.400 HD
ATOM      4  O   LIG    1        2.407   5.147   0.006  0.00  0.00    -0.540 OA
ENDROOT
BRANCH   1   7
ATOM      5  C   LIG    1       -1.249   3.146   0.031  0.00  0.00    +0.100 A 
ATOM      6  C   LIG    1       -0.065   3.857   0.023  0.00  0.00    +0.040 A 
ATOM      7  C   LIG    1        1.155   3.176   0.008  0.00  0.00    -0.130 A 
ATOM      8  C   LIG    1        1.173   1.780   0.000  0.00  0.00    +0.050 A 
ATOM      9  C   LIG    1       -0.013   1.076   0.008  0.00  0.00    -0.040 A 
ATOM     10  C   LIG    1       -1.225   1.752   0.017  0.00  0.00    +0.130 A 
BRANCH   5  12
ATOM     11  C   LIG    1       -2.388   5.234   0.054  0.00  0.00    +0.240 C 
ATOM     12  O   LIG    1       -2.438   3.805   0.046  0.00  0.00    -0.300 OA
ENDBRANCH   5  12
BRANCH  10  13
ATOM     13  O   LIG    1       -2.390   1.054   0.019  0.00  0.00    -0.270 OA
BRANCH  13  14
ATOM     14  C   LIG    1       -2.292  -0.372   0.011  0.00  0.00    +0.240 C 
BRANCH  14  15
ATOM     15  C   LIG    1       -3.675  -0.970   0.014  0.00  0.00    +0.520 C 
ATOM     16  N   LIG    1       -3.830  -2.309   0.008  0.00  0.00    -0.620 N 
ATOM     17  C   LIG    1       -2.664  -3.206  -0.009  0.00  0.00    +0.250 C 
ATOM     18  C   LIG    1       -2.839  -4.241   1.115  0.00  0.00    +0.220 C 
ATOM     19  O   LIG    1       -4.120  -4.862   0.984  0.00  0.00    -0.380 OA
ATOM     20  C   LIG    1       -5.224  -3.965   1.128  0.00  0.00    +0.220 C 
ATOM     21  C   LIG    1       -5.170  -2.916   0.011  0.00  0.00    +0.270 C 
ATOM     22  O   LIG    1       -4.649  -0.247   0.023  0.00  0.00    -0.510 OA
ENDBRANCH  14  15
ENDBRANCH  13  14
ENDBRANCH  10  13
ENDBRANCH   1   7
BRANCH   2  23
ATOM     23  C   LIG    1        4.859   4.023  -0.024  0.00  0.00    +0.350 C 
BRANCH  23  24
ATOM     24  C   LIG    1        6.017   3.059  -0.041  0.00  0.00    -0.270 A 
ATOM     25  C   LIG    1        6.643   2.548   1.044  0.00  0.00    +0.120 A 
ATOM     26  N   LIG    1        7.621   1.727   0.607  0.00  0.00    -0.360 N 
ATOM     27  N   LIG    1        7.600   1.741  -0.794  0.00  0.00    -0.290 NA
ATOM     28  C   LIG    1        6.307   2.841   2.484  0.00  0.00    +0.140 C 
ATOM     29  C   LIG    1        6.639   2.539  -1.181  0.00  0.00    +0.090 A 
ATOM     30  C   LIG    1        6.265   2.845  -2.608  0.00  0.00    +0.150 C 
BRANCH  26  31
ATOM     31  C   LIG    1        8.544   0.962   1.448  0.00  0.00    +0.380 C 
BRANCH  31  32
ATOM     32  C   LIG    1        9.770   1.792   1.733  0.00  0.00    -0.120 A 
ATOM     33  C   LIG    1       10.861   1.727   0.886  0.00  0.00    +0.040 A 
ATOM     34  C   LIG    1       11.983   2.491   1.145  0.00  0.00    +0.010 A 
ATOM     35  C   LIG    1       12.018   3.313   2.256  0.00  0.00    +0.020 A 
ATOM     36  C   LIG    1       10.929   3.374   3.105  0.00  0.00    +0.010 A 
ATOM     37  C   LIG    1        9.805   2.614   2.844  0.00  0.00    +0.020 A 
ENDBRANCH  31  32
ENDBRANCH  26  31
ENDBRANCH  23  24
ENDBRANCH   2  23
TORSDOF 9
