REMARK  Name = ZINCkj00000dDtsd.0
REMARK                            x       y       z     vdW  Elec       q    Type
REMARK                         _______ _______ _______ _____ _____    ______ ____
ROOT
ATOM      1  S   LIG    1       -0.611  -4.282  -1.233  0.00  0.00    +2.690 S 
ATOM      2  O   LIG    1       -1.907  -3.730  -1.424  0.00  0.00    -0.930 OA
ATOM      3  O   LIG    1       -0.387  -5.657  -0.950  0.00  0.00    -0.930 OA
ENDROOT
BRANCH   1   8
ATOM      4  C   LIG    1        0.656  -2.567  -4.638  0.00  0.00    -0.100 A 
ATOM      5  C   LIG    1        1.744  -3.347  -4.985  0.00  0.00    +0.120 A 
ATOM      6  C   LIG    1        2.113  -4.413  -4.184  0.00  0.00    -0.050 A 
ATOM      7  C   LIG    1        1.393  -4.699  -3.038  0.00  0.00    +0.160 A 
ATOM      8  C   LIG    1        0.305  -3.919  -2.693  0.00  0.00    -0.670 A 
ATOM      9 CL   LIG    1        3.479  -5.392  -4.618  0.00  0.00    -0.040 Cl
ATOM     10  C   LIG    1       -0.066  -2.857  -3.496  0.00  0.00    +0.140 A 
BRANCH   4  11
ATOM     11  C   LIG    1        0.254  -1.406  -5.510  0.00  0.00    +0.230 C 
BRANCH  11  13
ATOM     12  C   LIG    1       -1.129  -0.820  -7.378  0.00  0.00    +0.210 C 
ATOM     13  O   LIG    1       -0.681  -1.851  -6.495  0.00  0.00    -0.380 OA
ENDBRANCH  11  13
ENDBRANCH   4  11
ENDBRANCH   1   8
BRANCH   1  14
ATOM     14  N   LIG    1        0.082  -3.430   0.006  0.00  0.00    -1.050 NA
ATOM     15  H   LIG    1        0.508  -3.901   0.740  0.00  0.00    +0.440 HD
BRANCH  14  16
ATOM     16  C   LIG    1        0.051  -1.966  -0.005  0.00  0.00    +0.130 C 
ATOM     17  C   LIG    1        0.625  -0.973   1.030  0.00  0.00    +0.130 C 
ATOM     18  C   LIG    1        0.002  -0.004   0.002  0.00  0.00    -0.070 C 
ATOM     19  C   LIG    1        0.608  -0.967  -1.050  0.00  0.00    +0.100 C 
ATOM     20  C   LIG    1       -1.187  -0.997   0.009  0.00  0.00    +0.120 C 
BRANCH  18  21
ATOM     21  N   LIG    1       -0.018   1.465   0.010  0.00  0.00    -0.570 N 
ATOM     22  H   LIG    1       -0.490   1.790   0.840  0.00  0.00    +0.450 HD
ATOM     23  H   LIG    1       -0.506   1.799  -0.807  0.00  0.00    +0.440 HD
ATOM     24  H   LIG    1        0.929   1.814   0.003  0.00  0.00    +0.440 HD
ENDBRANCH  18  21
ENDBRANCH  14  16
ENDBRANCH   1  14
TORSDOF 6
