REMARK  Name = ZINCrH000004uGYm.0
REMARK                            x       y       z     vdW  Elec       q    Type
REMARK                         _______ _______ _______ _____ _____    ______ ____
ROOT
ATOM      1  O   LIG    1       -1.687   2.773   3.401  0.00  0.00    -0.580 OA
ATOM      2  C   LIG    1       -0.830   3.398   2.807  0.00  0.00    +0.710 C 
ATOM      3  N   LIG    1       -0.223   2.857   1.733  0.00  0.00    -0.710 N 
ATOM      4  H   LIG    1        0.461   3.356   1.259  0.00  0.00    +0.400 HD
ATOM      5  N   LIG    1       -0.487   4.633   3.224  0.00  0.00    -0.740 N 
ATOM      6  H   LIG    1        0.197   5.133   2.750  0.00  0.00    +0.400 HD
ENDROOT
BRANCH   3   7
ATOM      7  C   LIG    1       -0.595   1.514   1.280  0.00  0.00    +0.120 C 
ATOM      8  C   LIG    1       -0.987   0.492   2.349  0.00  0.00    +0.040 C 
ATOM      9  C   LIG    1       -2.058   1.096   1.438  0.00  0.00    +0.050 C 
BRANCH   7  10
ATOM     10  C   LIG    1        0.158   0.999   0.052  0.00  0.00    +0.210 C 
ATOM     11  C   LIG    1        1.596   1.524   0.078  0.00  0.00    +0.000 C 
ATOM     12  C   LIG    1        2.325   1.054  -1.185  0.00  0.00    +0.020 C 
ATOM     13  C   LIG    1        1.553   1.535  -2.417  0.00  0.00    -0.010 C 
ATOM     14  C   LIG    1        0.117   1.011  -2.346  0.00  0.00    +0.210 C 
ATOM     15  O   LIG    1       -0.494   1.458  -1.134  0.00  0.00    -0.370 OA
ENDBRANCH   7  10
ENDBRANCH   3   7
BRANCH   5  16
ATOM     16  C   LIG    1       -1.147   5.222   4.391  0.00  0.00    +0.350 C 
BRANCH  16  17
ATOM     17  C   LIG    1       -0.587   6.598   4.645  0.00  0.00    -0.030 A 
ATOM     18  C   LIG    1       -1.158   7.717   4.055  0.00  0.00    -0.050 A 
ATOM     19  C   LIG    1       -0.619   8.963   4.308  0.00  0.00    +0.300 A 
ATOM     20  N   LIG    1        0.426   9.100   5.101  0.00  0.00    -0.520 NA
ATOM     21  C   LIG    1        0.998   8.057   5.682  0.00  0.00    +0.320 A 
ATOM     22  C   LIG    1        0.506   6.775   5.476  0.00  0.00    -0.020 A 
BRANCH  21  23
ATOM     23  O   LIG    1        2.071   8.244   6.490  0.00  0.00    -0.250 OA
BRANCH  23  24
ATOM     24  C   LIG    1        2.583   9.499   6.593  0.00  0.00    +0.090 A 
ATOM     25  C   LIG    1        3.752   9.830   5.923  0.00  0.00    +0.010 A 
ATOM     26  C   LIG    1        4.266  11.108   6.025  0.00  0.00    +0.020 A 
ATOM     27  C   LIG    1        3.623  12.054   6.802  0.00  0.00    +0.010 A 
ATOM     28  C   LIG    1        2.461  11.725   7.475  0.00  0.00    +0.020 A 
ATOM     29  C   LIG    1        1.939  10.450   7.372  0.00  0.00    +0.010 A 
ENDBRANCH  23  24
ENDBRANCH  21  23
ENDBRANCH  16  17
ENDBRANCH   5  16
TORSDOF 6
