REMARK  Name = ZINCvU0000000JO9.0
REMARK                            x       y       z     vdW  Elec       q    Type
REMARK                         _______ _______ _______ _____ _____    ______ ____
ROOT
ATOM      1  C   LIG    1        0.041  -0.149   0.088  0.00  0.00    +0.230 C 
ATOM      2  C   LIG    1        1.571  -0.324   0.190  0.00  0.00    +0.030 C 
ATOM      3  C   LIG    1        2.113   0.898  -0.598  0.00  0.00    +0.040 C 
ATOM      4  C   LIG    1        1.070   1.986  -0.242  0.00  0.00    +0.250 C 
ATOM      5  N   LIG    1       -0.219   1.271  -0.191  0.00  0.00    -0.610 N 
ATOM      6  C   LIG    1       -1.433   1.826  -0.376  0.00  0.00    +0.530 C 
ATOM      7  O   LIG    1       -2.418   1.122  -0.438  0.00  0.00    -0.520 OA
ENDROOT
BRANCH   1   8
ATOM      8  C   LIG    1       -0.618  -0.548   1.410  0.00  0.00    +0.020 C 
BRANCH   8   9
ATOM      9  C   LIG    1       -0.426  -2.025   1.641  0.00  0.00    -0.060 A 
ATOM     10  C   LIG    1       -0.917  -2.937   0.725  0.00  0.00    +0.010 A 
ATOM     11  C   LIG    1       -0.737  -4.292   0.935  0.00  0.00    +0.000 A 
ATOM     12  C   LIG    1       -0.075  -4.735   2.065  0.00  0.00    -0.010 A 
ATOM     13  C   LIG    1        0.411  -3.823   2.983  0.00  0.00    +0.000 A 
ATOM     14  C   LIG    1        0.236  -2.468   2.771  0.00  0.00    +0.000 A 
ENDBRANCH   8   9
BRANCH   8  16
ATOM     15  C   LIG    1       -2.803  -0.792   2.596  0.00  0.00    -0.020 C 
ATOM     16  C   LIG    1       -2.113  -0.231   1.351  0.00  0.00    +0.050 C 
ENDBRANCH   8  16
ENDBRANCH   1   8
BRANCH   6  17
ATOM     17  C   LIG    1       -1.566   3.321  -0.506  0.00  0.00    +0.060 C 
BRANCH  17  18
ATOM     18  C   LIG    1       -3.038   3.687  -0.707  0.00  0.00    +0.210 C 
BRANCH  18  19
ATOM     19  C   LIG    1       -3.171   5.182  -0.838  0.00  0.00    +0.200 A 
ATOM     20  N   LIG    1       -3.114   5.853  -1.954  0.00  0.00    -0.470 NA
ATOM     21  C   LIG    1       -3.272   7.158  -1.686  0.00  0.00    +0.190 A 
ATOM     22  C   LIG    1       -3.432   7.283  -0.343  0.00  0.00    -0.020 A 
ATOM     23  O   LIG    1       -3.371   6.037   0.176  0.00  0.00    -0.190 OA
BRANCH  22  24
ATOM     24  C   LIG    1       -3.638   8.540   0.406  0.00  0.00    -0.060 A 
ATOM     25  C   LIG    1       -4.686   8.647   1.320  0.00  0.00    +0.120 A 
ATOM     26  C   LIG    1       -4.870   9.820   2.022  0.00  0.00    -0.010 A 
ATOM     27  C   LIG    1       -4.024  10.897   1.812  0.00  0.00    +0.150 A 
ATOM     28  C   LIG    1       -2.984  10.801   0.901  0.00  0.00    -0.030 A 
ATOM     29  F   LIG    1       -4.213  12.046   2.498  0.00  0.00    -0.120 F 
ATOM     30  C   LIG    1       -2.786   9.629   0.198  0.00  0.00    +0.160 A 
ATOM     31  F   LIG    1       -1.772   9.535  -0.690  0.00  0.00    -0.120 F 
ENDBRANCH  22  24
ENDBRANCH  18  19
ENDBRANCH  17  18
ENDBRANCH   6  17
TORSDOF 7
