REMARK  Name = ZINCtV00000Rky8A.0
REMARK                            x       y       z     vdW  Elec       q    Type
REMARK                         _______ _______ _______ _____ _____    ______ ____
ROOT
ATOM      1  O   LIG    1        4.414   0.153  -0.038  0.00  0.00    -0.470 OA
ATOM      2  C   LIG    1        3.920  -0.960  -0.040  0.00  0.00    +0.550 C 
ATOM      3  N   LIG    1        2.580  -1.103  -0.028  0.00  0.00    -0.520 N 
ENDROOT
BRANCH   3   4
ATOM      4  C   LIG    1        1.763   0.019  -0.015  0.00  0.00    +0.310 A 
ATOM      5  N   LIG    1        2.177   1.248  -0.012  0.00  0.00    -0.460 NA
ATOM      6  C   LIG    1        1.250   2.196   0.002  0.00  0.00    +0.130 A 
ATOM      7  C   LIG    1       -0.022   1.758   0.012  0.00  0.00    -0.080 A 
ATOM      8  S   LIG    1        0.002  -0.004   0.002  0.00  0.00    +0.090 S 
BRANCH   6   9
ATOM      9  C   LIG    1        1.591   3.639   0.006  0.00  0.00    -0.010 A 
ATOM     10  C   LIG    1        0.579   4.597   0.015  0.00  0.00    +0.030 A 
ATOM     11  C   LIG    1        0.902   5.939   0.022  0.00  0.00    +0.050 A 
ATOM     12  C   LIG    1        2.229   6.334   0.012  0.00  0.00    -0.080 A 
ATOM     13  C   LIG    1        3.238   5.386  -0.001  0.00  0.00    +0.050 A 
ATOM     14 BR   LIG    1        2.664   8.174   0.016  0.00  0.00    -0.050 Br
ATOM     15  C   LIG    1        2.926   4.042  -0.005  0.00  0.00    +0.070 A 
ENDBRANCH   6   9
ENDBRANCH   3   4
BRANCH   2  16
ATOM     16  C   LIG    1        4.753  -2.103  -0.053  0.00  0.00    -0.090 C 
ATOM     17  C   LIG    1        6.102  -1.960  -0.065  0.00  0.00    +0.200 C 
BRANCH  17  18
ATOM     18  C   LIG    1        6.936  -3.104  -0.079  0.00  0.00    -0.030 A 
ATOM     19  C   LIG    1        8.315  -3.105  -0.091  0.00  0.00    +0.010 A 
ATOM     20  C   LIG    1        8.713  -4.451  -0.101  0.00  0.00    -0.060 A 
ATOM     21  C   LIG    1        7.589  -5.201  -0.094  0.00  0.00    +0.200 A 
ATOM     22  O   LIG    1        6.522  -4.389  -0.076  0.00  0.00    -0.170 OA
ENDBRANCH  17  18
ENDBRANCH   2  16
BRANCH   3  23
ATOM     23  C   LIG    1        1.986  -2.442  -0.030  0.00  0.00    +0.350 C 
BRANCH  23  24
ATOM     24  C   LIG    1        1.769  -2.893  -1.451  0.00  0.00    -0.120 A 
ATOM     25  C   LIG    1        0.573  -2.620  -2.088  0.00  0.00    +0.020 A 
ATOM     26  C   LIG    1        0.376  -3.030  -3.394  0.00  0.00    +0.010 A 
ATOM     27  C   LIG    1        1.371  -3.723  -4.058  0.00  0.00    +0.020 A 
ATOM     28  C   LIG    1        2.564  -4.001  -3.419  0.00  0.00    +0.010 A 
ATOM     29  C   LIG    1        2.764  -3.586  -2.115  0.00  0.00    +0.030 A 
ENDBRANCH  23  24
ENDBRANCH   3  23
TORSDOF 6
