REMARK  Name = ZINCnE000001R8Yp.0
REMARK                            x       y       z     vdW  Elec       q    Type
REMARK                         _______ _______ _______ _____ _____    ______ ____
ROOT
ATOM      1  C   LIG    1       -3.403  -3.349  -0.163  0.00  0.00    +0.310 A 
ATOM      2  C   LIG    1       -2.656  -4.015  -1.127  0.00  0.00    -0.190 A 
ATOM      3  C   LIG    1       -1.434  -3.510  -1.527  0.00  0.00    +0.070 A 
ATOM      4  C   LIG    1       -0.953  -2.339  -0.974  0.00  0.00    -0.200 A 
ATOM      5  C   LIG    1       -1.692  -1.672  -0.005  0.00  0.00    +0.160 A 
ATOM      6  C   LIG    1       -2.918  -2.175   0.398  0.00  0.00    -0.090 A 
ENDROOT
BRANCH   1   7
ATOM      7  N   LIG    1       -4.638  -3.860   0.241  0.00  0.00    -1.090 NA
BRANCH   7   8
ATOM      8  S   LIG    1       -5.215  -5.260  -0.429  0.00  0.00    +2.640 S 
ATOM      9  O   LIG    1       -4.341  -6.298  -0.005  0.00  0.00    -1.030 OA
ATOM     10  O   LIG    1       -5.475  -4.973  -1.796  0.00  0.00    -1.020 OA
BRANCH   8  17
ATOM     11  C   LIG    1       -8.364  -4.317  -1.323  0.00  0.00    +0.190 C 
ATOM     12  C   LIG    1       -8.054  -5.163  -0.115  0.00  0.00    +0.100 A 
ATOM     13  N   LIG    1       -8.910  -5.644   0.740  0.00  0.00    -0.380 NA
ATOM     14  O   LIG    1       -8.361  -6.285   1.606  0.00  0.00    +0.080 OA
ATOM     15  C   LIG    1       -7.033  -6.317   1.430  0.00  0.00    +0.090 A 
ATOM     16  C   LIG    1       -6.024  -7.020   2.300  0.00  0.00    +0.220 C 
ATOM     17  C   LIG    1       -6.777  -5.590   0.316  0.00  0.00    -0.730 A 
ENDBRANCH   8  17
ENDBRANCH   7   8
ENDBRANCH   1   7
BRANCH   5  18
ATOM     18  O   LIG    1       -1.215  -0.524   0.542  0.00  0.00    -0.310 OA
BRANCH  18  19
ATOM     19  C   LIG    1       -0.003   0.001  -0.005  0.00  0.00    +0.160 C 
ATOM     20  C   LIG    1        0.096   1.524   0.261  0.00  0.00    +0.030 C 
ATOM     21  C   LIG    1        1.620   1.786   0.182  0.00  0.00    +0.020 C 
ATOM     22  C   LIG    1        2.252   0.544   0.844  0.00  0.00    +0.000 C 
ATOM     23  C   LIG    1        1.220  -0.590   0.725  0.00  0.00    +0.000 C 
ENDBRANCH  18  19
ENDBRANCH   5  18
TORSDOF 5
