REMARK  Name = ZINCqH0000050BY2.0
REMARK                            x       y       z     vdW  Elec       q    Type
REMARK                         _______ _______ _______ _____ _____    ______ ____
ROOT
ATOM      1  N   LIG    1       -1.094  -0.824   0.008  0.00  0.00    -0.440 N 
ATOM      2  C   LIG    1        0.002  -0.004   0.002  0.00  0.00    +0.210 A 
ATOM      3  N   LIG    1        1.073  -0.760  -0.018  0.00  0.00    -0.310 NA
ATOM      4  N   LIG    1        0.659  -2.099  -0.017  0.00  0.00    -0.340 NA
ATOM      5  C   LIG    1       -0.651  -2.119  -0.004  0.00  0.00    +0.420 A 
ENDROOT
BRANCH   1  12
ATOM      6  C   LIG    1       -2.357  -0.442   2.530  0.00  0.00    +0.090 C 
ATOM      7  C   LIG    1       -3.087  -0.212   1.232  0.00  0.00    -0.060 A 
ATOM      8  C   LIG    1       -4.407   0.195   1.244  0.00  0.00    +0.030 A 
ATOM      9  C   LIG    1       -5.078   0.406   0.053  0.00  0.00    +0.040 A 
ATOM     10  C   LIG    1       -4.430   0.209  -1.153  0.00  0.00    +0.030 A 
ATOM     11  C   LIG    1       -3.108  -0.193  -1.171  0.00  0.00    +0.050 A 
ATOM     12  C   LIG    1       -2.434  -0.410   0.023  0.00  0.00    +0.100 A 
ENDBRANCH   1  12
BRANCH   5  13
ATOM     13  N   LIG    1       -1.450  -3.255  -0.003  0.00  0.00    -0.450 N 
ATOM     14  C   LIG    1       -2.364  -3.256   1.149  0.00  0.00    +0.170 C 
ATOM     15  C   LIG    1       -3.265  -4.492   1.078  0.00  0.00    +0.250 C 
ATOM     16  O   LIG    1       -2.451  -5.667   1.032  0.00  0.00    -0.380 OA
ATOM     17  C   LIG    1       -1.549  -5.700  -0.077  0.00  0.00    +0.230 C 
ATOM     18  C   LIG    1       -0.631  -4.476  -0.018  0.00  0.00    +0.200 C 
ENDBRANCH   5  13
BRANCH   2  19
ATOM     19  S   LIG    1       -0.022   1.758   0.012  0.00  0.00    +0.010 S 
BRANCH  19  20
ATOM     20  C   LIG    1        1.740   2.190  -0.003  0.00  0.00    +0.160 C 
BRANCH  20  21
ATOM     21  C   LIG    1        1.889   3.689   0.004  0.00  0.00    -0.080 A 
ATOM     22  C   LIG    1        1.952   4.383  -1.190  0.00  0.00    +0.030 A 
ATOM     23  C   LIG    1        2.084   5.759  -1.184  0.00  0.00    +0.010 A 
ATOM     24  C   LIG    1        2.164   6.440   0.016  0.00  0.00    +0.020 A 
ATOM     25  C   LIG    1        2.107   5.746   1.210  0.00  0.00    +0.010 A 
ATOM     26  C   LIG    1        1.969   4.371   1.204  0.00  0.00    +0.030 A 
ENDBRANCH  20  21
ENDBRANCH  19  20
ENDBRANCH   2  19
TORSDOF 5
