REMARK  Name = ZINCqH0000005kh1.0
REMARK                            x       y       z     vdW  Elec       q    Type
REMARK                         _______ _______ _______ _____ _____    ______ ____
ROOT
ATOM      1  C   LIG    1        4.007   2.802   5.070  0.00  0.00    +0.130 A 
ATOM      2  C   LIG    1        3.296   3.042   6.186  0.00  0.00    -0.110 A 
ATOM      3  S   LIG    1        4.417   3.147   7.541  0.00  0.00    +0.210 S 
ATOM      4  C   LIG    1        5.766   2.850   6.449  0.00  0.00    +0.280 A 
ATOM      5  N   LIG    1        5.318   2.699   5.242  0.00  0.00    -0.500 NA
ENDROOT
BRANCH   1   9
ATOM      6  C   LIG    1        2.176   2.382   1.253  0.00  0.00    +0.160 A 
ATOM      7  C   LIG    1        1.394   2.635   2.373  0.00  0.00    +0.010 A 
ATOM      8  C   LIG    1        1.985   2.766   3.612  0.00  0.00    +0.050 A 
ATOM      9  C   LIG    1        3.369   2.655   3.739  0.00  0.00    -0.030 A 
ATOM     10  C   LIG    1        4.152   2.406   2.613  0.00  0.00    +0.080 A 
ATOM     11  C   LIG    1        3.556   2.270   1.376  0.00  0.00    -0.020 A 
BRANCH   6  13
ATOM     12  C   LIG    1        0.763   3.335  -0.547  0.00  0.00    +0.320 C 
ATOM     13  N   LIG    1        1.575   2.245  -0.001  0.00  0.00    -0.950 N 
BRANCH  13  14
ATOM     14  S   LIG    1        1.781   0.850  -0.870  0.00  0.00    +2.600 S 
ATOM     15  O   LIG    1        2.172  -0.112   0.100  0.00  0.00    -0.940 OA
ATOM     16  O   LIG    1        0.568   0.707  -1.596  0.00  0.00    -0.950 OA
ATOM     17  C   LIG    1        3.156   1.216  -1.994  0.00  0.00    -0.280 C 
ENDBRANCH  13  14
ENDBRANCH   6  13
ENDBRANCH   1   9
BRANCH   4  18
ATOM     18  N   LIG    1        7.103   2.781   6.824  0.00  0.00    -0.630 N 
ATOM     19  H   LIG    1        7.785   2.612   6.156  0.00  0.00    +0.430 HD
ATOM     20  C   LIG    1        7.450   2.949   8.116  0.00  0.00    +0.510 C 
ATOM     21  O   LIG    1        6.596   3.160   8.950  0.00  0.00    -0.490 OA
BRANCH  20  22
ATOM     22  C   LIG    1        8.899   2.875   8.522  0.00  0.00    +0.070 C 
BRANCH  22  23
ATOM     23  C   LIG    1        9.018   3.098  10.031  0.00  0.00    +0.000 C 
ATOM     24  C   LIG    1        8.623   4.547  10.383  0.00  0.00    +0.010 C 
ATOM     25  C   LIG    1        9.600   4.940  11.521  0.00  0.00    +0.010 C 
ATOM     26  C   LIG    1       10.924   4.265  11.084  0.00  0.00    +0.000 C 
ATOM     27  C   LIG    1       10.479   2.918  10.477  0.00  0.00    +0.020 C 
ENDBRANCH  22  23
ENDBRANCH  20  22
ENDBRANCH   4  18
TORSDOF 6
