REMARK  Name = ZINCqH0000006Bjq.1
REMARK                            x       y       z     vdW  Elec       q    Type
REMARK                         _______ _______ _______ _____ _____    ______ ____
ROOT
ATOM      1  S   LIG    1       -1.598  -1.448   0.149  0.00  0.00    +2.690 S 
ATOM      2  O   LIG    1       -0.857  -2.659   0.206  0.00  0.00    -0.920 OA
ATOM      3  O   LIG    1       -2.494  -1.135  -0.908  0.00  0.00    -0.940 OA
ENDROOT
BRANCH   1  11
ATOM      4  C   LIG    1        0.649  -0.130  -0.678  0.00  0.00    +0.230 A 
ATOM      5  C   LIG    1        1.577   0.902  -0.632  0.00  0.00    -0.120 A 
ATOM      6  C   LIG    1        1.433   1.917   0.296  0.00  0.00    +0.140 A 
ATOM      7  C   LIG    1        0.367   1.904   1.177  0.00  0.00    -0.050 A 
ATOM      8  C   LIG    1       -0.559   0.876   1.131  0.00  0.00    +0.160 A 
ATOM      9 CL   LIG    1        0.188   3.180   2.340  0.00  0.00    -0.040 Cl
ATOM     10 BR   LIG    1        3.035   0.919  -1.836  0.00  0.00    -0.010 Br
ATOM     11  C   LIG    1       -0.419  -0.140   0.206  0.00  0.00    -0.680 A 
BRANCH   4  13
ATOM     12  C   LIG    1        0.222  -0.921  -2.880  0.00  0.00    +0.260 C 
ATOM     13  O   LIG    1        0.791  -1.132  -1.586  0.00  0.00    -0.330 OA
ENDBRANCH   4  13
ENDBRANCH   1  11
BRANCH   1  14
ATOM     14  N   LIG    1       -2.481  -1.374   1.548  0.00  0.00    -0.990 NA
BRANCH  14  15
ATOM     15  C   LIG    1       -2.082  -2.173   2.709  0.00  0.00    +0.430 C 
BRANCH  15  16
ATOM     16  C   LIG    1       -1.229  -1.335   3.627  0.00  0.00    -0.060 A 
ATOM     17  C   LIG    1       -1.679  -0.570   4.638  0.00  0.00    -0.030 A 
ATOM     18  C   LIG    1       -0.546   0.036   5.228  0.00  0.00    -0.060 A 
ATOM     19  C   LIG    1        0.528  -0.394   4.542  0.00  0.00    +0.000 A 
ATOM     20  C   LIG    1        1.959  -0.010   4.815  0.00  0.00    +0.170 C 
ATOM     21  O   LIG    1        0.109  -1.228   3.577  0.00  0.00    -0.170 OA
ENDBRANCH  15  16
ENDBRANCH  14  15
BRANCH  14  22
ATOM     22  C   LIG    1       -3.661  -0.510   1.625  0.00  0.00    +0.300 C 
BRANCH  22  23
ATOM     23  C   LIG    1       -4.912  -1.324   1.289  0.00  0.00    +0.160 C 
BRANCH  23  24
ATOM     24  N   LIG    1       -6.096  -0.457   1.366  0.00  0.00    -0.540 NA
ATOM     25  C   LIG    1       -6.330  -0.007   2.745  0.00  0.00    +0.190 C 
ATOM     26  C   LIG    1       -7.281  -1.135   0.824  0.00  0.00    +0.190 C 
ENDBRANCH  23  24
ENDBRANCH  22  23
ENDBRANCH  14  22
ENDBRANCH   1  14
TORSDOF 8
