REMARK  Name = ZINCrg000000ojIC.0
REMARK                            x       y       z     vdW  Elec       q    Type
REMARK                         _______ _______ _______ _____ _____    ______ ____
ROOT
ATOM      1  N   LIG    1       -4.560  -4.211  -0.568  0.00  0.00    -0.460 N 
ATOM      2  C   LIG    1       -3.235  -4.825  -0.732  0.00  0.00    +0.220 C 
ATOM      3  C   LIG    1       -2.276  -4.248   0.315  0.00  0.00    +0.290 C 
ATOM      4  N   LIG    1       -2.299  -2.781   0.211  0.00  0.00    -0.620 N 
ATOM      5  C   LIG    1       -3.603  -2.102   0.235  0.00  0.00    +0.340 C 
ATOM      6  C   LIG    1       -1.154  -2.078   0.103  0.00  0.00    +0.720 C 
ATOM      7  N   LIG    1        0.024  -2.721  -0.014  0.00  0.00    -0.660 N 
ATOM      8  H   LIG    1        0.044  -3.689  -0.076  0.00  0.00    +0.410 HD
ATOM      9  O   LIG    1       -1.185  -0.862   0.112  0.00  0.00    -0.560 OA
ATOM     10  C   LIG    1       -4.510  -2.763  -0.814  0.00  0.00    +0.200 C 
ENDROOT
BRANCH   1  14
ATOM     11  C   LIG    1       -7.246  -6.073  -3.019  0.00  0.00    +0.250 A 
ATOM     12  C   LIG    1       -7.722  -5.031  -2.225  0.00  0.00    +0.050 A 
ATOM     13  C   LIG    1       -6.826  -4.393  -1.384  0.00  0.00    +0.070 A 
ATOM     14  C   LIG    1       -5.500  -4.825  -1.393  0.00  0.00    +0.220 A 
ATOM     15  N   LIG    1       -5.138  -5.824  -2.182  0.00  0.00    -0.240 NA
ATOM     16  N   LIG    1       -5.971  -6.418  -2.957  0.00  0.00    -0.280 NA
BRANCH  11  17
ATOM     17  O   LIG    1       -8.089  -6.731  -3.855  0.00  0.00    -0.300 OA
BRANCH  17  19
ATOM     18  C   LIG    1       -8.624  -8.407  -5.512  0.00  0.00    +0.070 C 
ATOM     19  C   LIG    1       -7.531  -7.788  -4.639  0.00  0.00    +0.200 C 
ENDBRANCH  17  19
ENDBRANCH  11  17
ENDBRANCH   1  14
BRANCH   7  20
ATOM     20  C   LIG    1        1.212  -1.998  -0.048  0.00  0.00    +0.430 A 
ATOM     21  C   LIG    1        1.201  -0.639  -0.344  0.00  0.00    -0.130 A 
ATOM     22  C   LIG    1        2.417   0.040  -0.365  0.00  0.00    +0.450 A 
ATOM     23  N   LIG    1        3.536  -0.631  -0.103  0.00  0.00    -0.590 NA
ATOM     24  C   LIG    1        3.503  -1.919   0.173  0.00  0.00    +0.560 A 
ATOM     25  N   LIG    1        2.374  -2.596   0.203  0.00  0.00    -0.590 NA
BRANCH  22  26
ATOM     26  N   LIG    1        2.460   1.395  -0.653  0.00  0.00    -0.600 N 
ATOM     27  C   LIG    1        3.751   2.076  -0.780  0.00  0.00    +0.290 C 
ATOM     28  C   LIG    1        1.215   2.146  -0.832  0.00  0.00    +0.300 C 
ENDBRANCH  22  26
ENDBRANCH   7  20
TORSDOF 5
