REMARK  Name = ZINCvU00000008me.0
REMARK                            x       y       z     vdW  Elec       q    Type
REMARK                         _______ _______ _______ _____ _____    ______ ____
ROOT
ATOM      1  C   LIG    1       -2.019   1.458  -7.380  0.00  0.00    +0.130 C 
ENDROOT
BRANCH   1   2
ATOM      2  C   LIG    1       -1.859   1.925  -5.956  0.00  0.00    +0.530 C 
ATOM      3  N   LIG    1       -0.804   1.512  -5.226  0.00  0.00    -0.620 N 
ATOM      4  H   LIG    1       -0.148   0.914  -5.618  0.00  0.00    +0.420 HD
ATOM      5  O   LIG    1       -2.679   2.673  -5.467  0.00  0.00    -0.480 OA
BRANCH   3   6
ATOM      6  C   LIG    1       -0.656   1.942  -3.915  0.00  0.00    +0.050 A 
ATOM      7  C   LIG    1        0.373   1.584  -3.093  0.00  0.00    -0.110 A 
ATOM      8  C   LIG    1        0.289   2.179  -1.769  0.00  0.00    -0.040 A 
ATOM      9  C   LIG    1       -0.792   2.951  -1.626  0.00  0.00    -0.240 A 
ATOM     10  C   LIG    1       -1.171   3.696  -0.363  0.00  0.00    +0.110 C 
ATOM     11  C   LIG    1        0.042   4.444   0.187  0.00  0.00    +0.020 C 
ATOM     12  C   LIG    1        0.796   3.536   1.155  0.00  0.00    +0.000 C 
ATOM     13  C   LIG    1        0.686   2.083   0.692  0.00  0.00    +0.030 C 
ATOM     14  C   LIG    1        1.327   1.938  -0.685  0.00  0.00    +0.090 C 
ATOM     15  S   LIG    1       -1.731   2.988  -3.113  0.00  0.00    +0.320 S 
BRANCH   7  16
ATOM     16  C   LIG    1        1.432   0.708  -3.495  0.00  0.00    +0.270 C 
ATOM     17  N   LIG    1        2.272   0.013  -3.815  0.00  0.00    -0.420 NA
ENDBRANCH   7  16
ENDBRANCH   3   6
ENDBRANCH   1   2
BRANCH   1  18
ATOM     18  S   LIG    1       -3.521   2.181  -8.086  0.00  0.00    +0.100 S 
BRANCH  18  20
ATOM     19  N   LIG    1       -4.371   1.688 -10.705  0.00  0.00    -0.450 N 
ATOM     20  C   LIG    1       -3.462   1.488  -9.705  0.00  0.00    +0.140 A 
ATOM     21  N   LIG    1       -2.539   0.679 -10.174  0.00  0.00    -0.290 NA
ATOM     22  N   LIG    1       -2.804   0.365 -11.391  0.00  0.00    -0.270 NA
ATOM     23  C   LIG    1       -3.912   0.955 -11.775  0.00  0.00    +0.230 A 
BRANCH  23  24
ATOM     24  C   LIG    1       -4.550   0.847 -13.104  0.00  0.00    -0.020 A 
ATOM     25  C   LIG    1       -4.463  -0.343 -13.829  0.00  0.00    +0.060 A 
ATOM     26  C   LIG    1       -5.065  -0.439 -15.066  0.00  0.00    +0.010 A 
ATOM     27  C   LIG    1       -5.744   0.645 -15.595  0.00  0.00    +0.030 A 
ATOM     28  C   LIG    1       -5.828   1.829 -14.885  0.00  0.00    +0.010 A 
ATOM     29  C   LIG    1       -5.236   1.936 -13.643  0.00  0.00    +0.010 A 
ENDBRANCH  23  24
BRANCH  19  30
ATOM     30  C   LIG    1       -5.581   2.512 -10.650  0.00  0.00    +0.350 C 
BRANCH  30  32
ATOM     31  C   LIG    1       -5.858   4.611 -11.866  0.00  0.00    +0.070 C 
ATOM     32  C   LIG    1       -5.223   3.949 -10.931  0.00  0.00    -0.070 C 
ENDBRANCH  30  32
ENDBRANCH  19  30
ENDBRANCH  18  20
ENDBRANCH   1  18
TORSDOF 8
