REMARK  Name = ZINCqH0000008bk9.0
REMARK                            x       y       z     vdW  Elec       q    Type
REMARK                         _______ _______ _______ _____ _____    ______ ____
ROOT
ATOM      1  C   LIG    1        3.257  -0.902   1.097  0.00  0.00    +0.520 C 
ATOM      2  N   LIG    1        2.217  -0.062   0.929  0.00  0.00    -0.550 N 
ATOM      3  C   LIG    1        0.843  -0.514   1.182  0.00  0.00    +0.270 C 
ATOM      4  C   LIG    1       -0.035  -0.014   0.028  0.00  0.00    +0.030 C 
ATOM      5  C   LIG    1       -0.035   1.515   0.034  0.00  0.00    +0.080 C 
ATOM      6  C   LIG    1        1.375   2.042   0.072  0.00  0.00    -0.140 A 
ATOM      7  C   LIG    1        1.616   3.347  -0.344  0.00  0.00    +0.180 A 
ATOM      8  C   LIG    1        2.905   3.861  -0.316  0.00  0.00    +0.000 A 
ATOM      9  C   LIG    1        3.954   3.076   0.125  0.00  0.00    +0.050 A 
ATOM     10  C   LIG    1        3.719   1.779   0.537  0.00  0.00    +0.010 A 
ATOM     11  C   LIG    1        2.429   1.259   0.510  0.00  0.00    +0.170 A 
ATOM     12  O   LIG    1        4.375  -0.555   0.780  0.00  0.00    -0.500 OA
ENDROOT
BRANCH   7  13
ATOM     13  N   LIG    1        0.557   4.145  -0.791  0.00  0.00    -0.680 N 
ATOM     14  H   LIG    1       -0.320   4.058  -0.386  0.00  0.00    +0.410 HD
ATOM     15  C   LIG    1        0.755   5.034  -1.784  0.00  0.00    +0.710 C 
ATOM     16  O   LIG    1        1.873   5.205  -2.232  0.00  0.00    -0.570 OA
ATOM     17  N   LIG    1       -0.284   5.733  -2.281  0.00  0.00    -0.860 N 
ATOM     18  H   LIG    1       -0.141   6.372  -2.996  0.00  0.00    +0.420 HD
ATOM     19  H   LIG    1       -1.176   5.596  -1.924  0.00  0.00    +0.400 HD
ENDBRANCH   7  13
BRANCH   1  20
ATOM     20  C   LIG    1        3.031  -2.274   1.679  0.00  0.00    +0.070 C 
BRANCH  20  22
ATOM     21  C   LIG    1        5.028  -3.215   0.510  0.00  0.00    +0.040 C 
ATOM     22  C   LIG    1        4.378  -2.974   1.873  0.00  0.00    +0.050 C 
BRANCH  22  23
ATOM     23  C   LIG    1        4.162  -4.294   2.568  0.00  0.00    -0.110 A 
ATOM     24  C   LIG    1        3.365  -5.260   1.984  0.00  0.00    +0.040 A 
ATOM     25  C   LIG    1        3.167  -6.471   2.621  0.00  0.00    +0.000 A 
ATOM     26  C   LIG    1        3.765  -6.717   3.842  0.00  0.00    +0.040 A 
ATOM     27  C   LIG    1        4.563  -5.752   4.428  0.00  0.00    -0.010 A 
ATOM     28  C   LIG    1        4.767  -4.542   3.789  0.00  0.00    +0.100 A 
ATOM     29  F   LIG    1        5.551  -3.600   4.357  0.00  0.00    -0.140 F 
ENDBRANCH  22  23
ENDBRANCH  20  22
ENDBRANCH   1  20
TORSDOF 4
