REMARK  Name = ZINCpe000027pH1g.0
REMARK                            x       y       z     vdW  Elec       q    Type
REMARK                         _______ _______ _______ _____ _____    ______ ____
ROOT
ATOM      1  N   LIG    1        2.671  -6.441   0.606  0.00  0.00    -0.700 N 
ATOM      2  H   LIG    1        3.067  -7.125   0.043  0.00  0.00    +0.410 HD
ATOM      3  C   LIG    1        2.969  -6.394   1.919  0.00  0.00    +0.520 C 
ATOM      4  O   LIG    1        2.475  -5.539   2.623  0.00  0.00    -0.520 OA
ENDROOT
BRANCH   1   5
ATOM      5  C   LIG    1        1.749  -5.460   0.028  0.00  0.00    +0.290 C 
BRANCH   5   6
ATOM      6  C   LIG    1        1.583  -5.736  -1.468  0.00  0.00    +0.250 C 
ATOM      7  C   LIG    1        2.918  -5.505  -2.180  0.00  0.00    +0.080 C 
BRANCH   6  10
ATOM      8  C   LIG    1       -0.408  -3.104  -2.881  0.00  0.00    -0.020 A 
ATOM      9  C   LIG    1        0.791  -3.571  -2.461  0.00  0.00    +0.180 A 
ATOM     10  N   LIG    1        0.572  -4.832  -2.022  0.00  0.00    -0.290 N 
ATOM     11  N   LIG    1       -0.677  -5.102  -2.178  0.00  0.00    -0.080 NA
ATOM     12  N   LIG    1       -1.289  -4.093  -2.688  0.00  0.00    -0.250 NA
BRANCH   8  13
ATOM     13  C   LIG    1       -0.694  -1.742  -3.458  0.00  0.00    +0.260 C 
ATOM     14  C   LIG    1       -1.364  -1.897  -4.824  0.00  0.00    +0.030 C 
BRANCH  13  15
ATOM     15  O   LIG    1        0.531  -1.021  -3.606  0.00  0.00    -0.380 OA
BRANCH  15  17
ATOM     16  C   LIG    1        1.757   1.061  -3.656  0.00  0.00    +0.040 C 
ATOM     17  C   LIG    1        0.390   0.396  -3.481  0.00  0.00    +0.160 C 
ENDBRANCH  15  17
ENDBRANCH  13  15
ENDBRANCH   8  13
ENDBRANCH   6  10
ENDBRANCH   5   6
ENDBRANCH   1   5
BRANCH   3  18
ATOM     18  C   LIG    1        3.918  -7.403   2.513  0.00  0.00    +0.150 C 
BRANCH  18  19
ATOM     19  N   LIG    1        3.548  -7.658   3.912  0.00  0.00    -0.370 N 
ATOM     20  C   LIG    1        2.136  -8.057   3.981  0.00  0.00    +0.320 C 
ATOM     21  C   LIG    1        3.751  -6.436   4.703  0.00  0.00    +0.320 C 
ATOM     22  H   LIG    1        4.125  -8.398   4.283  0.00  0.00    +0.430 HD
ENDBRANCH  18  19
BRANCH  18  23
ATOM     23  C   LIG    1        5.346  -6.857   2.455  0.00  0.00    +0.100 C 
BRANCH  23  24
ATOM     24  C   LIG    1        6.317  -7.912   2.988  0.00  0.00    -0.070 C 
BRANCH  24  25
ATOM     25  C   LIG    1        7.729  -7.394   2.881  0.00  0.00    +0.490 C 
ATOM     26  O   LIG    1        8.661  -8.085   3.255  0.00  0.00    -0.680 OA
ATOM     27  O   LIG    1        7.938  -6.285   2.421  0.00  0.00    -0.690 OA
ENDBRANCH  24  25
ENDBRANCH  23  24
ENDBRANCH  18  23
ENDBRANCH   3  18
TORSDOF 11
