REMARK  Name = ZINCrH00000No4C3.0
REMARK                            x       y       z     vdW  Elec       q    Type
REMARK                         _______ _______ _______ _____ _____    ______ ____
ROOT
ATOM      1  N   LIG    1        9.811   1.302  -0.243  0.00  0.00    -0.720 N 
ATOM      2  H   LIG    1        9.640   2.253  -0.317  0.00  0.00    +0.400 HD
ATOM      3  C   LIG    1        8.782   0.438  -0.135  0.00  0.00    +0.550 C 
ATOM      4  O   LIG    1        8.997  -0.756  -0.043  0.00  0.00    -0.540 OA
ENDROOT
BRANCH   1   5
ATOM      5  C   LIG    1       11.188   0.802  -0.249  0.00  0.00    +0.290 C 
ATOM      6  C   LIG    1       11.675   0.630   1.191  0.00  0.00    +0.050 C 
BRANCH   5  12
ATOM      7  C   LIG    1       13.259   1.357  -1.551  0.00  0.00    +0.140 A 
ATOM      8  C   LIG    1       14.071   2.265  -2.214  0.00  0.00    -0.070 A 
ATOM      9  C   LIG    1       13.708   3.596  -2.280  0.00  0.00    +0.050 A 
ATOM     10  C   LIG    1       12.532   4.023  -1.690  0.00  0.00    -0.020 A 
ATOM     11  C   LIG    1       11.717   3.119  -1.034  0.00  0.00    +0.050 A 
ATOM     12  C   LIG    1       12.077   1.787  -0.965  0.00  0.00    -0.120 A 
BRANCH   7  14
ATOM     13  C   LIG    1       14.848  -0.322  -2.105  0.00  0.00    +0.250 C 
ATOM     14  O   LIG    1       13.617   0.048  -1.480  0.00  0.00    -0.310 OA
ENDBRANCH   7  14
ENDBRANCH   5  12
ENDBRANCH   1   5
BRANCH   3  15
ATOM     15  C   LIG    1        7.407   0.937  -0.129  0.00  0.00    -0.100 C 
ATOM     16  C   LIG    1        6.376   0.072  -0.022  0.00  0.00    +0.140 C 
BRANCH  16  17
ATOM     17  C   LIG    1        4.994   0.573  -0.015  0.00  0.00    -0.110 A 
ATOM     18  C   LIG    1        3.923  -0.322   0.096  0.00  0.00    +0.070 A 
ATOM     19  C   LIG    1        2.631   0.152   0.102  0.00  0.00    +0.000 A 
ATOM     20  C   LIG    1        2.388   1.518  -0.003  0.00  0.00    +0.180 A 
ATOM     21  C   LIG    1        3.449   2.411  -0.120  0.00  0.00    -0.030 A 
ATOM     22  C   LIG    1        4.745   1.947  -0.121  0.00  0.00    +0.060 A 
BRANCH  20  23
ATOM     23  N   LIG    1        1.077   1.993   0.003  0.00  0.00    -0.560 N 
ATOM     24  C   LIG    1        0.712   3.415   0.021  0.00  0.00    +0.260 C 
ATOM     25  C   LIG    1       -0.770   3.454   0.457  0.00  0.00    +0.060 C 
ATOM     26  C   LIG    1       -1.266   2.058   0.008  0.00  0.00    +0.070 C 
ATOM     27  C   LIG    1       -0.014   1.209  -0.007  0.00  0.00    +0.510 C 
ATOM     28  O   LIG    1        0.002  -0.004  -0.030  0.00  0.00    -0.500 OA
ENDBRANCH  20  23
ENDBRANCH  16  17
ENDBRANCH   3  15
TORSDOF 6
