REMARK  Name = ZINCvU0000000I5j.0
REMARK                            x       y       z     vdW  Elec       q    Type
REMARK                         _______ _______ _______ _____ _____    ______ ____
ROOT
ATOM      1  C   LIG    1       -0.722   3.005   3.118  0.00  0.00    +0.490 A 
ATOM      2  C   LIG    1       -1.861   2.325   3.615  0.00  0.00    -0.230 A 
ATOM      3  C   LIG    1       -2.762   2.668   4.708  0.00  0.00    -0.020 A 
ATOM      4  C   LIG    1       -3.744   1.792   4.908  0.00  0.00    -0.020 A 
ATOM      5  S   LIG    1       -3.653   0.462   3.768  0.00  0.00    +0.180 S 
ATOM      6  C   LIG    1       -2.223   1.129   2.994  0.00  0.00    +0.120 A 
ATOM      7  N   LIG    1       -1.488   0.680   1.968  0.00  0.00    -0.530 NA
ATOM      8  C   LIG    1       -0.439   1.346   1.543  0.00  0.00    +0.390 A 
ATOM      9  N   LIG    1       -0.054   2.480   2.101  0.00  0.00    -0.560 NA
ENDROOT
BRANCH   3  10
ATOM     10  C   LIG    1       -2.597   3.890   5.531  0.00  0.00    -0.040 A 
ATOM     11  C   LIG    1       -2.429   3.788   6.911  0.00  0.00    +0.030 A 
ATOM     12  C   LIG    1       -2.272   4.929   7.671  0.00  0.00    +0.020 A 
ATOM     13  C   LIG    1       -2.291   6.173   7.067  0.00  0.00    +0.020 A 
ATOM     14  C   LIG    1       -2.463   6.282   5.699  0.00  0.00    +0.020 A 
ATOM     15  C   LIG    1       -2.616   5.147   4.928  0.00  0.00    +0.010 A 
ENDBRANCH   3  10
BRANCH   1  16
ATOM     16  N   LIG    1       -0.310   4.196   3.689  0.00  0.00    -0.690 N 
ATOM     17  H   LIG    1       -0.772   4.546   4.466  0.00  0.00    +0.410 HD
BRANCH  16  23
ATOM     18  C   LIG    1        1.889   7.012   1.357  0.00  0.00    +0.020 C 
ATOM     19  C   LIG    1        1.889   7.175   2.878  0.00  0.00    -0.010 C 
ATOM     20  C   LIG    1        3.194   6.618   3.451  0.00  0.00    +0.010 C 
ATOM     21  C   LIG    1        3.314   5.135   3.097  0.00  0.00    +0.010 C 
ATOM     22  C   LIG    1        2.130   4.371   3.692  0.00  0.00    +0.000 C 
ATOM     23  C   LIG    1        0.825   4.927   3.119  0.00  0.00    +0.250 C 
ATOM     24  C   LIG    1        0.704   6.411   3.473  0.00  0.00    -0.020 C 
ATOM     25  C   LIG    1       -0.601   6.968   2.901  0.00  0.00    +0.020 C 
ENDBRANCH  16  23
ENDBRANCH   1  16
BRANCH   8  26
ATOM     26  C   LIG    1        0.353   0.797   0.385  0.00  0.00    +0.300 C 
BRANCH  26  27
ATOM     27  N   LIG    1       -0.193   1.320  -0.874  0.00  0.00    -0.530 NA
ATOM     28  C   LIG    1       -1.550   0.807  -1.113  0.00  0.00    +0.160 C 
ATOM     29  C   LIG    1       -2.103   1.422  -2.401  0.00  0.00    +0.220 C 
ATOM     30  O   LIG    1       -1.215   1.128  -3.483  0.00  0.00    -0.380 OA
ATOM     31  C   LIG    1        0.116   1.614  -3.284  0.00  0.00    +0.220 C 
ATOM     32  C   LIG    1        0.691   1.001  -2.005  0.00  0.00    +0.160 C 
ENDBRANCH  26  27
ENDBRANCH   8  26
TORSDOF 5
