REMARK  Name = ZINCrH000004lZ56.0
REMARK                            x       y       z     vdW  Elec       q    Type
REMARK                         _______ _______ _______ _____ _____    ______ ____
ROOT
ATOM      1  C   LIG    1       -0.016   1.344   0.009  0.00  0.00    +0.570 C 
ATOM      2  N   LIG    1        0.002  -0.004   0.002  0.00  0.00    -0.700 N 
ATOM      3  H   LIG    1        0.849  -0.478  -0.009  0.00  0.00    +0.410 HD
ATOM      4  O   LIG    1       -1.077   1.937   0.018  0.00  0.00    -0.530 OA
ENDROOT
BRANCH   1   7
ATOM      5  C   LIG    1        2.429   4.200   0.001  0.00  0.00    +0.190 A 
ATOM      6  C   LIG    1        1.237   3.495   0.009  0.00  0.00    -0.030 A 
ATOM      7  C   LIG    1        1.254   2.100   0.001  0.00  0.00    -0.040 A 
ATOM      8  C   LIG    1        2.473   1.421  -0.008  0.00  0.00    -0.070 A 
ATOM      9  C   LIG    1        3.660   2.133  -0.021  0.00  0.00    +0.190 A 
ATOM     10  C   LIG    1        3.639   3.521  -0.014  0.00  0.00    -0.140 A 
ATOM     11 BR   LIG    1        5.264   4.489  -0.024  0.00  0.00    -0.010 Br
BRANCH   5  13
ATOM     12  C   LIG    1        1.133   6.194   0.025  0.00  0.00    +0.250 C 
ATOM     13  O   LIG    1        2.413   5.559   0.009  0.00  0.00    -0.300 OA
ENDBRANCH   5  13
BRANCH   9  14
ATOM     14  O   LIG    1        4.848   1.472  -0.036  0.00  0.00    -0.290 OA
ATOM     15  C   LIG    1        4.796   0.044  -0.043  0.00  0.00    +0.250 C 
ENDBRANCH   9  14
ENDBRANCH   1   7
BRANCH   2  16
ATOM     16  C   LIG    1       -1.256  -0.754   0.010  0.00  0.00    +0.390 C 
BRANCH  16  17
ATOM     17  C   LIG    1       -1.765  -0.897  -1.401  0.00  0.00    +0.190 A 
ATOM     18  N   LIG    1       -1.045  -1.223  -2.440  0.00  0.00    -0.470 NA
ATOM     19  C   LIG    1       -1.828  -1.257  -3.528  0.00  0.00    +0.140 A 
ATOM     20  C   LIG    1       -3.079  -0.931  -3.151  0.00  0.00    +0.130 A 
ATOM     21  N   LIG    1       -3.040  -0.703  -1.802  0.00  0.00    -0.450 N 
ATOM     22  C   LIG    1       -4.170  -0.320  -0.952  0.00  0.00    +0.320 C 
ENDBRANCH  16  17
BRANCH  16  23
ATOM     23  C   LIG    1       -1.024  -2.120   0.601  0.00  0.00    -0.100 A 
ATOM     24  C   LIG    1        0.126  -2.821   0.289  0.00  0.00    +0.040 A 
ATOM     25  C   LIG    1        0.342  -4.073   0.834  0.00  0.00    +0.010 A 
ATOM     26  C   LIG    1       -0.596  -4.628   1.685  0.00  0.00    +0.020 A 
ATOM     27  C   LIG    1       -1.748  -3.929   1.993  0.00  0.00    +0.010 A 
ATOM     28  C   LIG    1       -1.962  -2.675   1.451  0.00  0.00    +0.020 A 
ENDBRANCH  16  23
ENDBRANCH   2  16
TORSDOF 6
