REMARK  Name = ZINCtV00000L6kxf.0
REMARK                            x       y       z     vdW  Elec       q    Type
REMARK                         _______ _______ _______ _____ _____    ______ ____
ROOT
ATOM      1  C   LIG    1        0.501   2.717   0.414  0.00  0.00    +0.210 C 
ENDROOT
BRANCH   1   2
ATOM      2  C   LIG    1       -0.205   3.186  -0.832  0.00  0.00    +0.190 A 
ATOM      3  N   LIG    1       -0.619   4.402  -1.056  0.00  0.00    -0.470 NA
ATOM      4  C   LIG    1       -1.197   4.449  -2.265  0.00  0.00    +0.170 A 
ATOM      5  C   LIG    1       -1.138   3.201  -2.795  0.00  0.00    -0.000 A 
ATOM      6  O   LIG    1       -0.514   2.419  -1.887  0.00  0.00    -0.190 OA
BRANCH   5   7
ATOM      7  C   LIG    1       -1.655   2.778  -4.114  0.00  0.00    -0.020 A 
ATOM      8  C   LIG    1       -1.516   1.453  -4.530  0.00  0.00    +0.030 A 
ATOM      9  C   LIG    1       -2.006   1.064  -5.759  0.00  0.00    +0.020 A 
ATOM     10  C   LIG    1       -2.625   1.986  -6.584  0.00  0.00    -0.070 A 
ATOM     11  C   LIG    1       -2.762   3.302  -6.180  0.00  0.00    +0.020 A 
ATOM     12  C   LIG    1       -2.281   3.703  -4.951  0.00  0.00    +0.040 A 
BRANCH  10  13
ATOM     13  C   LIG    1       -3.153   1.555  -7.928  0.00  0.00    +0.070 C 
BRANCH  13  14
ATOM     14  C   LIG    1       -2.059   1.726  -8.984  0.00  0.00    -0.020 C 
ATOM     15  C   LIG    1       -1.726   3.212  -9.137  0.00  0.00    +0.020 C 
ATOM     16  C   LIG    1       -2.551   1.173 -10.323  0.00  0.00    +0.030 C 
ENDBRANCH  13  14
ENDBRANCH  10  13
ENDBRANCH   5   7
ENDBRANCH   1   2
BRANCH   1  17
ATOM     17  C   LIG    1       -0.533   2.243   1.437  0.00  0.00    +0.070 C 
BRANCH  17  20
ATOM     18  N   LIG    1       -0.540   1.308   3.728  0.00  0.00    -0.670 N 
ATOM     19  H   LIG    1       -1.510   1.324   3.698  0.00  0.00    +0.410 HD
ATOM     20  C   LIG    1        0.173   1.774   2.683  0.00  0.00    +0.520 C 
ATOM     21  O   LIG    1        1.384   1.815   2.747  0.00  0.00    -0.510 OA
BRANCH  18  26
ATOM     22  C   LIG    1        2.125  -0.743   8.297  0.00  0.00    +0.090 C 
ATOM     23  C   LIG    1        1.416  -0.198   7.083  0.00  0.00    -0.080 A 
ATOM     24  C   LIG    1        0.445   0.775   7.230  0.00  0.00    +0.010 A 
ATOM     25  C   LIG    1       -0.205   1.277   6.120  0.00  0.00    -0.090 A 
ATOM     26  C   LIG    1        0.117   0.803   4.855  0.00  0.00    +0.130 A 
ATOM     27  C   LIG    1        1.089  -0.179   4.711  0.00  0.00    -0.070 A 
ATOM     28  C   LIG    1        1.438  -0.700   3.341  0.00  0.00    +0.090 C 
ATOM     29  C   LIG    1       -1.263   2.338   6.280  0.00  0.00    +0.090 C 
ATOM     30  C   LIG    1        1.740  -0.672   5.825  0.00  0.00    +0.010 A 
ENDBRANCH  18  26
ENDBRANCH  17  20
ENDBRANCH   1  17
TORSDOF 7
