REMARK  Name = ZINCqH0000000poF.0
REMARK                            x       y       z     vdW  Elec       q    Type
REMARK                         _______ _______ _______ _____ _____    ______ ____
ROOT
ATOM      1  C   LIG    1        1.751   1.665  -0.302  0.00  0.00    +0.090 C 
ATOM      2  C   LIG    1        0.415   0.971  -0.215  0.00  0.00    +0.530 C 
ATOM      3  N   LIG    1       -0.721   1.696  -0.198  0.00  0.00    -0.600 N 
ATOM      4  C   LIG    1       -0.699   3.157  -0.378  0.00  0.00    +0.290 C 
ATOM      5  C   LIG    1       -1.446   3.476  -1.679  0.00  0.00    +0.070 C 
ATOM      6  C   LIG    1       -2.760   2.742  -1.735  0.00  0.00    -0.070 A 
ATOM      7  C   LIG    1       -3.728   3.220  -2.609  0.00  0.00    +0.000 A 
ATOM      8  C   LIG    1       -4.945   2.581  -2.726  0.00  0.00    +0.000 A 
ATOM      9  C   LIG    1       -5.206   1.455  -1.968  0.00  0.00    +0.010 A 
ATOM     10  C   LIG    1       -4.248   0.981  -1.095  0.00  0.00    +0.010 A 
ATOM     11  C   LIG    1       -3.025   1.625  -0.973  0.00  0.00    -0.090 A 
ATOM     12  C   LIG    1       -2.027   1.062   0.007  0.00  0.00    +0.300 C 
ATOM     13  O   LIG    1        0.363  -0.239  -0.165  0.00  0.00    -0.530 OA
ENDROOT
BRANCH  12  14
ATOM     14  C   LIG    1       -1.899  -0.448  -0.207  0.00  0.00    +0.060 C 
BRANCH  14  15
ATOM     15  C   LIG    1       -1.291  -1.079   1.018  0.00  0.00    +0.560 C 
ATOM     16  N   LIG    1       -1.132  -2.416   1.079  0.00  0.00    -0.610 N 
ATOM     17  C   LIG    1       -1.442  -3.266  -0.080  0.00  0.00    +0.280 C 
ATOM     18  C   LIG    1       -0.144  -3.918  -0.568  0.00  0.00    +0.110 C 
ATOM     19  C   LIG    1        0.620  -4.452   0.625  0.00  0.00    -0.170 A 
ATOM     20  C   LIG    1        0.417  -4.082   1.903  0.00  0.00    -0.120 A 
ATOM     21  C   LIG    1        1.258  -4.716   2.812  0.00  0.00    +0.020 A 
ATOM     22  C   LIG    1        2.119  -5.583   2.291  0.00  0.00    -0.040 A 
ATOM     23  S   LIG    1        1.907  -5.649   0.547  0.00  0.00    +0.090 S 
ATOM     24  C   LIG    1       -0.638  -3.062   2.303  0.00  0.00    +0.290 C 
ATOM     25  C   LIG    1       -0.019  -2.013   3.229  0.00  0.00    +0.060 C 
ATOM     26  O   LIG    1       -0.944  -0.384   1.950  0.00  0.00    -0.550 OA
ENDBRANCH  14  15
ENDBRANCH  12  14
TORSDOF 2
