REMARK  Name = ZINCkj000018RBcz.0
REMARK                            x       y       z     vdW  Elec       q    Type
REMARK                         _______ _______ _______ _____ _____    ______ ____
ROOT
ATOM      1  C   LIG    1       -0.749   3.482  -1.171  0.00  0.00    +0.200 C 
ENDROOT
BRANCH   1   2
ATOM      2  O   LIG    1        0.569   3.977  -1.415  0.00  0.00    -0.540 OA
ATOM      3  H   LIG    1        0.943   3.702  -2.264  0.00  0.00    +0.390 HD
ENDBRANCH   1   2
BRANCH   1   4
ATOM      4  C   LIG    1       -1.693   3.985  -2.265  0.00  0.00    +0.300 C 
BRANCH   4   9
ATOM      5  C   LIG    1       -0.968   6.346  -2.736  0.00  0.00    +0.230 A 
ATOM      6  N   LIG    1       -1.391   7.545  -2.444  0.00  0.00    -0.480 NA
ATOM      7  C   LIG    1       -2.502   7.452  -1.698  0.00  0.00    +0.160 A 
ATOM      8  C   LIG    1       -2.782   6.146  -1.527  0.00  0.00    +0.110 A 
ATOM      9  N   LIG    1       -1.805   5.444  -2.180  0.00  0.00    -0.460 N 
BRANCH   5  10
ATOM     10  C   LIG    1        0.253   6.021  -3.558  0.00  0.00    +0.140 C 
BRANCH  10  12
ATOM     11  C   LIG    1        1.102   5.588  -5.867  0.00  0.00    +0.020 C 
ATOM     12  C   LIG    1       -0.138   5.918  -5.033  0.00  0.00    +0.020 C 
ENDBRANCH  10  12
ENDBRANCH   5  10
ENDBRANCH   4   9
ENDBRANCH   1   4
BRANCH   1  13
ATOM     13  C   LIG    1       -0.728   1.952  -1.180  0.00  0.00    +0.250 C 
BRANCH  13  14
ATOM     14  N   LIG    1        0.164   1.468  -0.118  0.00  0.00    -0.380 N 
ATOM     15  C   LIG    1        0.292   0.008  -0.213  0.00  0.00    +0.240 C 
ATOM     16  C   LIG    1        1.222  -0.494   0.895  0.00  0.00    +0.220 C 
ATOM     17  O   LIG    1        0.701  -0.094   2.165  0.00  0.00    -0.350 OA
ATOM     18  C   LIG    1        0.535   1.321   2.298  0.00  0.00    +0.160 C 
ATOM     19  C   LIG    1       -0.075   1.638   3.665  0.00  0.00    +0.110 C 
ATOM     20  C   LIG    1        2.616   0.107   0.702  0.00  0.00    +0.040 C 
ATOM     21  C   LIG    1       -0.396   1.825   1.193  0.00  0.00    +0.230 C 
ATOM     22  H   LIG    1        1.073   1.893  -0.222  0.00  0.00    +0.430 HD
ENDBRANCH  13  14
ENDBRANCH   1  13
TORSDOF 7
