REMARK  Name = ZINCfA000000bmji.0
REMARK                            x       y       z     vdW  Elec       q    Type
REMARK                         _______ _______ _______ _____ _____    ______ ____
ROOT
ATOM      1  C   LIG    1        0.145   1.479   2.451  0.00  0.00    +0.110 C 
ATOM      2  C   LIG    1       -0.740   1.791   1.243  0.00  0.00    +0.250 C 
ENDROOT
BRANCH   2   3
ATOM      3  C   LIG    1       -1.178   3.231   1.299  0.00  0.00    +0.080 A 
ATOM      4  C   LIG    1       -2.295   3.577   2.036  0.00  0.00    +0.030 A 
ATOM      5  C   LIG    1       -2.687   4.906   2.086  0.00  0.00    +0.130 A 
ATOM      6  C   LIG    1       -1.943   5.841   1.381  0.00  0.00    -0.130 A 
ATOM      7  C   LIG    1       -0.840   5.419   0.660  0.00  0.00    +0.330 A 
ATOM      8 BR   LIG    1       -2.431   7.668   1.403  0.00  0.00    +0.010 Br
ATOM      9  N   LIG    1       -0.495   4.147   0.640  0.00  0.00    -0.490 NA
ENDBRANCH   2   3
BRANCH   2  10
ATOM     10  N   LIG    1        0.019   1.558   0.007  0.00  0.00    -0.490 N 
ATOM     11  H   LIG    1        0.774   2.224  -0.054  0.00  0.00    +0.440 HD
ATOM     12  H   LIG    1        0.397   0.622   0.015  0.00  0.00    +0.430 HD
BRANCH  10  13
ATOM     13  C   LIG    1       -0.870   1.717  -1.151  0.00  0.00    +0.170 C 
ATOM     14  C   LIG    1       -0.052   1.605  -2.450  0.00  0.00    +0.070 C 
ATOM     15  C   LIG    1       -1.068   1.450  -3.611  0.00  0.00    +0.160 C 
ATOM     16  S   LIG    1       -2.289   0.278  -2.905  0.00  0.00    -0.210 S 
ATOM     17  C   LIG    1       -1.942   0.607  -1.138  0.00  0.00    +0.120 C 
ENDBRANCH  10  13
ENDBRANCH   2  10
TORSDOF 3
