REMARK  Name = ZINCrH000004nhXQ.1
REMARK                            x       y       z     vdW  Elec       q    Type
REMARK                         _______ _______ _______ _____ _____    ______ ____
ROOT
ATOM      1  C   LIG    1        4.085  -0.465  -2.667  0.00  0.00    +0.560 C 
ATOM      2  N   LIG    1        2.742  -0.373  -2.589  0.00  0.00    -0.720 N 
ATOM      3  H   LIG    1        2.196  -0.587  -3.362  0.00  0.00    +0.400 HD
ATOM      4  O   LIG    1        4.769  -0.197  -1.699  0.00  0.00    -0.510 OA
ENDROOT
BRANCH   1   9
ATOM      5  C   LIG    1        6.708  -1.391  -5.205  0.00  0.00    +0.100 A 
ATOM      6  C   LIG    1        5.919  -1.694  -6.301  0.00  0.00    -0.030 A 
ATOM      7  C   LIG    1        4.539  -1.598  -6.217  0.00  0.00    +0.050 A 
ATOM      8  C   LIG    1        3.939  -1.206  -5.041  0.00  0.00    +0.020 A 
ATOM      9  C   LIG    1        4.723  -0.891  -3.927  0.00  0.00    -0.120 A 
ATOM     10  C   LIG    1        6.117  -0.988  -4.011  0.00  0.00    +0.130 A 
BRANCH   5  12
ATOM     11  C   LIG    1        8.601  -1.906  -6.550  0.00  0.00    +0.240 C 
ATOM     12  O   LIG    1        8.062  -1.487  -5.295  0.00  0.00    -0.300 OA
ENDBRANCH   5  12
BRANCH  10  13
ATOM     13  O   LIG    1        6.888  -0.690  -2.935  0.00  0.00    -0.310 OA
ATOM     14  C   LIG    1        7.195  -1.761  -2.040  0.00  0.00    +0.230 C 
ENDBRANCH  10  13
ENDBRANCH   1   9
BRANCH   2  15
ATOM     15  C   LIG    1        2.108   0.049  -1.338  0.00  0.00    +0.240 C 
ATOM     16  C   LIG    1        0.680  -0.499  -1.278  0.00  0.00    +0.040 C 
ATOM     17  C   LIG    1        0.002  -0.004   0.002  0.00  0.00    +0.180 C 
ATOM     18  N   LIG    1       -0.018   1.464   0.010  0.00  0.00    -0.530 NA
ATOM     19  C   LIG    1        1.344   2.014   0.000  0.00  0.00    +0.180 C 
ATOM     20  C   LIG    1        2.062   1.579  -1.280  0.00  0.00    +0.010 C 
BRANCH  18  21
ATOM     21  C   LIG    1       -0.783   1.974   1.156  0.00  0.00    +0.230 C 
BRANCH  21  22
ATOM     22  C   LIG    1       -0.580   3.463   1.273  0.00  0.00    -0.080 A 
ATOM     23  C   LIG    1        0.454   3.960   2.045  0.00  0.00    +0.030 A 
ATOM     24  C   LIG    1        0.645   5.325   2.148  0.00  0.00    +0.020 A 
ATOM     25  C   LIG    1       -0.206   6.194   1.489  0.00  0.00    -0.030 A 
ATOM     26  C   LIG    1       -1.244   5.696   0.722  0.00  0.00    +0.020 A 
ATOM     27 CL   LIG    1        0.028   7.909   1.624  0.00  0.00    -0.070 Cl
ATOM     28  C   LIG    1       -1.430   4.330   0.614  0.00  0.00    +0.040 A 
ENDBRANCH  21  22
ENDBRANCH  18  21
ENDBRANCH   2  15
TORSDOF 6
