REMARK  Name = ZINCvU0000000Fg7.0
REMARK                            x       y       z     vdW  Elec       q    Type
REMARK                         _______ _______ _______ _____ _____    ______ ____
ROOT
ATOM      1  C   LIG    1       -7.292   3.851  -0.339  0.00  0.00    +0.140 A 
ATOM      2  C   LIG    1       -7.291   5.240  -0.315  0.00  0.00    +0.020 A 
ATOM      3  C   LIG    1       -6.099   5.935  -0.224  0.00  0.00    +0.040 A 
ATOM      4  C   LIG    1       -4.902   5.253  -0.151  0.00  0.00    +0.030 A 
ATOM      5  C   LIG    1       -4.891   3.857  -0.180  0.00  0.00    -0.120 A 
ATOM      6  C   LIG    1       -6.094   3.156  -0.272  0.00  0.00    +0.090 A 
ENDROOT
BRANCH   1   8
ATOM      7  C   LIG    1       -8.655   1.983   0.222  0.00  0.00    +0.520 C 
ATOM      8  N   LIG    1       -8.501   3.153  -0.431  0.00  0.00    -0.670 N 
ATOM      9  H   LIG    1       -9.228   3.510  -0.964  0.00  0.00    +0.410 HD
ATOM     10  O   LIG    1       -7.720   1.494   0.819  0.00  0.00    -0.500 OA
BRANCH   7  11
ATOM     11  C   LIG    1       -9.990   1.283   0.208  0.00  0.00    +0.090 C 
ATOM     12  C   LIG    1      -11.050   2.195   0.829  0.00  0.00    +0.070 C 
BRANCH  11  19
ATOM     13  C   LIG    1       -9.215   0.955   3.342  0.00  0.00    +0.160 C 
ATOM     14  C   LIG    1       -9.559  -0.144   2.370  0.00  0.00    +0.050 A 
ATOM     15  N   LIG    1       -9.607  -1.420   2.621  0.00  0.00    -0.370 NA
ATOM     16  O   LIG    1       -9.908  -2.056   1.637  0.00  0.00    +0.100 OA
ATOM     17  C   LIG    1      -10.109  -1.260   0.578  0.00  0.00    -0.020 A 
ATOM     18  C   LIG    1      -10.495  -1.690  -0.814  0.00  0.00    +0.190 C 
ATOM     19  C   LIG    1       -9.896   0.008   1.005  0.00  0.00    -0.190 A 
ENDBRANCH  11  19
ENDBRANCH   7  11
ENDBRANCH   1   8
BRANCH   5  20
ATOM     20  C   LIG    1       -3.609   3.124  -0.108  0.00  0.00    +0.560 C 
ATOM     21  N   LIG    1       -2.449   3.803  -0.019  0.00  0.00    -0.670 N 
ATOM     22  H   LIG    1       -2.457   4.769   0.071  0.00  0.00    +0.410 HD
ATOM     23  O   LIG    1       -3.602   1.908  -0.128  0.00  0.00    -0.500 OA
BRANCH  21  24
ATOM     24  C   LIG    1       -1.231   3.115  -0.058  0.00  0.00    +0.150 A 
ATOM     25  C   LIG    1       -1.104   1.969  -0.831  0.00  0.00    +0.050 A 
ATOM     26  C   LIG    1        0.098   1.289  -0.863  0.00  0.00    +0.040 A 
ATOM     27  C   LIG    1        1.177   1.755  -0.135  0.00  0.00    +0.050 A 
ATOM     28  C   LIG    1        1.055   2.899   0.632  0.00  0.00    -0.160 A 
ATOM     29  C   LIG    1       -0.146   3.581   0.673  0.00  0.00    +0.040 A 
BRANCH  28  30
ATOM     30  C   LIG    1        2.233   3.403   1.425  0.00  0.00    +0.510 C 
ATOM     31  F   LIG    1        1.905   3.429   2.784  0.00  0.00    -0.180 F 
ATOM     32  F   LIG    1        2.562   4.695   1.001  0.00  0.00    -0.180 F 
ATOM     33  F   LIG    1        3.327   2.554   1.225  0.00  0.00    -0.170 F 
ENDBRANCH  28  30
ENDBRANCH  21  24
ENDBRANCH   5  20
TORSDOF 6
