REMARK  Name = ZINCqH0000050T0G.0
REMARK                            x       y       z     vdW  Elec       q    Type
REMARK                         _______ _______ _______ _____ _____    ______ ____
ROOT
ATOM      1  C   LIG    1        1.655  -2.086   0.295  0.00  0.00    +0.210 C 
ATOM      2  C   LIG    1        1.296  -0.633   0.119  0.00  0.00    +0.020 A 
ATOM      3  C   LIG    1        2.169   0.419   0.007  0.00  0.00    -0.230 A 
ATOM      4  C   LIG    1        1.266   1.580  -0.143  0.00  0.00    +0.080 A 
ATOM      5  N   LIG    1        0.057   1.079  -0.101  0.00  0.00    -0.320 NA
ATOM      6  O   LIG    1        0.067  -0.119   0.040  0.00  0.00    +0.110 OA
ENDROOT
BRANCH   4   7
ATOM      7  C   LIG    1        1.647   3.003  -0.305  0.00  0.00    -0.060 A 
ATOM      8  C   LIG    1        2.597   3.370  -1.261  0.00  0.00    +0.140 A 
ATOM      9  C   LIG    1        2.943   4.700  -1.410  0.00  0.00    +0.000 A 
ATOM     10  C   LIG    1        2.359   5.664  -0.609  0.00  0.00    +0.090 A 
ATOM     11  C   LIG    1        1.422   5.306   0.343  0.00  0.00    +0.030 A 
ATOM     12  F   LIG    1        3.172   2.429  -2.040  0.00  0.00    -0.110 F 
ATOM     13  C   LIG    1        1.063   3.982   0.499  0.00  0.00    +0.020 A 
ATOM     14 CL   LIG    1       -0.114   3.535   1.695  0.00  0.00    -0.040 Cl
ENDBRANCH   4   7
BRANCH   3  15
ATOM     15  C   LIG    1        3.642   0.398   0.031  0.00  0.00    +0.600 C 
ATOM     16  N   LIG    1        4.299   0.525   1.201  0.00  0.00    -0.600 N 
ATOM     17  C   LIG    1        3.549   0.684   2.449  0.00  0.00    +0.290 C 
ATOM     18  O   LIG    1        4.264   0.266  -1.005  0.00  0.00    -0.510 OA
BRANCH  16  19
ATOM     19  C   LIG    1        5.763   0.504   1.224  0.00  0.00    +0.300 C 
BRANCH  19  20
ATOM     20  C   LIG    1        6.297   1.929   1.063  0.00  0.00    +0.160 C 
BRANCH  20  21
ATOM     21  N   LIG    1        7.765   1.908   1.087  0.00  0.00    -0.530 NA
ATOM     22  C   LIG    1        8.301   1.241  -0.107  0.00  0.00    +0.200 C 
BRANCH  21  23
ATOM     23  C   LIG    1        8.309   3.266   1.220  0.00  0.00    +0.180 C 
BRANCH  23  24
ATOM     24  C   LIG    1        8.174   3.730   2.672  0.00  0.00    +0.380 C 
ATOM     25  F   LIG    1        8.771   2.790   3.519  0.00  0.00    -0.190 F 
ATOM     26  F   LIG    1        6.819   3.856   2.997  0.00  0.00    -0.210 F 
ENDBRANCH  23  24
ENDBRANCH  21  23
ENDBRANCH  20  21
ENDBRANCH  19  20
ENDBRANCH  16  19
ENDBRANCH   3  15
TORSDOF 7
