REMARK  Name = ZINCrH000004omgf.0
REMARK                            x       y       z     vdW  Elec       q    Type
REMARK                         _______ _______ _______ _____ _____    ______ ____
ROOT
ATOM      1  C   LIG    1       -2.154   5.355   1.416  0.00  0.00    +0.030 C 
ATOM      2  C   LIG    1       -0.772   5.986   1.238  0.00  0.00    +0.240 C 
ENDROOT
BRANCH   2   3
ATOM      3  N   LIG    1        0.023   5.772   2.450  0.00  0.00    -0.720 N 
ATOM      4  H   LIG    1        0.630   5.017   2.505  0.00  0.00    +0.400 HD
ATOM      5  C   LIG    1       -0.090   6.623   3.489  0.00  0.00    +0.560 C 
ATOM      6  O   LIG    1       -0.851   7.568   3.421  0.00  0.00    -0.530 OA
BRANCH   5   7
ATOM      7  C   LIG    1        0.712   6.406   4.712  0.00  0.00    -0.140 A 
ATOM      8  C   LIG    1        1.583   5.317   4.795  0.00  0.00    +0.070 A 
ATOM      9  C   LIG    1        2.337   5.117   5.934  0.00  0.00    +0.010 A 
ATOM     10  C   LIG    1        2.228   5.984   7.003  0.00  0.00    +0.070 A 
ATOM     11  C   LIG    1        1.356   7.074   6.936  0.00  0.00    -0.150 A 
ATOM     12  C   LIG    1        0.597   7.285   5.787  0.00  0.00    +0.150 A 
BRANCH  11  13
ATOM     13  C   LIG    1        1.241   8.002   8.082  0.00  0.00    +0.560 C 
ATOM     14  O   LIG    1        0.483   8.950   8.022  0.00  0.00    -0.530 OA
ATOM     15  N   LIG    1        1.976   7.796   9.192  0.00  0.00    -0.850 N 
ATOM     16  H   LIG    1        1.900   8.404   9.944  0.00  0.00    +0.410 HD
ATOM     17  H   LIG    1        2.581   7.039   9.240  0.00  0.00    +0.400 HD
ENDBRANCH  11  13
ENDBRANCH   5   7
ENDBRANCH   2   3
BRANCH   2  18
ATOM     18  C   LIG    1       -0.066   5.341   0.044  0.00  0.00    +0.070 C 
BRANCH  18  19
ATOM     19  C   LIG    1        1.327   5.903  -0.080  0.00  0.00    -0.070 A 
ATOM     20  C   LIG    1        1.519   7.271  -0.120  0.00  0.00    +0.010 A 
ATOM     21  C   LIG    1        2.797   7.787  -0.229  0.00  0.00    +0.000 A 
ATOM     22  C   LIG    1        3.882   6.934  -0.309  0.00  0.00    +0.000 A 
ATOM     23  C   LIG    1        3.689   5.565  -0.274  0.00  0.00    +0.000 A 
ATOM     24  C   LIG    1        2.412   5.050  -0.160  0.00  0.00    +0.000 A 
ENDBRANCH  18  19
BRANCH  18  25
ATOM     25  C   LIG    1       -0.840   5.633  -1.216  0.00  0.00    -0.070 A 
ATOM     26  C   LIG    1       -1.171   6.936  -1.536  0.00  0.00    +0.010 A 
ATOM     27  C   LIG    1       -1.881   7.204  -2.692  0.00  0.00    +0.000 A 
ATOM     28  C   LIG    1       -2.259   6.169  -3.527  0.00  0.00    +0.000 A 
ATOM     29  C   LIG    1       -1.931   4.866  -3.203  0.00  0.00    +0.000 A 
ATOM     30  C   LIG    1       -1.218   4.598  -2.050  0.00  0.00    +0.010 A 
ENDBRANCH  18  25
ENDBRANCH   2  18
TORSDOF 6
