REMARK  Name = ZINCrH00000tj1fZ.0
REMARK                            x       y       z     vdW  Elec       q    Type
REMARK                         _______ _______ _______ _____ _____    ______ ____
ROOT
ATOM      1  N   LIG    1       -3.079   3.927   1.414  0.00  0.00    -0.570 N 
ATOM      2  C   LIG    1       -3.897   2.996   1.920  0.00  0.00    +0.690 C 
ATOM      3  N   LIG    1       -4.236   3.251   3.199  0.00  0.00    -0.720 N 
ATOM      4  H   LIG    1       -4.813   2.715   3.765  0.00  0.00    +0.440 HD
ATOM      5  C   LIG    1       -3.563   4.504   3.565  0.00  0.00    +0.130 C 
ATOM      6  C   LIG    1       -4.586   5.576   3.923  0.00  0.00    +0.060 C 
ATOM      7  C   LIG    1       -5.359   5.150   5.173  0.00  0.00    +0.040 C 
ATOM      8  C   LIG    1       -4.381   4.948   6.332  0.00  0.00    +0.040 C 
ATOM      9  C   LIG    1       -3.377   3.853   5.968  0.00  0.00    +0.040 C 
ATOM     10  C   LIG    1       -2.595   4.273   4.720  0.00  0.00    +0.060 C 
ATOM     11  O   LIG    1       -4.289   2.029   1.297  0.00  0.00    -0.520 OA
ATOM     12  C   LIG    1       -2.807   4.893   2.315  0.00  0.00    +0.530 C 
ATOM     13  O   LIG    1       -2.106   5.869   2.155  0.00  0.00    -0.460 OA
ENDROOT
BRANCH   8  14
ATOM     14  C   LIG    1       -5.142   4.541   7.567  0.00  0.00    -0.080 A 
ATOM     15  C   LIG    1       -5.902   3.386   7.561  0.00  0.00    +0.000 A 
ATOM     16  C   LIG    1       -6.597   3.009   8.695  0.00  0.00    +0.000 A 
ATOM     17  C   LIG    1       -6.540   3.793   9.832  0.00  0.00    +0.000 A 
ATOM     18  C   LIG    1       -5.784   4.951   9.837  0.00  0.00    +0.000 A 
ATOM     19  C   LIG    1       -5.085   5.324   8.704  0.00  0.00    +0.000 A 
ENDBRANCH   8  14
BRANCH   1  20
ATOM     20  C   LIG    1       -2.549   3.901   0.048  0.00  0.00    +0.370 C 
BRANCH  20  26
ATOM     21  C   LIG    1       -1.230   1.759   0.017  0.00  0.00    +0.010 A 
ATOM     22  C   LIG    1       -0.013   1.076   0.008  0.00  0.00    +0.050 A 
ATOM     23  C   LIG    1        1.172   1.783   0.000  0.00  0.00    +0.030 A 
ATOM     24  C   LIG    1        1.155   3.167   0.009  0.00  0.00    +0.030 A 
ATOM     25  C   LIG    1       -0.048   3.850   0.024  0.00  0.00    +0.050 A 
ATOM     26  C   LIG    1       -1.240   3.155   0.031  0.00  0.00    -0.080 A 
BRANCH  21  28
ATOM     27  N   LIG    1       -3.442   0.454   0.021  0.00  0.00    -0.350 NA
ATOM     28  C   LIG    1       -2.463   1.031   0.019  0.00  0.00    +0.210 C 
ENDBRANCH  21  28
ENDBRANCH  20  26
ENDBRANCH   1  20
TORSDOF 4
