REMARK  Name = ZINCvU0000000Hli.0
REMARK                            x       y       z     vdW  Elec       q    Type
REMARK                         _______ _______ _______ _____ _____    ______ ____
ROOT
ATOM      1  C   LIG    1       -2.741   1.068   0.022  0.00  0.00    +0.030 C 
ATOM      2  C   LIG    1       -2.672   0.269   1.325  0.00  0.00    +0.110 C 
ENDROOT
BRANCH   1   3
ATOM      3  C   LIG    1       -4.091   1.728  -0.091  0.00  0.00    +0.540 C 
ATOM      4  N   LIG    1       -5.157   1.017  -0.510  0.00  0.00    -0.610 N 
ATOM      5  H   LIG    1       -5.054   0.080  -0.739  0.00  0.00    +0.430 HD
ATOM      6  O   LIG    1       -4.220   2.900   0.195  0.00  0.00    -0.480 OA
BRANCH   4   7
ATOM      7  C   LIG    1       -6.401   1.625  -0.615  0.00  0.00    +0.270 A 
ATOM      8  N   LIG    1       -7.490   1.042  -1.010  0.00  0.00    -0.490 NA
ATOM      9  C   LIG    1       -8.590   1.780  -1.045  0.00  0.00    +0.130 A 
ATOM     10  C   LIG    1       -8.436   3.063  -0.669  0.00  0.00    -0.110 A 
ATOM     11  S   LIG    1       -6.745   3.311  -0.238  0.00  0.00    +0.210 S 
BRANCH   9  12
ATOM     12  C   LIG    1       -9.900   1.232  -1.473  0.00  0.00    -0.020 A 
ATOM     13  C   LIG    1      -11.028   2.050  -1.492  0.00  0.00    +0.020 A 
ATOM     14  C   LIG    1      -12.243   1.536  -1.896  0.00  0.00    +0.010 A 
ATOM     15  C   LIG    1      -12.345   0.208  -2.272  0.00  0.00    +0.010 A 
ATOM     16  C   LIG    1      -11.229  -0.609  -2.251  0.00  0.00    +0.010 A 
ATOM     17  C   LIG    1      -10.008  -0.104  -1.854  0.00  0.00    +0.040 A 
ENDBRANCH   9  12
ENDBRANCH   4   7
ENDBRANCH   1   3
BRANCH   1  18
ATOM     18  S   LIG    1       -1.449   2.335   0.022  0.00  0.00    +0.090 S 
BRANCH  18  20
ATOM     19  N   LIG    1        1.284   1.734  -0.001  0.00  0.00    -0.450 N 
ATOM     20  C   LIG    1       -0.016   1.310   0.009  0.00  0.00    +0.150 A 
ATOM     21  N   LIG    1        0.002  -0.004   0.002  0.00  0.00    -0.280 NA
ATOM     22  N   LIG    1        1.214  -0.430  -0.012  0.00  0.00    -0.250 NA
ATOM     23  C   LIG    1        2.048   0.587  -0.014  0.00  0.00    +0.270 A 
BRANCH  23  24
ATOM     24  C   LIG    1        3.517   0.515  -0.028  0.00  0.00    +0.030 A 
ATOM     25  C   LIG    1        4.261  -0.589  -0.321  0.00  0.00    +0.030 A 
ATOM     26  C   LIG    1        5.612  -0.206  -0.216  0.00  0.00    -0.050 A 
ATOM     27  C   LIG    1        5.629   1.094   0.139  0.00  0.00    +0.190 A 
ATOM     28  O   LIG    1        4.362   1.527   0.251  0.00  0.00    -0.170 OA
ENDBRANCH  23  24
BRANCH  19  29
ATOM     29  C   LIG    1        1.764   3.118   0.002  0.00  0.00    +0.310 C 
BRANCH  29  31
ATOM     30  C   LIG    1        3.055   2.777   2.114  0.00  0.00    +0.030 C 
ATOM     31  C   LIG    1        1.945   3.591   1.445  0.00  0.00    -0.030 C 
ATOM     32  C   LIG    1        2.326   5.073   1.452  0.00  0.00    +0.050 C 
ENDBRANCH  29  31
ENDBRANCH  19  29
ENDBRANCH  18  20
ENDBRANCH   1  18
TORSDOF 8
