REMARK  Name = ZINCvU0000000Ie1.0
REMARK                            x       y       z     vdW  Elec       q    Type
REMARK                         _______ _______ _______ _____ _____    ______ ____
ROOT
ATOM      1  N   LIG    1        2.011  -0.819  -1.508  0.00  0.00    -0.610 N 
ATOM      2  C   LIG    1        2.134   0.276  -2.284  0.00  0.00    +0.740 C 
ATOM      3  N   LIG    1        3.111   1.171  -2.037  0.00  0.00    -0.610 N 
ATOM      4  O   LIG    1        1.363   0.456  -3.207  0.00  0.00    -0.510 OA
ENDROOT
BRANCH   1   5
ATOM      5  C   LIG    1        1.577  -0.694  -0.184  0.00  0.00    +0.220 A 
ATOM      6  C   LIG    1        0.911  -1.745   0.432  0.00  0.00    +0.000 A 
ATOM      7  C   LIG    1        0.486  -1.620   1.742  0.00  0.00    +0.010 A 
ATOM      8  C   LIG    1        0.715  -0.445   2.436  0.00  0.00    +0.000 A 
ATOM      9  C   LIG    1        1.374   0.606   1.822  0.00  0.00    +0.010 A 
ATOM     10 CL   LIG    1        1.659   2.079   2.696  0.00  0.00    -0.040 Cl
ATOM     11 CL   LIG    1       -0.342  -2.936   2.515  0.00  0.00    -0.050 Cl
ATOM     12  C   LIG    1        1.805   0.485   0.514  0.00  0.00    -0.040 A 
ENDBRANCH   1   5
BRANCH   1  13
ATOM     13  C   LIG    1        2.333  -2.141  -2.051  0.00  0.00    +0.330 C 
BRANCH  13  14
ATOM     14  C   LIG    1        3.812  -2.447  -1.806  0.00  0.00    +0.160 C 
BRANCH  14  16
ATOM     15  C   LIG    1        5.410  -2.831  -0.061  0.00  0.00    +0.200 C 
ATOM     16  O   LIG    1        4.052  -2.547  -0.401  0.00  0.00    -0.380 OA
ENDBRANCH  14  16
ENDBRANCH  13  14
ENDBRANCH   1  13
BRANCH   3  17
ATOM     17  C   LIG    1        3.713   1.248  -0.704  0.00  0.00    +0.350 C 
BRANCH  17  18
ATOM     18  C   LIG    1        3.394   2.584  -0.085  0.00  0.00    +0.050 A 
ATOM     19  C   LIG    1        2.569   3.525  -0.599  0.00  0.00    -0.100 A 
ATOM     20  C   LIG    1        2.554   4.613   0.280  0.00  0.00    +0.230 A 
ATOM     21  N   LIG    1        3.336   4.331   1.291  0.00  0.00    -0.270 NA
ATOM     22  N   LIG    1        3.880   3.057   1.082  0.00  0.00    -0.350 N 
ATOM     23  C   LIG    1        4.813   2.361   1.972  0.00  0.00    +0.350 C 
ENDBRANCH  17  18
ENDBRANCH   3  17
BRANCH   3  24
ATOM     24  C   LIG    1        3.569   2.067  -3.102  0.00  0.00    +0.370 C 
BRANCH  24  25
ATOM     25  C   LIG    1        4.702   1.416  -3.852  0.00  0.00    -0.100 A 
ATOM     26  C   LIG    1        6.008   1.617  -3.445  0.00  0.00    +0.040 A 
ATOM     27  C   LIG    1        7.047   1.016  -4.130  0.00  0.00    +0.020 A 
ATOM     28  C   LIG    1        6.782   0.222  -5.230  0.00  0.00    +0.050 A 
ATOM     29  C   LIG    1        5.476   0.025  -5.641  0.00  0.00    -0.090 A 
ATOM     30 BR   LIG    1        5.113  -1.062  -7.146  0.00  0.00    -0.050 Br
ATOM     31  C   LIG    1        4.436   0.622  -4.952  0.00  0.00    +0.070 A 
ENDBRANCH  24  25
ENDBRANCH   3  24
TORSDOF 8
