REMARK  Name = ZINCrD0000071ETJ.0
REMARK                            x       y       z     vdW  Elec       q    Type
REMARK                         _______ _______ _______ _____ _____    ______ ____
ROOT
ATOM      1  C   LIG    1        4.851   1.983  -3.489  0.00  0.00    +0.130 A 
ATOM      2  C   LIG    1        3.602   2.394  -3.044  0.00  0.00    -0.040 A 
ATOM      3  C   LIG    1        3.179   2.071  -1.773  0.00  0.00    +0.040 A 
ATOM      4  C   LIG    1        4.008   1.329  -0.928  0.00  0.00    -0.130 A 
ATOM      5  C   LIG    1        5.269   0.921  -1.374  0.00  0.00    +0.020 A 
ATOM      6  C   LIG    1        5.684   1.243  -2.651  0.00  0.00    +0.100 A 
ENDROOT
BRANCH   4   7
ATOM      7  C   LIG    1        3.557   0.982   0.434  0.00  0.00    +0.560 C 
ATOM      8  N   LIG    1        2.338   0.438   0.622  0.00  0.00    -0.600 N 
ATOM      9  C   LIG    1        1.447   0.278  -0.544  0.00  0.00    +0.260 C 
ATOM     10  C   LIG    1        0.721  -1.079  -0.538  0.00  0.00    +0.030 C 
ATOM     11  C   LIG    1        1.664  -2.170  -0.094  0.00  0.00    +0.070 C 
ATOM     12  C   LIG    1        1.554  -2.351   1.417  0.00  0.00    -0.420 C 
ATOM     13  C   LIG    1        2.394  -1.432   2.200  0.00  0.00    +0.040 C 
ATOM     14  C   LIG    1        1.958   0.034   1.957  0.00  0.00    +0.300 C 
ATOM     15  O   LIG    1        4.285   1.188   1.386  0.00  0.00    -0.530 OA
BRANCH  12  16
ATOM     16  S   LIG    1        2.024  -4.054   1.829  0.00  0.00    +2.410 S 
ATOM     17  O   LIG    1        3.399  -4.231   1.518  0.00  0.00    -0.930 OA
ATOM     18  O   LIG    1        1.065  -4.938   1.263  0.00  0.00    -0.940 OA
ATOM     19  C   LIG    1        1.831  -4.070   3.632  0.00  0.00    -0.270 C 
ENDBRANCH  12  16
ENDBRANCH   4   7
BRANCH   1  20
ATOM     20  O   LIG    1        5.263   2.304  -4.742  0.00  0.00    -0.300 OA
BRANCH  20  21
ATOM     21  C   LIG    1        4.359   3.064  -5.548  0.00  0.00    +0.180 C 
BRANCH  21  23
ATOM     22  C   LIG    1        4.026   4.141  -7.777  0.00  0.00    +0.040 C 
ATOM     23  C   LIG    1        4.993   3.326  -6.915  0.00  0.00    +0.020 C 
ENDBRANCH  21  23
ENDBRANCH  20  21
ENDBRANCH   1  20
BRANCH   6  24
ATOM     24  O   LIG    1        6.908   0.843  -3.089  0.00  0.00    -0.300 OA
BRANCH  24  25
ATOM     25  C   LIG    1        7.709   0.088  -2.178  0.00  0.00    +0.170 C 
BRANCH  25  26
ATOM     26  C   LIG    1        9.039  -0.269  -2.843  0.00  0.00    +0.020 C 
ATOM     27  C   LIG    1        9.897  -1.077  -1.867  0.00  0.00    +0.040 C 
ENDBRANCH  25  26
ENDBRANCH  24  25
ENDBRANCH   6  24
TORSDOF 8
