REMARK  Name = ZINCrD000000fOe9.0
REMARK                            x       y       z     vdW  Elec       q    Type
REMARK                         _______ _______ _______ _____ _____    ______ ____
ROOT
ATOM      1  C   LIG    1       -1.437   1.854   0.356  0.00  0.00    +0.590 C 
ATOM      2  N   LIG    1       -0.219   1.325   0.584  0.00  0.00    -0.620 N 
ATOM      3  C   LIG    1        0.965   2.187   0.722  0.00  0.00    +0.300 C 
ATOM      4  C   LIG    1        1.702   1.799   2.008  0.00  0.00    +0.170 C 
ATOM      5  N   LIG    1        1.982   0.357   1.991  0.00  0.00    -0.530 NA
ATOM      6  C   LIG    1        0.740  -0.427   1.981  0.00  0.00    +0.170 C 
ATOM      7  C   LIG    1       -0.037  -0.130   0.694  0.00  0.00    +0.260 C 
ATOM      8  O   LIG    1       -1.588   3.062   0.369  0.00  0.00    -0.520 OA
ENDROOT
BRANCH   1  13
ATOM      9  C   LIG    1       -4.655   0.172  -0.129  0.00  0.00    -0.270 A 
ATOM     10  C   LIG    1       -3.753  -0.824  -0.469  0.00  0.00    +0.280 A 
ATOM     11  N   LIG    1       -2.512  -0.333  -0.340  0.00  0.00    -0.530 N 
ATOM     12  H   LIG    1       -1.694  -0.821  -0.520  0.00  0.00    +0.430 HD
ATOM     13  C   LIG    1       -2.583   0.974   0.092  0.00  0.00    -0.060 A 
ATOM     14  C   LIG    1       -3.896   1.312   0.227  0.00  0.00    +0.110 A 
BRANCH   9  16
ATOM     15  C   LIG    1       -6.776  -1.228  -0.542  0.00  0.00    +0.060 C 
ATOM     16  C   LIG    1       -6.117   0.065  -0.135  0.00  0.00    +0.420 C 
ATOM     17  O   LIG    1       -6.797   1.017   0.187  0.00  0.00    -0.460 OA
ENDBRANCH   9  16
ENDBRANCH   1  13
BRANCH   5  18
ATOM     18  C   LIG    1        2.837  -0.026   3.123  0.00  0.00    +0.230 C 
BRANCH  18  19
ATOM     19  C   LIG    1        4.046   0.873   3.166  0.00  0.00    -0.070 A 
ATOM     20  C   LIG    1        4.146   1.839   4.119  0.00  0.00    +0.010 A 
ATOM     21  C   LIG    1        5.258   2.677   4.178  0.00  0.00    +0.000 A 
ATOM     22  C   LIG    1        6.272   2.559   3.278  0.00  0.00    +0.030 A 
ATOM     23  C   LIG    1        6.202   1.576   2.276  0.00  0.00    -0.050 A 
ATOM     24  C   LIG    1        7.229   1.425   1.329  0.00  0.00    +0.020 A 
ATOM     25  C   LIG    1        7.127   0.462   0.373  0.00  0.00    +0.010 A 
ATOM     26  C   LIG    1        6.017  -0.379   0.317  0.00  0.00    +0.000 A 
ATOM     27  C   LIG    1        5.003  -0.262   1.217  0.00  0.00    +0.040 A 
ATOM     28  C   LIG    1        5.073   0.721   2.219  0.00  0.00    -0.030 A 
ENDBRANCH  18  19
ENDBRANCH   5  18
TORSDOF 4
