REMARK  Name = ZINCpe00000TpfsH.0
REMARK                            x       y       z     vdW  Elec       q    Type
REMARK                         _______ _______ _______ _____ _____    ______ ____
ROOT
ATOM      1  N   LIG    1        0.670   6.539   4.743  0.00  0.00    -0.490 N 
ATOM      2  C   LIG    1        0.816   7.578   3.725  0.00  0.00    +0.220 C 
ATOM      3  C   LIG    1        2.266   8.002   3.655  0.00  0.00    +0.050 C 
ATOM      4  C   LIG    1        3.002   7.169   2.586  0.00  0.00    +0.270 C 
ATOM      5  N   LIG    1        2.564   5.760   2.616  0.00  0.00    -0.610 N 
ATOM      6  C   LIG    1        2.355   5.035   3.853  0.00  0.00    +0.290 C 
ATOM      7  C   LIG    1        2.355   5.121   1.447  0.00  0.00    +0.510 C 
ATOM      8  O   LIG    1        2.522   5.706   0.398  0.00  0.00    -0.540 OA
ATOM      9  C   LIG    1        0.889   5.208   4.317  0.00  0.00    +0.190 C 
ENDROOT
BRANCH   1  14
ATOM     10  C   LIG    1       -2.829   6.377   5.388  0.00  0.00    +0.370 A 
ATOM     11  C   LIG    1       -2.885   6.888   6.684  0.00  0.00    -0.090 A 
ATOM     12  C   LIG    1       -1.705   7.273   7.292  0.00  0.00    +0.360 A 
ATOM     13  N   LIG    1       -0.564   7.146   6.632  0.00  0.00    -0.520 NA
ATOM     14  C   LIG    1       -0.542   6.656   5.401  0.00  0.00    +0.530 A 
ATOM     15  N   LIG    1       -1.652   6.281   4.783  0.00  0.00    -0.600 NA
BRANCH  10  17
ATOM     16  C   LIG    1       -3.819   5.474   3.428  0.00  0.00    +0.260 C 
ATOM     17  O   LIG    1       -3.962   5.987   4.754  0.00  0.00    -0.300 OA
ENDBRANCH  10  17
ENDBRANCH   1  14
BRANCH   7  18
ATOM     18  C   LIG    1        1.913   3.680   1.445  0.00  0.00    +0.050 C 
BRANCH  18  19
ATOM     19  C   LIG    1        1.749   3.200   0.002  0.00  0.00    +0.140 C 
BRANCH  19  20
ATOM     20  C   LIG    1        1.307   1.759  -0.001  0.00  0.00    -0.240 A 
ATOM     21  C   LIG    1        2.119   0.677  -0.015  0.00  0.00    +0.230 A 
ATOM     22  N   LIG    1        1.339  -0.424  -0.013  0.00  0.00    -0.380 N 
ATOM     23  N   LIG    1        0.002  -0.004   0.002  0.00  0.00    -0.300 NA
ATOM     24  C   LIG    1        1.806  -1.812  -0.025  0.00  0.00    +0.360 C 
ATOM     25  C   LIG    1       -0.016   1.304   0.009  0.00  0.00    +0.230 A 
ENDBRANCH  19  20
ENDBRANCH  18  19
ENDBRANCH   7  18
TORSDOF 5
