REMARK  Name = ZINCpe00000MC65s.0
REMARK                            x       y       z     vdW  Elec       q    Type
REMARK                         _______ _______ _______ _____ _____    ______ ____
ROOT
ATOM      1  C   LIG    1        1.492  -3.421   3.102  0.00  0.00    +0.520 C 
ATOM      2  N   LIG    1        1.835  -2.486   2.193  0.00  0.00    -0.610 N 
ATOM      3  C   LIG    1        3.191  -1.915   2.168  0.00  0.00    +0.280 C 
ATOM      4  C   LIG    1        3.072  -0.387   2.150  0.00  0.00    +0.240 C 
ATOM      5  O   LIG    1        2.199   0.004   1.088  0.00  0.00    -0.380 OA
ATOM      6  C   LIG    1        0.858  -0.474   1.226  0.00  0.00    +0.140 C 
ATOM      7  C   LIG    1        0.864  -2.007   1.196  0.00  0.00    +0.280 C 
ATOM      8  O   LIG    1        2.326  -3.861   3.864  0.00  0.00    -0.500 OA
ENDROOT
BRANCH   1  10
ATOM      9  C   LIG    1       -0.230  -4.773   1.938  0.00  0.00    +0.060 C 
ATOM     10  C   LIG    1        0.071  -3.919   3.171  0.00  0.00    +0.170 C 
BRANCH  10  11
ATOM     11  O   LIG    1       -0.100  -4.708   4.350  0.00  0.00    -0.280 OA
BRANCH  11  12
ATOM     12  C   LIG    1       -1.359  -4.801   4.853  0.00  0.00    +0.160 A 
ATOM     13  C   LIG    1       -2.424  -4.232   4.169  0.00  0.00    -0.100 A 
ATOM     14  C   LIG    1       -3.704  -4.332   4.678  0.00  0.00    +0.090 A 
ATOM     15  C   LIG    1       -3.925  -4.987   5.875  0.00  0.00    -0.050 A 
ATOM     16  C   LIG    1       -2.863  -5.552   6.563  0.00  0.00    +0.150 A 
ATOM     17  F   LIG    1       -3.081  -6.192   7.732  0.00  0.00    -0.130 F 
ATOM     18  C   LIG    1       -1.581  -5.459   6.053  0.00  0.00    -0.030 A 
ENDBRANCH  11  12
ENDBRANCH  10  11
ENDBRANCH   1  10
BRANCH   6  19
ATOM     19  C   LIG    1        0.005   0.056   0.072  0.00  0.00    +0.280 C 
BRANCH  19  20
ATOM     20  N   LIG    1        0.001   1.525   0.101  0.00  0.00    -0.360 N 
ATOM     21  C   LIG    1       -0.669   1.988   1.324  0.00  0.00    +0.310 C 
ATOM     22  H   LIG    1        0.951   1.865   0.088  0.00  0.00    +0.430 HD
BRANCH  20  23
ATOM     23  C   LIG    1       -0.718   2.036  -1.074  0.00  0.00    +0.160 C 
BRANCH  23  24
ATOM     24  C   LIG    1       -0.618   3.539  -1.110  0.00  0.00    +0.490 C 
ATOM     25  O   LIG    1       -1.150   4.164  -2.011  0.00  0.00    -0.640 OA
ATOM     26  O   LIG    1       -0.005   4.130  -0.237  0.00  0.00    -0.670 OA
ENDBRANCH  23  24
ENDBRANCH  20  23
ENDBRANCH  19  20
ENDBRANCH   6  19
TORSDOF 7
