REMARK  Name = ZINCpe00000MC65s.1
REMARK                            x       y       z     vdW  Elec       q    Type
REMARK                         _______ _______ _______ _____ _____    ______ ____
ROOT
ATOM      1  C   LIG    1        1.375  -3.579   3.060  0.00  0.00    +0.520 C 
ATOM      2  N   LIG    1        1.734  -2.562   2.252  0.00  0.00    -0.620 N 
ATOM      3  C   LIG    1        3.028  -1.882   2.418  0.00  0.00    +0.280 C 
ATOM      4  C   LIG    1        2.777  -0.371   2.472  0.00  0.00    +0.240 C 
ATOM      5  O   LIG    1        1.996   0.019   1.339  0.00  0.00    -0.380 OA
ATOM      6  C   LIG    1        0.697  -0.576   1.292  0.00  0.00    +0.140 C 
ATOM      7  C   LIG    1        0.842  -2.098   1.177  0.00  0.00    +0.280 C 
ATOM      8  O   LIG    1        2.160  -4.007   3.880  0.00  0.00    -0.500 OA
ENDROOT
BRANCH   1  10
ATOM      9  C   LIG    1       -0.100  -4.980   1.644  0.00  0.00    +0.060 C 
ATOM     10  C   LIG    1       -0.000  -4.183   2.946  0.00  0.00    +0.170 C 
BRANCH  10  11
ATOM     11  O   LIG    1       -0.232  -5.053   4.056  0.00  0.00    -0.280 OA
BRANCH  11  12
ATOM     12  C   LIG    1       -1.526  -5.269   4.410  0.00  0.00    +0.160 A 
ATOM     13  C   LIG    1       -2.554  -4.745   3.640  0.00  0.00    -0.100 A 
ATOM     14  C   LIG    1       -3.870  -4.970   3.999  0.00  0.00    +0.090 A 
ATOM     15  C   LIG    1       -4.163  -5.707   5.131  0.00  0.00    -0.050 A 
ATOM     16  C   LIG    1       -3.139  -6.227   5.905  0.00  0.00    +0.140 A 
ATOM     17  F   LIG    1       -3.427  -6.947   7.011  0.00  0.00    -0.130 F 
ATOM     18  C   LIG    1       -1.821  -6.009   5.546  0.00  0.00    -0.030 A 
ENDBRANCH  11  12
ENDBRANCH  10  11
ENDBRANCH   1  10
BRANCH   6  19
ATOM     19  C   LIG    1       -0.065  -0.042   0.077  0.00  0.00    +0.270 C 
BRANCH  19  20
ATOM     20  N   LIG    1       -0.173   1.420   0.171  0.00  0.00    -0.360 N 
ATOM     21  C   LIG    1       -0.780   1.946  -1.059  0.00  0.00    +0.320 C 
ATOM     22  H   LIG    1        0.747   1.819   0.289  0.00  0.00    +0.430 HD
BRANCH  20  23
ATOM     23  C   LIG    1       -1.012   1.776   1.323  0.00  0.00    +0.150 C 
BRANCH  23  24
ATOM     24  C   LIG    1       -1.023   3.274   1.492  0.00  0.00    +0.490 C 
ATOM     25  O   LIG    1       -1.665   3.780   2.397  0.00  0.00    -0.640 OA
ATOM     26  O   LIG    1       -0.390   3.979   0.725  0.00  0.00    -0.670 OA
ENDBRANCH  23  24
ENDBRANCH  20  23
ENDBRANCH  19  20
ENDBRANCH   6  19
TORSDOF 7
