REMARK  Name = ZINCrg00001JduXA.0
REMARK                            x       y       z     vdW  Elec       q    Type
REMARK                         _______ _______ _______ _____ _____    ______ ____
ROOT
ATOM      1  C   LIG    1       -1.262  -0.757   0.010  0.00  0.00    +0.580 C 
ATOM      2  N   LIG    1       -1.243  -2.104   0.003  0.00  0.00    -0.620 N 
ATOM      3  C   LIG    1       -0.064  -2.976  -0.020  0.00  0.00    +0.340 C 
ATOM      4  C   LIG    1       -0.561  -4.405  -0.016  0.00  0.00    -0.160 C 
ATOM      5  C   LIG    1       -1.863  -4.423  -0.004  0.00  0.00    -0.170 C 
ATOM      6  C   LIG    1       -2.361  -5.852  -0.007  0.00  0.00    +0.330 C 
ATOM      7  N   LIG    1       -1.181  -6.724  -0.023  0.00  0.00    -0.610 N 
ATOM      8  C   LIG    1       -1.163  -8.072  -0.030  0.00  0.00    +0.580 C 
ATOM      9  O   LIG    1       -0.104  -8.664  -0.044  0.00  0.00    -0.500 OA
ATOM     10  C   LIG    1       -0.025  -5.820  -0.029  0.00  0.00    +0.350 C 
ATOM     11  C   LIG    1       -2.399  -3.008   0.009  0.00  0.00    +0.350 C 
ATOM     12  O   LIG    1       -2.323  -0.163   0.023  0.00  0.00    -0.530 OA
ENDROOT
BRANCH   8  13
ATOM     13  C   LIG    1       -2.457  -8.843  -0.022  0.00  0.00    -0.410 C 
ATOM     14  C   LIG    1       -2.300 -10.186   0.721  0.00  0.00    +0.180 C 
ATOM     15  C   LIG    1       -1.883 -11.278  -0.230  0.00  0.00    -0.150 A 
ATOM     16  C   LIG    1       -1.294 -12.506  -0.176  0.00  0.00    +0.210 A 
ATOM     17  N   LIG    1       -1.211 -13.004  -1.440  0.00  0.00    -0.540 N 
ATOM     18  H   LIG    1       -0.838 -13.866  -1.684  0.00  0.00    +0.430 HD
ATOM     19  C   LIG    1       -1.740 -12.093  -2.305  0.00  0.00    +0.330 A 
ATOM     20  C   LIG    1       -2.148 -11.032  -1.590  0.00  0.00    -0.710 A 
ATOM     21  S   LIG    1       -2.891  -9.424  -1.708  0.00  0.00    +2.520 S 
ATOM     22  O   LIG    1       -2.149  -8.735  -2.704  0.00  0.00    -0.920 OA
ATOM     23  O   LIG    1       -4.287  -9.660  -1.835  0.00  0.00    -0.920 OA
ENDBRANCH   8  13
BRANCH   1  25
ATOM     24  C   LIG    1       -0.016   1.326   0.009  0.00  0.00    +0.080 C 
ATOM     25  C   LIG    1        0.002  -0.004   0.002  0.00  0.00    -0.090 C 
BRANCH  24  26
ATOM     26  C   LIG    1        1.279   2.097   0.001  0.00  0.00    +0.060 C 
BRANCH  26  28
ATOM     27  C   LIG    1        2.597   3.858  -1.184  0.00  0.00    +0.030 C 
ATOM     28  C   LIG    1        1.282   3.075  -1.175  0.00  0.00    +0.020 C 
ENDBRANCH  26  28
ENDBRANCH  24  26
ENDBRANCH   1  25
TORSDOF 4
