REMARK  Name = ZINCpk00001AZjbi.2
REMARK                            x       y       z     vdW  Elec       q    Type
REMARK                         _______ _______ _______ _____ _____    ______ ____
ROOT
ATOM      1  C   LIG    1        5.959   2.272   0.334  0.00  0.00    -0.010 C 
ATOM      2  C   LIG    1        6.013   3.114  -0.944  0.00  0.00    +0.010 C 
ATOM      3  C   LIG    1        4.644   3.760  -1.179  0.00  0.00    +0.030 C 
ATOM      4  C   LIG    1        3.578   2.666  -1.268  0.00  0.00    +0.170 C 
ATOM      5  N   LIG    1        3.565   1.890  -0.022  0.00  0.00    -0.520 NA
ATOM      6  C   LIG    1        4.854   1.222   0.200  0.00  0.00    +0.190 C 
ENDROOT
BRANCH   1   7
ATOM      7  C   LIG    1        7.304   1.575   0.544  0.00  0.00    +0.330 C 
BRANCH   7  11
ATOM      8  C   LIG    1       10.411   4.768   2.849  0.00  0.00    +0.190 C 
ATOM      9  C   LIG    1        9.685   3.963   1.803  0.00  0.00    +0.220 A 
ATOM     10  N   LIG    1        8.734   3.097   2.036  0.00  0.00    -0.320 NA
ATOM     11  N   LIG    1        8.341   2.580   0.790  0.00  0.00    -0.370 N 
ATOM     12  C   LIG    1        9.111   3.186  -0.130  0.00  0.00    +0.280 A 
ATOM     13  C   LIG    1        9.061   2.953  -1.618  0.00  0.00    +0.190 C 
ATOM     14  N   LIG    1        9.909   4.017   0.491  0.00  0.00    -0.540 NA
ENDBRANCH   7  11
ENDBRANCH   1   7
BRANCH   5  15
ATOM     15  C   LIG    1        2.462   0.920  -0.017  0.00  0.00    +0.220 C 
BRANCH  15  16
ATOM     16  C   LIG    1        1.147   1.655   0.000  0.00  0.00    +0.510 C 
ATOM     17  N   LIG    1       -0.011   0.966   0.007  0.00  0.00    -0.720 N 
ATOM     18  H   LIG    1        0.002  -0.004   0.002  0.00  0.00    +0.410 HD
ATOM     19  O   LIG    1        1.130   2.868   0.007  0.00  0.00    -0.500 OA
BRANCH  17  20
ATOM     20  C   LIG    1       -1.290   1.681   0.017  0.00  0.00    +0.310 C 
ATOM     21  C   LIG    1       -1.377   2.553   1.272  0.00  0.00    +0.080 C 
BRANCH  20  22
ATOM     22  C   LIG    1       -2.439   0.671   0.017  0.00  0.00    -0.040 C 
ATOM     23  C   LIG    1       -3.372   0.662  -1.196  0.00  0.00    +0.030 C 
ATOM     24  C   LIG    1       -3.862   1.220   0.143  0.00  0.00    +0.050 C 
ENDBRANCH  20  22
BRANCH  20  25
ATOM     25  C   LIG    1       -1.385   2.533  -1.179  0.00  0.00    +0.200 C 
ATOM     26  N   LIG    1       -1.458   3.190  -2.103  0.00  0.00    -0.410 NA
ENDBRANCH  20  25
ENDBRANCH  17  20
ENDBRANCH  15  16
ENDBRANCH   5  15
TORSDOF 7
