REMARK  Name = ZINCqH0000007loj.0
REMARK                            x       y       z     vdW  Elec       q    Type
REMARK                         _______ _______ _______ _____ _____    ______ ____
ROOT
ATOM      1  C   LIG    1       -3.737   1.590  -0.093  0.00  0.00    +0.180 C 
ATOM      2  C   LIG    1       -4.742   0.683  -0.834  0.00  0.00    +0.030 C 
ATOM      3  C   LIG    1       -3.915  -0.023  -1.928  0.00  0.00    +0.020 C 
ATOM      4  C   LIG    1       -2.479   0.517  -1.756  0.00  0.00    +0.160 C 
ATOM      5  N   LIG    1       -2.413   0.962  -0.340  0.00  0.00    -0.490 NA
ENDROOT
BRANCH   1  10
ATOM      6  C   LIG    1       -3.654   0.783   3.598  0.00  0.00    +0.090 A 
ATOM      7  C   LIG    1       -4.601   1.664   4.096  0.00  0.00    -0.040 A 
ATOM      8  C   LIG    1       -5.267   2.520   3.240  0.00  0.00    -0.040 A 
ATOM      9  C   LIG    1       -4.987   2.498   1.881  0.00  0.00    +0.100 A 
ATOM     10  C   LIG    1       -4.040   1.616   1.383  0.00  0.00    -0.070 A 
ATOM     11  C   LIG    1       -3.378   0.756   2.238  0.00  0.00    +0.060 A 
BRANCH   6  13
ATOM     12  C   LIG    1       -3.337   0.018   5.827  0.00  0.00    +0.230 C 
ATOM     13  O   LIG    1       -2.999  -0.060   4.441  0.00  0.00    -0.320 OA
ENDBRANCH   6  13
BRANCH   9  14
ATOM     14  O   LIG    1       -5.642   3.340   1.038  0.00  0.00    -0.320 OA
ATOM     15  C   LIG    1       -6.604   4.222   1.621  0.00  0.00    +0.230 C 
ENDBRANCH   9  14
ENDBRANCH   1  10
BRANCH   5  16
ATOM     16  C   LIG    1       -1.326   1.929  -0.142  0.00  0.00    +0.210 C 
BRANCH  16  17
ATOM     17  C   LIG    1       -0.003   1.208  -0.157  0.00  0.00    +0.520 C 
ATOM     18  N   LIG    1        1.143   1.898   0.001  0.00  0.00    -0.680 N 
ATOM     19  H   LIG    1        1.123   2.867   0.053  0.00  0.00    +0.410 HD
ATOM     20  O   LIG    1        0.031   0.006  -0.318  0.00  0.00    -0.500 OA
BRANCH  18  21
ATOM     21  C   LIG    1        2.363   1.219   0.092  0.00  0.00    +0.140 A 
ATOM     22  C   LIG    1        2.421  -0.031   0.696  0.00  0.00    +0.020 A 
ATOM     23  C   LIG    1        3.625  -0.702   0.777  0.00  0.00    +0.030 A 
ATOM     24  C   LIG    1        4.775  -0.126   0.270  0.00  0.00    -0.100 A 
ATOM     25  C   LIG    1        4.722   1.121  -0.327  0.00  0.00    +0.030 A 
ATOM     26  C   LIG    1        6.089  -0.858   0.366  0.00  0.00    +0.100 C 
ATOM     27  C   LIG    1        3.520   1.794  -0.417  0.00  0.00    -0.020 A 
ENDBRANCH  18  21
ENDBRANCH  16  17
ENDBRANCH   5  16
TORSDOF 6
