REMARK  Name = ZINCpk00000e9gLG.0
REMARK                            x       y       z     vdW  Elec       q    Type
REMARK                         _______ _______ _______ _____ _____    ______ ____
ROOT
ATOM      1  C   LIG    1       -0.013   1.086   0.008  0.00  0.00    +0.270 C 
ENDROOT
BRANCH   1   3
ATOM      2  N   LIG    1       -0.288   1.272  -2.443  0.00  0.00    -0.600 N 
ATOM      3  C   LIG    1       -0.742   1.585  -1.213  0.00  0.00    +0.520 C 
ATOM      4  O   LIG    1       -1.736   2.268  -1.088  0.00  0.00    -0.500 OA
BRANCH   2   5
ATOM      5  C   LIG    1       -0.997   1.758  -3.630  0.00  0.00    +0.280 C 
ATOM      6  C   LIG    1       -2.450   1.250  -3.609  0.00  0.00    +0.070 C 
ATOM      7  C   LIG    1       -3.217   2.054  -4.689  0.00  0.00    -0.300 C 
ATOM      8  S   LIG    1       -2.591   3.758  -4.434  0.00  0.00    +2.400 S 
ATOM      9  O   LIG    1       -2.320   4.357  -5.694  0.00  0.00    -0.940 OA
ATOM     10  O   LIG    1       -3.422   4.428  -3.496  0.00  0.00    -0.920 OA
ATOM     11  C   LIG    1       -1.014   3.299  -3.629  0.00  0.00    -0.330 C 
ENDBRANCH   2   5
BRANCH   2  13
ATOM     12  C   LIG    1        0.514  -1.029  -2.644  0.00  0.00    +0.020 C 
ATOM     13  C   LIG    1        0.913   0.447  -2.593  0.00  0.00    +0.280 C 
ENDBRANCH   2  13
ENDBRANCH   1   3
BRANCH   1  14
ATOM     14  O   LIG    1       -0.692   1.554   1.203  0.00  0.00    -0.320 OA
BRANCH  14  15
ATOM     15  C   LIG    1       -0.164   1.193   2.388  0.00  0.00    +0.520 C 
ATOM     16  O   LIG    1        0.837   0.505   2.423  0.00  0.00    -0.500 OA
BRANCH  15  17
ATOM     17  C   LIG    1       -0.801   1.632   3.644  0.00  0.00    -0.110 A 
ATOM     18  C   LIG    1       -1.953   2.430   3.607  0.00  0.00    +0.110 A 
ATOM     19  C   LIG    1       -2.550   2.836   4.757  0.00  0.00    +0.080 A 
ATOM     20  C   LIG    1       -2.017   2.471   6.012  0.00  0.00    +0.120 A 
ATOM     21  N   LIG    1       -2.454   2.772   7.247  0.00  0.00    -0.470 NA
ATOM     22  C   LIG    1       -1.792   2.318   8.245  0.00  0.00    +0.290 A 
ATOM     23  S   LIG    1       -0.449   1.395   7.738  0.00  0.00    +0.130 S 
ATOM     24  C   LIG    1       -0.862   1.677   6.049  0.00  0.00    -0.210 A 
ATOM     25  C   LIG    1       -0.257   1.260   4.871  0.00  0.00    +0.160 A 
ENDBRANCH  15  17
ENDBRANCH  14  15
ENDBRANCH   1  14
TORSDOF 6
