REMARK  Name = ZINCkj000005mifc.1
REMARK                            x       y       z     vdW  Elec       q    Type
REMARK                         _______ _______ _______ _____ _____    ______ ____
ROOT
ATOM      1  O   LIG    1       -0.187   4.334   5.012  0.00  0.00    -0.490 OA
ATOM      2  C   LIG    1       -0.059   3.938   3.864  0.00  0.00    +0.510 A 
ATOM      3  C   LIG    1        1.108   3.276   3.466  0.00  0.00    -0.120 A 
ATOM      4  C   LIG    1        1.217   2.842   2.159  0.00  0.00    +0.150 A 
ATOM      5  N   LIG    1        0.230   3.059   1.304  0.00  0.00    -0.550 NA
ATOM      6  C   LIG    1       -0.885   3.684   1.677  0.00  0.00    +0.410 A 
ATOM      7  C   LIG    1       -1.913   3.888   0.738  0.00  0.00    +0.050 A 
ATOM      8  C   LIG    1       -3.052   4.531   1.119  0.00  0.00    +0.160 A 
ATOM      9  C   LIG    1       -3.183   4.980   2.442  0.00  0.00    -0.080 A 
ATOM     10  C   LIG    1       -2.184   4.774   3.331  0.00  0.00    +0.310 A 
ATOM     11 CL   LIG    1       -4.630   5.801   2.938  0.00  0.00    +0.000 Cl
ATOM     12  N   LIG    1       -1.042   4.132   2.958  0.00  0.00    -0.420 N 
ENDROOT
BRANCH   4  13
ATOM     13  C   LIG    1        2.464   2.127   1.705  0.00  0.00    +0.360 C 
BRANCH  13  14
ATOM     14  N   LIG    1        2.127   0.748   1.327  0.00  0.00    -0.350 N 
ATOM     15  H   LIG    1        1.387   0.758   0.643  0.00  0.00    +0.420 HD
BRANCH  14  16
ATOM     16  C   LIG    1        3.312   0.093   0.757  0.00  0.00    +0.120 C 
ATOM     17  C   LIG    1        3.952   0.738  -0.474  0.00  0.00    +0.080 C 
ATOM     18  C   LIG    1        3.164  -0.566  -0.615  0.00  0.00    +0.110 C 
ENDBRANCH  14  16
BRANCH  14  19
ATOM     19  C   LIG    1        1.685   0.009   2.517  0.00  0.00    +0.270 C 
BRANCH  19  20
ATOM     20  C   LIG    1        1.216  -1.388   2.105  0.00  0.00    +0.210 C 
BRANCH  20  21
ATOM     21  O   LIG    1        2.324  -2.129   1.591  0.00  0.00    -0.570 OA
ATOM     22  H   LIG    1        2.100  -3.027   1.309  0.00  0.00    +0.400 HD
ENDBRANCH  20  21
ENDBRANCH  19  20
ENDBRANCH  14  19
ENDBRANCH  13  14
ENDBRANCH   4  13
TORSDOF 6
