REMARK  Name = ZINCkj000005mifc.0
REMARK                            x       y       z     vdW  Elec       q    Type
REMARK                         _______ _______ _______ _____ _____    ______ ____
ROOT
ATOM      1  O   LIG    1       -3.903   5.901   0.240  0.00  0.00    -0.490 OA
ATOM      2  C   LIG    1       -3.989   4.684   0.188  0.00  0.00    +0.510 A 
ATOM      3  C   LIG    1       -3.468   3.980  -0.904  0.00  0.00    -0.130 A 
ATOM      4  C   LIG    1       -3.584   2.604  -0.929  0.00  0.00    +0.160 A 
ATOM      5  N   LIG    1       -4.186   1.972   0.066  0.00  0.00    -0.550 NA
ATOM      6  C   LIG    1       -4.680   2.634   1.111  0.00  0.00    +0.410 A 
ATOM      7  C   LIG    1       -5.307   1.922   2.150  0.00  0.00    +0.050 A 
ATOM      8  C   LIG    1       -5.817   2.602   3.215  0.00  0.00    +0.160 A 
ATOM      9  C   LIG    1       -5.709   4.000   3.260  0.00  0.00    -0.080 A 
ATOM     10  C   LIG    1       -5.103   4.667   2.252  0.00  0.00    +0.310 A 
ATOM     11 CL   LIG    1       -6.354   4.875   4.614  0.00  0.00    +0.000 Cl
ATOM     12  N   LIG    1       -4.590   3.996   1.183  0.00  0.00    -0.420 N 
ENDROOT
BRANCH   4  13
ATOM     13  C   LIG    1       -3.031   1.823  -2.092  0.00  0.00    +0.350 C 
BRANCH  13  14
ATOM     14  N   LIG    1       -2.044   0.850  -1.605  0.00  0.00    -0.350 N 
ATOM     15  H   LIG    1       -2.433   0.338  -0.826  0.00  0.00    +0.440 HD
BRANCH  14  16
ATOM     16  C   LIG    1       -0.833   1.558  -1.169  0.00  0.00    +0.090 C 
ATOM     17  C   LIG    1       -0.974   2.561  -0.023  0.00  0.00    +0.080 C 
ATOM     18  C   LIG    1       -0.751   3.060  -1.452  0.00  0.00    +0.110 C 
ENDBRANCH  14  16
BRANCH  14  19
ATOM     19  C   LIG    1       -1.704  -0.086  -2.684  0.00  0.00    +0.290 C 
BRANCH  19  20
ATOM     20  C   LIG    1       -0.797  -1.189  -2.136  0.00  0.00    +0.220 C 
BRANCH  20  21
ATOM     21  O   LIG    1       -1.506  -1.942  -1.150  0.00  0.00    -0.580 OA
ATOM     22  H   LIG    1       -0.991  -2.661  -0.758  0.00  0.00    +0.410 HD
ENDBRANCH  20  21
ENDBRANCH  19  20
ENDBRANCH  14  19
ENDBRANCH  13  14
ENDBRANCH   4  13
TORSDOF 6
