REMARK  Name = ZINCpk000000pGXf.0
REMARK                            x       y       z     vdW  Elec       q    Type
REMARK                         _______ _______ _______ _____ _____    ______ ____
ROOT
ATOM      1  C   LIG    1       -4.835   4.190  -1.341  0.00  0.00    +0.000 C 
ATOM      2  C   LIG    1       -3.846   3.323  -0.539  0.00  0.00    +0.260 C 
ATOM      3  N   LIG    1       -3.231   2.377  -1.489  0.00  0.00    -0.630 N 
ATOM      4  C   LIG    1       -4.204   2.221  -2.595  0.00  0.00    +0.280 C 
ATOM      5  C   LIG    1       -2.028   1.781  -1.376  0.00  0.00    +0.540 C 
ATOM      6  O   LIG    1       -1.645   1.020  -2.239  0.00  0.00    -0.510 OA
ATOM      7  C   LIG    1       -4.761   3.650  -2.788  0.00  0.00    +0.130 C 
ENDROOT
BRANCH   7   8
ATOM      8  N   LIG    1       -6.096   3.612  -3.398  0.00  0.00    -0.520 NA
ATOM      9  C   LIG    1       -6.055   2.962  -4.716  0.00  0.00    +0.150 C 
ATOM     10  C   LIG    1       -7.473   2.891  -5.289  0.00  0.00    +0.220 C 
ATOM     11  O   LIG    1       -8.023   4.210  -5.353  0.00  0.00    -0.390 OA
ATOM     12  C   LIG    1       -8.078   4.872  -4.087  0.00  0.00    +0.220 C 
ATOM     13  C   LIG    1       -6.666   4.964  -3.502  0.00  0.00    +0.150 C 
ENDBRANCH   7   8
BRANCH   1  15
ATOM     14  C   LIG    1       -4.539   6.188   0.130  0.00  0.00    +0.030 C 
ATOM     15  C   LIG    1       -4.409   5.659  -1.300  0.00  0.00    +0.010 C 
ENDBRANCH   1  15
BRANCH   5  16
ATOM     16  C   LIG    1       -1.158   2.061  -0.178  0.00  0.00    +0.170 C 
BRANCH  16  17
ATOM     17  C   LIG    1        0.124   1.277  -0.293  0.00  0.00    +0.070 A 
ATOM     18  C   LIG    1        1.371   1.794  -0.249  0.00  0.00    +0.090 A 
ATOM     19  N   LIG    1        2.246   0.752  -0.396  0.00  0.00    -0.360 N 
ATOM     20  C   LIG    1        3.609   0.688  -0.427  0.00  0.00    +0.210 A 
ATOM     21  C   LIG    1        4.239  -0.494  -0.589  0.00  0.00    +0.010 A 
ATOM     22  C   LIG    1        3.496  -1.679  -0.727  0.00  0.00    +0.040 A 
ATOM     23  C   LIG    1        2.137  -1.630  -0.698  0.00  0.00    +0.070 A 
ATOM     24  C   LIG    1        1.495  -0.387  -0.528  0.00  0.00    +0.220 A 
ATOM     25  N   LIG    1        0.216  -0.044  -0.463  0.00  0.00    -0.460 NA
ENDBRANCH  16  17
ENDBRANCH   5  16
TORSDOF 4
