REMARK  Name = ZINCpe000000WX7j.0
REMARK                            x       y       z     vdW  Elec       q    Type
REMARK                         _______ _______ _______ _____ _____    ______ ____
ROOT
ATOM      1  C   LIG    1       -5.033   2.521  -2.669  0.00  0.00    -0.780 A 
ATOM      2  C   LIG    1       -5.077   3.638  -3.485  0.00  0.00    +0.470 A 
ATOM      3  N   LIG    1       -5.895   4.643  -3.236  0.00  0.00    -0.520 NA
ATOM      4  C   LIG    1       -6.710   4.629  -2.195  0.00  0.00    +0.450 A 
ATOM      5  C   LIG    1       -6.720   3.525  -1.322  0.00  0.00    -0.270 A 
ATOM      6  C   LIG    1       -7.641   3.545  -0.173  0.00  0.00    +0.570 A 
ATOM      7  N   LIG    1       -8.435   4.626  -0.011  0.00  0.00    -0.660 N 
ATOM      8  H   LIG    1       -9.048   4.659   0.739  0.00  0.00    +0.440 HD
ATOM      9  C   LIG    1       -8.389   5.655  -0.872  0.00  0.00    +0.710 A 
ATOM     10  O   LIG    1       -9.125   6.604  -0.682  0.00  0.00    -0.520 OA
ATOM     11  O   LIG    1       -7.685   2.615   0.608  0.00  0.00    -0.480 OA
ATOM     12  N   LIG    1       -7.567   5.684  -1.934  0.00  0.00    -0.530 N 
ATOM     13  C   LIG    1       -7.577   6.846  -2.826  0.00  0.00    +0.360 C 
ATOM     14  C   LIG    1       -5.869   2.448  -1.567  0.00  0.00    +0.310 A 
ENDROOT
BRANCH   1  15
ATOM     15  S   LIG    1       -3.927   1.198  -3.034  0.00  0.00    +2.700 S 
ATOM     16  O   LIG    1       -4.347   0.095  -2.243  0.00  0.00    -0.940 OA
ATOM     17  O   LIG    1       -3.820   1.143  -4.450  0.00  0.00    -0.950 OA
BRANCH  15  18
ATOM     18  N   LIG    1       -2.434   1.638  -2.469  0.00  0.00    -1.100 NA
ATOM     19  H   LIG    1       -1.738   1.902  -3.091  0.00  0.00    +0.420 HD
BRANCH  18  26
ATOM     20  C   LIG    1        0.279   1.372  -1.490  0.00  0.00    +0.030 C 
ATOM     21  C   LIG    1       -0.775   2.213  -0.766  0.00  0.00    +0.000 C 
ATOM     22  C   LIG    1       -0.492   2.202   0.737  0.00  0.00    +0.020 C 
ATOM     23  C   LIG    1       -1.546   3.043   1.461  0.00  0.00    +0.010 C 
ATOM     24  C   LIG    1       -2.935   2.456   1.198  0.00  0.00    +0.020 C 
ATOM     25  C   LIG    1       -3.217   2.467  -0.305  0.00  0.00    -0.010 C 
ATOM     26  C   LIG    1       -2.163   1.627  -1.029  0.00  0.00    +0.190 C 
ATOM     27  C   LIG    1       -2.215   0.188  -0.511  0.00  0.00    +0.040 C 
ENDBRANCH  18  26
ENDBRANCH  15  18
ENDBRANCH   1  15
TORSDOF 3
