REMARK  Name = ZINCvU0000000AZw.0
REMARK                            x       y       z     vdW  Elec       q    Type
REMARK                         _______ _______ _______ _____ _____    ______ ____
ROOT
ATOM      1  O   LIG    1       -1.096  -0.329   2.781  0.00  0.00    -0.520 OA
ATOM      2  C   LIG    1       -2.103   0.063   2.230  0.00  0.00    +0.530 C 
ATOM      3  N   LIG    1       -2.259  -0.119   0.904  0.00  0.00    -0.620 N 
ATOM      4  C   LIG    1       -3.427   0.303   0.110  0.00  0.00    +0.250 C 
ATOM      5  C   LIG    1       -3.428  -0.632  -1.124  0.00  0.00    +0.040 C 
ATOM      6  C   LIG    1       -1.907  -0.781  -1.407  0.00  0.00    +0.050 C 
ATOM      7  C   LIG    1       -1.293  -0.774   0.009  0.00  0.00    +0.270 C 
ENDROOT
BRANCH   7   8
ATOM      8  C   LIG    1        0.002  -0.004   0.002  0.00  0.00    -0.080 A 
ATOM      9  C   LIG    1       -0.017   1.378   0.010  0.00  0.00    +0.030 A 
ATOM     10  C   LIG    1        1.170   2.088   0.002  0.00  0.00    +0.020 A 
ATOM     11  C   LIG    1        2.382   1.415  -0.013  0.00  0.00    +0.050 A 
ATOM     12  O   LIG    1        3.542   2.127  -0.024  0.00  0.00    -0.310 OA
ATOM     13  C   LIG    1        4.733   1.421   0.338  0.00  0.00    +0.220 C 
ATOM     14  C   LIG    1        4.745   0.082  -0.411  0.00  0.00    +0.220 C 
ATOM     15  O   LIG    1        3.579  -0.656  -0.029  0.00  0.00    -0.310 OA
ATOM     16  C   LIG    1        2.401   0.025  -0.019  0.00  0.00    +0.050 A 
ATOM     17  C   LIG    1        1.207  -0.681  -0.012  0.00  0.00    +0.030 A 
ENDBRANCH   7   8
BRANCH   2  18
ATOM     18  C   LIG    1       -3.179   0.753   3.028  0.00  0.00    +0.070 C 
BRANCH  18  19
ATOM     19  C   LIG    1       -2.755   0.831   4.496  0.00  0.00    +0.170 C 
BRANCH  19  20
ATOM     20  C   LIG    1       -3.831   1.521   5.293  0.00  0.00    -0.000 A 
ATOM     21  C   LIG    1       -4.874   0.915   5.894  0.00  0.00    -0.050 A 
ATOM     22  C   LIG    1       -5.628   1.924   6.528  0.00  0.00    -0.020 A 
ATOM     23  C   LIG    1       -5.002   3.102   6.269  0.00  0.00    +0.010 A 
ATOM     24  O   LIG    1       -3.913   2.842   5.519  0.00  0.00    -0.160 OA
BRANCH  23  25
ATOM     25  C   LIG    1       -5.439   4.436   6.730  0.00  0.00    -0.050 A 
ATOM     26  C   LIG    1       -4.534   5.292   7.358  0.00  0.00    +0.070 A 
ATOM     27  C   LIG    1       -4.948   6.537   7.786  0.00  0.00    +0.010 A 
ATOM     28  C   LIG    1       -6.258   6.938   7.594  0.00  0.00    +0.060 A 
ATOM     29  C   LIG    1       -7.162   6.096   6.972  0.00  0.00    -0.010 A 
ATOM     30  C   LIG    1       -6.760   4.850   6.533  0.00  0.00    +0.120 A 
ATOM     31  F   LIG    1       -7.642   4.030   5.919  0.00  0.00    -0.130 F 
ENDBRANCH  23  25
ENDBRANCH  19  20
ENDBRANCH  18  19
ENDBRANCH   2  18
TORSDOF 5
