REMARK  Name = ZINCb700000010j1.0
REMARK                            x       y       z     vdW  Elec       q    Type
REMARK                         _______ _______ _______ _____ _____    ______ ____
ROOT
ATOM      1  C   LIG    1        1.932   2.118  -3.460  0.00  0.00    +0.650 C 
ATOM      2  N   LIG    1        1.362   1.450  -2.437  0.00  0.00    -0.610 N 
ATOM      3  C   LIG    1        2.147   1.092  -1.247  0.00  0.00    +0.340 C 
ATOM      4  C   LIG    1        1.423   1.615  -0.003  0.00  0.00    +0.040 C 
ATOM      5  C   LIG    1       -0.013   1.086   0.008  0.00  0.00    +0.180 C 
ATOM      6  C   LIG    1       -0.754   1.593  -1.231  0.00  0.00    +0.040 C 
ATOM      7  C   LIG    1       -0.055   1.069  -2.490  0.00  0.00    +0.320 C 
ATOM      8  O   LIG    1        3.106   2.428  -3.404  0.00  0.00    -0.550 OA
ENDROOT
BRANCH   5   9
ATOM      9  N   LIG    1       -0.700   1.559   1.217  0.00  0.00    -0.640 N 
ATOM     10  H   LIG    1       -0.211   1.225   2.034  0.00  0.00    +0.440 HD
ATOM     11  H   LIG    1       -1.646   1.210   1.225  0.00  0.00    +0.440 HD
ATOM     12  H   LIG    1       -0.714   2.568   1.223  0.00  0.00    +0.430 HD
ENDBRANCH   5   9
BRANCH   1  14
ATOM     13  C   LIG    1        1.881   3.159  -5.607  0.00  0.00    +0.300 C 
ATOM     14  O   LIG    1        1.202   2.440  -4.543  0.00  0.00    -0.370 OA
ENDBRANCH   1  14
TORSDOF 2
