REMARK  Name = ZINCkj00000dDbre.1
REMARK                            x       y       z     vdW  Elec       q    Type
REMARK                         _______ _______ _______ _____ _____    ______ ____
ROOT
ATOM      1  C   LIG    1       -3.601   1.929   0.041  0.00  0.00    +0.040 C 
ATOM      2  C   LIG    1       -4.785   0.967   0.166  0.00  0.00    +0.110 C 
ENDROOT
BRANCH   1   3
ATOM      3  N   LIG    1       -3.649   2.597  -1.266  0.00  0.00    -0.380 N 
ATOM      4  C   LIG    1       -4.907   3.348  -1.387  0.00  0.00    +0.230 C 
ATOM      5  C   LIG    1       -4.954   4.044  -2.750  0.00  0.00    +0.260 C 
ATOM      6  O   LIG    1       -4.826   3.064  -3.784  0.00  0.00    -0.350 OA
ATOM      7  C   LIG    1       -3.627   2.290  -3.695  0.00  0.00    +0.260 C 
ATOM      8  C   LIG    1       -3.577   1.591  -2.334  0.00  0.00    +0.220 C 
ATOM      9  H   LIG    1       -2.869   3.232  -1.349  0.00  0.00    +0.420 HD
ENDBRANCH   1   3
BRANCH   1  11
ATOM     10  C   LIG    1       -2.563   4.008   0.958  0.00  0.00    +0.040 C 
ATOM     11  C   LIG    1       -3.677   2.977   1.153  0.00  0.00    +0.070 C 
ENDBRANCH   1  11
BRANCH   1  12
ATOM     12  C   LIG    1       -2.293   1.146   0.166  0.00  0.00    +0.300 C 
BRANCH  12  13
ATOM     13  N   LIG    1       -2.183   0.590   1.516  0.00  0.00    -0.720 N 
ATOM     14  H   LIG    1       -2.882   0.757   2.168  0.00  0.00    +0.410 HD
ATOM     15  C   LIG    1       -1.112  -0.155   1.854  0.00  0.00    +0.570 C 
ATOM     16  O   LIG    1       -0.237  -0.366   1.037  0.00  0.00    -0.510 OA
BRANCH  15  17
ATOM     17  C   LIG    1       -0.999  -0.713   3.221  0.00  0.00    -0.100 A 
ATOM     18  C   LIG    1       -1.992  -0.479   4.178  0.00  0.00    -0.020 A 
ATOM     19  C   LIG    1       -1.848  -1.022   5.439  0.00  0.00    +0.270 A 
ATOM     20  N   LIG    1       -0.789  -1.744   5.749  0.00  0.00    -0.460 NA
ATOM     21  C   LIG    1        0.172  -1.984   4.880  0.00  0.00    +0.280 A 
ATOM     22  C   LIG    1        0.107  -1.484   3.594  0.00  0.00    +0.040 A 
ENDBRANCH  15  17
ENDBRANCH  12  13
ENDBRANCH   1  12
TORSDOF 5
