REMARK  Name = ZINCwl0000000lms.1
REMARK                            x       y       z     vdW  Elec       q    Type
REMARK                         _______ _______ _______ _____ _____    ______ ____
ROOT
ATOM      1  C   LIG    1       -3.458  -2.618  -0.105  0.00  0.00    +0.250 C 
ENDROOT
BRANCH   1   2
ATOM      2  N   LIG    1       -4.846  -3.088  -0.003  0.00  0.00    -0.490 N 
ATOM      3  H   LIG    1       -5.332  -2.893  -0.865  0.00  0.00    +0.440 HD
ATOM      4  H   LIG    1       -5.307  -2.612   0.758  0.00  0.00    +0.440 HD
BRANCH   2   5
ATOM      5  C   LIG    1       -4.856  -4.535   0.248  0.00  0.00    +0.220 C 
BRANCH   5   6
ATOM      6  C   LIG    1       -6.272  -4.996   0.475  0.00  0.00    +0.510 C 
ATOM      7  N   LIG    1       -6.508  -6.152   1.126  0.00  0.00    -0.590 N 
ATOM      8  C   LIG    1       -5.406  -6.931   1.712  0.00  0.00    +0.250 C 
ATOM      9  C   LIG    1       -5.767  -7.250   3.172  0.00  0.00    +0.220 C 
ATOM     10  O   LIG    1       -7.062  -7.854   3.213  0.00  0.00    -0.370 OA
ATOM     11  C   LIG    1       -8.116  -7.010   2.744  0.00  0.00    +0.230 C 
ATOM     12  C   LIG    1       -7.876  -6.676   1.267  0.00  0.00    +0.270 C 
ATOM     13  O   LIG    1       -7.200  -4.327   0.072  0.00  0.00    -0.520 OA
ENDBRANCH   5   6
BRANCH   5  14
ATOM     14  C   LIG    1       -4.278  -5.255  -0.943  0.00  0.00    -0.150 A 
ATOM     15  C   LIG    1       -4.702  -4.932  -2.219  0.00  0.00    +0.020 A 
ATOM     16  C   LIG    1       -4.169  -5.590  -3.311  0.00  0.00    +0.040 A 
ATOM     17  C   LIG    1       -3.219  -6.577  -3.128  0.00  0.00    +0.060 A 
ATOM     18  C   LIG    1       -2.799  -6.904  -1.853  0.00  0.00    +0.040 A 
ATOM     19  C   LIG    1       -3.329  -6.243  -0.760  0.00  0.00    +0.050 A 
ENDBRANCH   5  14
ENDBRANCH   2   5
ENDBRANCH   1   2
BRANCH   1  20
ATOM     20  C   LIG    1       -3.447  -1.111  -0.367  0.00  0.00    +0.230 C 
BRANCH  20  21
ATOM     21  O   LIG    1       -4.136  -0.834  -1.588  0.00  0.00    -0.540 OA
ATOM     22  H   LIG    1       -3.747  -1.261  -2.364  0.00  0.00    +0.390 HD
ENDBRANCH  20  21
BRANCH  20  23
ATOM     23  C   LIG    1       -2.002  -0.621  -0.474  0.00  0.00    +0.190 C 
BRANCH  23  24
ATOM     24  O   LIG    1       -1.989   0.802  -0.601  0.00  0.00    -0.300 OA
BRANCH  24  31
ATOM     25  O   LIG    1        4.175   5.080  -0.922  0.00  0.00    -0.520 OA
ATOM     26  C   LIG    1        3.088   4.555  -0.801  0.00  0.00    +0.520 C 
ATOM     27  C   LIG    1        1.905   5.384  -0.379  0.00  0.00    +0.090 C 
ATOM     28  C   LIG    1        0.642   4.885  -1.081  0.00  0.00    +0.110 C 
ATOM     29  C   LIG    1        0.546   3.389  -0.943  0.00  0.00    -0.080 A 
ATOM     30  C   LIG    1       -0.688   2.781  -0.829  0.00  0.00    +0.030 A 
ATOM     31  C   LIG    1       -0.773   1.401  -0.708  0.00  0.00    +0.100 A 
ATOM     32  C   LIG    1        0.382   0.633  -0.690  0.00  0.00    -0.050 A 
ATOM     33  C   LIG    1        1.617   1.240  -0.804  0.00  0.00    +0.030 A 
ATOM     34  C   LIG    1        1.703   2.620  -0.931  0.00  0.00    +0.140 A 
ATOM     35  N   LIG    1        2.954   3.239  -1.047  0.00  0.00    -0.670 N 
ATOM     36  H   LIG    1        3.728   2.716  -1.307  0.00  0.00    +0.410 HD
ENDBRANCH  24  31
ENDBRANCH  23  24
ENDBRANCH  20  23
ENDBRANCH   1  20
TORSDOF 9
