REMARK  Name = ZINCrD0000075ulJ.0
REMARK                            x       y       z     vdW  Elec       q    Type
REMARK                         _______ _______ _______ _____ _____    ______ ____
ROOT
ATOM      1  O   LIG    1       -7.078   6.087   0.099  0.00  0.00    -0.490 OA
ATOM      2  C   LIG    1       -6.203   6.920   0.094  0.00  0.00    +0.470 C 
ENDROOT
BRANCH   2   3
ATOM      3  O   LIG    1       -4.915   6.542   0.080  0.00  0.00    -0.330 OA
BRANCH   3   4
ATOM      4  C   LIG    1       -4.648   5.114   0.071  0.00  0.00    +0.230 C 
BRANCH   4   5
ATOM      5  C   LIG    1       -3.159   4.882   0.056  0.00  0.00    +0.430 C 
ATOM      6  O   LIG    1       -2.397   5.828   0.053  0.00  0.00    -0.440 OA
BRANCH   5   7
ATOM      7  C   LIG    1       -2.648   3.560   0.045  0.00  0.00    -0.270 A 
ATOM      8  C   LIG    1       -3.378   2.391   0.046  0.00  0.00    +0.330 A 
ATOM      9  N   LIG    1       -2.541   1.336   0.033  0.00  0.00    -0.560 N 
ATOM     10  H   LIG    1       -2.824   0.408   0.031  0.00  0.00    +0.420 HD
ATOM     11  C   LIG    1       -1.226   1.755   0.017  0.00  0.00    +0.070 A 
ATOM     12  C   LIG    1       -0.013   1.076   0.008  0.00  0.00    +0.000 A 
ATOM     13  C   LIG    1        1.171   1.782   0.000  0.00  0.00    +0.030 A 
ATOM     14  C   LIG    1        1.167   3.168   0.007  0.00  0.00    +0.000 A 
ATOM     15  C   LIG    1       -0.025   3.860   0.022  0.00  0.00    +0.060 A 
ATOM     16  C   LIG    1       -1.228   3.159   0.030  0.00  0.00    -0.060 A 
ENDBRANCH   5   7
ENDBRANCH   4   5
ENDBRANCH   3   4
ENDBRANCH   2   3
BRANCH   2  17
ATOM     17  C   LIG    1       -6.557   8.385   0.104  0.00  0.00    +0.140 C 
BRANCH  17  18
ATOM     18  C   LIG    1       -8.079   8.541   0.120  0.00  0.00    +0.070 C 
ATOM     19  S   LIG    1       -8.745   7.885   1.679  0.00  0.00    -0.050 S 
ATOM     20  C   LIG    1       -8.288   9.157   2.823  0.00  0.00    -0.140 A 
ATOM     21  C   LIG    1       -8.038   8.838   4.148  0.00  0.00    +0.080 A 
ATOM     22  C   LIG    1       -7.700   9.835   5.045  0.00  0.00    +0.010 A 
ATOM     23  C   LIG    1       -7.612  11.147   4.617  0.00  0.00    +0.050 A 
ATOM     24  C   LIG    1       -7.856  11.470   3.296  0.00  0.00    -0.010 A 
ATOM     25  C   LIG    1       -8.193  10.476   2.382  0.00  0.00    +0.160 A 
ATOM     26  N   LIG    1       -8.422  10.828   1.055  0.00  0.00    -0.650 N 
ATOM     27  H   LIG    1       -8.586  11.766   0.871  0.00  0.00    +0.420 HD
ATOM     28  C   LIG    1       -8.439  10.000   0.014  0.00  0.00    +0.530 C 
ATOM     29  O   LIG    1       -8.757  10.441  -1.070  0.00  0.00    -0.500 OA
ENDBRANCH  17  18
ENDBRANCH   2  17
TORSDOF 6
