REMARK  Name = ZINCc70000004tfX.0
REMARK                            x       y       z     vdW  Elec       q    Type
REMARK                         _______ _______ _______ _____ _____    ______ ____
ROOT
ATOM      1  C   LIG    1        0.223   1.550   2.839  0.00  0.00    +0.100 C 
ENDROOT
BRANCH   1   2
ATOM      2  C   LIG    1       -0.363   1.973   4.188  0.00  0.00    -0.120 C 
ATOM      3  C   LIG    1       -0.059   3.434   4.568  0.00  0.00    +0.220 C 
ATOM      4  O   LIG    1        0.215   2.913   5.886  0.00  0.00    -0.360 OA
ATOM      5  C   LIG    1        0.514   1.591   5.395  0.00  0.00    +0.230 C 
BRANCH   2   6
ATOM      6  C   LIG    1       -1.835   1.586   4.347  0.00  0.00    +0.210 C 
BRANCH   6   7
ATOM      7  O   LIG    1       -2.304   2.015   5.627  0.00  0.00    -0.560 OA
ATOM      8  H   LIG    1       -3.232   1.802   5.797  0.00  0.00    +0.380 HD
ENDBRANCH   6   7
ENDBRANCH   2   6
ENDBRANCH   1   2
BRANCH   1   9
ATOM      9  S   LIG    1       -0.868   2.111   1.503  0.00  0.00    -0.240 S 
BRANCH   9  11
ATOM     10  C   LIG    1        0.002  -0.004   0.002  0.00  0.00    +0.060 C 
ATOM     11  C   LIG    1       -0.019   1.526   0.010  0.00  0.00    +0.020 C 
BRANCH  11  12
ATOM     12  C   LIG    1       -0.759   2.033  -1.229  0.00  0.00    +0.220 C 
BRANCH  12  13
ATOM     13  O   LIG    1       -0.160   1.477  -2.402  0.00  0.00    -0.570 OA
ATOM     14  H   LIG    1       -0.579   1.756  -3.227  0.00  0.00    +0.390 HD
ENDBRANCH  12  13
ENDBRANCH  11  12
ENDBRANCH   9  11
ENDBRANCH   1   9
TORSDOF 7
