REMARK  Name = ZINCqH0000006iFj.0
REMARK                            x       y       z     vdW  Elec       q    Type
REMARK                         _______ _______ _______ _____ _____    ______ ____
ROOT
ATOM      1  S   LIG    1        1.669   3.295   2.654  0.00  0.00    +0.080 S 
ENDROOT
BRANCH   1  10
ATOM      2  N   LIG    1       -0.020   1.094   2.454  0.00  0.00    -0.470 N 
ATOM      3  C   LIG    1       -0.258  -0.095   3.124  0.00  0.00    +0.060 A 
ATOM      4  C   LIG    1       -1.141  -1.147   2.932  0.00  0.00    +0.010 A 
ATOM      5  C   LIG    1       -1.124  -2.224   3.795  0.00  0.00    +0.030 A 
ATOM      6  C   LIG    1       -0.226  -2.264   4.850  0.00  0.00    +0.010 A 
ATOM      7  C   LIG    1        0.662  -1.231   5.053  0.00  0.00    +0.060 A 
ATOM      8  C   LIG    1        0.658  -0.134   4.188  0.00  0.00    +0.060 A 
ATOM      9  N   LIG    1        1.391   1.009   4.128  0.00  0.00    -0.490 NA
ATOM     10  C   LIG    1        0.994   1.732   3.110  0.00  0.00    +0.250 A 
BRANCH   2  11
ATOM     11  C   LIG    1       -0.729   1.579   1.267  0.00  0.00    +0.330 C 
BRANCH  11  12
ATOM     12  C   LIG    1       -0.013   1.086   0.008  0.00  0.00    +0.170 C 
BRANCH  12  14
ATOM     13  C   LIG    1       -0.114   1.152  -2.386  0.00  0.00    +0.210 C 
ATOM     14  O   LIG    1       -0.704   1.559  -1.150  0.00  0.00    -0.390 OA
ENDBRANCH  12  14
ENDBRANCH  11  12
ENDBRANCH   2  11
ENDBRANCH   1  10
BRANCH   1  15
ATOM     15  C   LIG    1        2.927   3.482   3.942  0.00  0.00    +0.110 C 
BRANCH  15  16
ATOM     16  C   LIG    1        3.654   4.787   3.748  0.00  0.00    +0.530 C 
ATOM     17  N   LIG    1        4.641   5.141   4.595  0.00  0.00    -0.720 N 
ATOM     18  H   LIG    1        4.883   4.555   5.330  0.00  0.00    +0.410 HD
ATOM     19  O   LIG    1        3.352   5.520   2.830  0.00  0.00    -0.520 OA
BRANCH  17  20
ATOM     20  C   LIG    1        5.348   6.410   4.407  0.00  0.00    +0.320 C 
BRANCH  20  21
ATOM     21  C   LIG    1        6.396   6.565   5.479  0.00  0.00    -0.110 A 
ATOM     22  C   LIG    1        6.078   7.191   6.670  0.00  0.00    +0.050 A 
ATOM     23  C   LIG    1        7.037   7.329   7.656  0.00  0.00    +0.030 A 
ATOM     24  C   LIG    1        8.319   6.851   7.446  0.00  0.00    -0.030 A 
ATOM     25  C   LIG    1        8.637   6.230   6.251  0.00  0.00    +0.030 A 
ATOM     26 CL   LIG    1        9.526   7.031   8.680  0.00  0.00    -0.060 Cl
ATOM     27  C   LIG    1        7.676   6.087   5.269  0.00  0.00    +0.050 A 
ENDBRANCH  20  21
ENDBRANCH  17  20
ENDBRANCH  15  16
ENDBRANCH   1  15
TORSDOF 8
