REMARK  Name = ZINCbw0000001gXZ.0
REMARK                            x       y       z     vdW  Elec       q    Type
REMARK                         _______ _______ _______ _____ _____    ______ ____
ROOT
ATOM      1  CA  LIG    1       -0.038  -2.249  -0.009  0.00  0.00    -0.040 A 
ATOM      2  C   LIG    1       -0.841  -1.125   0.004  0.00  0.00    +0.090 A 
ATOM      3  C   LIG    1        0.002  -0.004   0.002  0.00  0.00    -0.230 A 
ATOM      4  C   LIG    1        1.313  -0.450  -0.013  0.00  0.00    +0.080 A 
ATOM      5  C   LIG    1        2.244   0.592  -0.016  0.00  0.00    +0.040 A 
ATOM      6  C   LIG    1        1.733   1.821  -0.005  0.00  0.00    -0.120 A 
ATOM      7 CL   LIG    1        2.670   3.282  -0.006  0.00  0.00    +0.000 Cl
ATOM      8  S   LIG    1       -0.022   1.756   0.012  0.00  0.00    +0.190 S 
ATOM      9  N   LIG    1        1.282  -1.839  -0.020  0.00  0.00    -0.520 N 
ATOM     10  H   LIG    1        2.056  -2.423  -0.029  0.00  0.00    +0.430 HD
ENDROOT
BRANCH   1  12
ATOM     11  O   LIG    1        0.316  -4.496  -0.025  0.00  0.00    -0.470 OA
ATOM     12  C   LIG    1       -0.487  -3.585  -0.012  0.00  0.00    +0.530 C 
ENDBRANCH   1  12
TORSDOF 1
