REMARK  Name = ZINCtV00000tRR78.0
REMARK                            x       y       z     vdW  Elec       q    Type
REMARK                         _______ _______ _______ _____ _____    ______ ____
ROOT
ATOM      1  C   LIG    1        1.582   2.849   7.071  0.00  0.00    +0.290 A 
ATOM      2  C   LIG    1        0.577   3.799   6.788  0.00  0.00    -0.080 A 
ATOM      3  C   LIG    1        0.335   4.911   7.603  0.00  0.00    +0.070 A 
ATOM      4  C   LIG    1       -0.654   5.787   7.264  0.00  0.00    +0.040 A 
ATOM      5  C   LIG    1       -1.426   5.592   6.122  0.00  0.00    +0.050 A 
ATOM      6  C   LIG    1       -1.216   4.518   5.306  0.00  0.00    +0.050 A 
ATOM      7  C   LIG    1       -0.210   3.601   5.624  0.00  0.00    -0.040 A 
ATOM      8  C   LIG    1        0.068   2.463   4.827  0.00  0.00    +0.130 A 
ATOM      9  N   LIG    1        1.035   1.643   5.202  0.00  0.00    -0.210 NA
ATOM     10  N   LIG    1        1.747   1.827   6.251  0.00  0.00    -0.310 NA
ENDROOT
BRANCH   8  11
ATOM     11  C   LIG    1       -0.714   2.194   3.599  0.00  0.00    -0.040 A 
ATOM     12  C   LIG    1       -0.998   3.230   2.709  0.00  0.00    +0.030 A 
ATOM     13  C   LIG    1       -1.727   2.973   1.566  0.00  0.00    +0.010 A 
ATOM     14  C   LIG    1       -2.171   1.690   1.299  0.00  0.00    -0.070 A 
ATOM     15  C   LIG    1       -1.897   0.660   2.180  0.00  0.00    -0.090 A 
ATOM     16  C   LIG    1       -2.389  -0.734   1.885  0.00  0.00    +0.090 C 
ATOM     17  C   LIG    1       -2.961   1.415   0.046  0.00  0.00    +0.090 C 
ATOM     18  C   LIG    1       -1.169   0.904   3.327  0.00  0.00    +0.060 A 
ENDBRANCH   8  11
BRANCH   1  19
ATOM     19  O   LIG    1        2.366   2.984   8.168  0.00  0.00    -0.240 OA
BRANCH  19  23
ATOM     20  C   LIG    1        5.470   0.316   8.669  0.00  0.00    -0.170 A 
ATOM     21  C   LIG    1        5.580   1.355   7.737  0.00  0.00    +0.090 A 
ATOM     22  C   LIG    1        4.545   2.240   7.574  0.00  0.00    +0.000 A 
ATOM     23  C   LIG    1        3.387   2.106   8.332  0.00  0.00    +0.120 A 
ATOM     24  C   LIG    1        3.275   1.078   9.263  0.00  0.00    +0.020 A 
ATOM     25  C   LIG    1        4.302   0.185   9.430  0.00  0.00    +0.080 A 
BRANCH  20  26
ATOM     26  C   LIG    1        6.576  -0.634   8.848  0.00  0.00    +0.390 C 
ATOM     27  O   LIG    1        7.587  -0.519   8.188  0.00  0.00    -0.450 OA
BRANCH  26  29
ATOM     28  C   LIG    1        7.734  -2.590   9.839  0.00  0.00    +0.030 C 
ATOM     29  C   LIG    1        6.454  -1.752   9.851  0.00  0.00    +0.030 C 
ENDBRANCH  26  29
ENDBRANCH  20  26
ENDBRANCH  19  23
ENDBRANCH   1  19
TORSDOF 5
