REMARK  Name = ZINCpk00000ebhuc.2
REMARK                            x       y       z     vdW  Elec       q    Type
REMARK                         _______ _______ _______ _____ _____    ______ ____
ROOT
ATOM      1  C   LIG    1       -7.646   8.757  -1.617  0.00  0.00    +0.330 C 
ATOM      2  N   LIG    1       -7.021   7.599  -2.261  0.00  0.00    -0.450 N 
ATOM      3  C   LIG    1       -7.499   6.916  -3.326  0.00  0.00    +0.390 A 
ATOM      4  N   LIG    1       -6.667   5.949  -3.614  0.00  0.00    -0.480 NA
ATOM      5  C   LIG    1       -5.645   5.981  -2.757  0.00  0.00    +0.020 A 
ATOM      6  C   LIG    1       -4.441   5.082  -2.692  0.00  0.00    +0.100 C 
ATOM      7  C   LIG    1       -4.816   3.622  -2.940  0.00  0.00    +0.030 C 
ATOM      8  C   LIG    1       -3.548   2.769  -2.813  0.00  0.00    +0.030 C 
ATOM      9  C   LIG    1       -2.913   2.979  -1.438  0.00  0.00    +0.180 C 
ATOM     10  N   LIG    1       -2.609   4.403  -1.230  0.00  0.00    -0.510 NA
ATOM     11  C   LIG    1       -3.837   5.199  -1.287  0.00  0.00    +0.120 C 
ATOM     12  C   LIG    1       -3.579   6.668  -0.965  0.00  0.00    +0.050 C 
ATOM     13  C   LIG    1       -4.924   7.383  -0.770  0.00  0.00    +0.110 C 
ATOM     14  C   LIG    1       -5.849   7.007  -1.898  0.00  0.00    -0.040 A 
ENDROOT
BRANCH  10  15
ATOM     15  C   LIG    1       -1.907   4.610   0.044  0.00  0.00    +0.310 C 
BRANCH  15  16
ATOM     16  C   LIG    1       -2.716   4.014   1.167  0.00  0.00    +0.180 A 
ATOM     17  C   LIG    1       -2.257   2.927   1.829  0.00  0.00    -0.110 A 
ATOM     18  C   LIG    1       -3.017   2.373   2.878  0.00  0.00    +0.570 A 
ATOM     19  N   LIG    1       -4.197   2.929   3.218  0.00  0.00    -0.360 N 
ATOM     20  N   LIG    1       -5.146   2.603   4.195  0.00  0.00    -0.260 NA
ATOM     21  C   LIG    1       -6.131   3.462   4.118  0.00  0.00    +0.300 A 
ATOM     22  C   LIG    1       -5.853   4.368   3.093  0.00  0.00    -0.120 A 
ATOM     23  C   LIG    1       -4.653   4.026   2.546  0.00  0.00    +0.300 A 
ATOM     24  O   LIG    1       -2.609   1.394   3.477  0.00  0.00    -0.490 OA
ATOM     25  N   LIG    1       -3.907   4.574   1.520  0.00  0.00    -0.600 N 
ATOM     26  H   LIG    1       -4.233   5.356   1.048  0.00  0.00    +0.430 HD
ENDBRANCH  15  16
ENDBRANCH  10  15
TORSDOF 2
