REMARK  Name = ZINCrg00000ShwJP.0
REMARK                            x       y       z     vdW  Elec       q    Type
REMARK                         _______ _______ _______ _____ _____    ______ ____
ROOT
ATOM      1  C   LIG    1        1.279  -1.523  -1.537  0.00  0.00    +0.510 C 
ATOM      2  N   LIG    1        1.137  -0.361  -0.869  0.00  0.00    -0.610 N 
ATOM      3  C   LIG    1        0.002  -0.004   0.002  0.00  0.00    +0.250 C 
ATOM      4  C   LIG    1       -0.019   1.545   0.011  0.00  0.00    +0.040 C 
ATOM      5  C   LIG    1        1.497   1.877  -0.002  0.00  0.00    +0.050 C 
ATOM      6  C   LIG    1        2.088   0.760  -0.887  0.00  0.00    +0.270 C 
ATOM      7  O   LIG    1        2.258  -1.709  -2.228  0.00  0.00    -0.510 OA
ENDROOT
BRANCH   6   8
ATOM      8  C   LIG    1        3.417   0.313  -0.335  0.00  0.00    -0.080 A 
ATOM      9  C   LIG    1        3.460  -0.530   0.759  0.00  0.00    +0.040 A 
ATOM     10  C   LIG    1        4.677  -0.944   1.272  0.00  0.00    +0.020 A 
ATOM     11  C   LIG    1        5.853  -0.510   0.685  0.00  0.00    +0.070 A 
ATOM     12  O   LIG    1        7.060  -0.909   1.181  0.00  0.00    -0.320 OA
ATOM     13  C   LIG    1        7.820  -1.784   0.344  0.00  0.00    +0.230 C 
ATOM     14  C   LIG    1        8.626  -0.992  -0.673  0.00  0.00    -0.020 C 
ATOM     15  C   LIG    1        7.741  -0.242  -1.657  0.00  0.00    +0.230 C 
ATOM     16  O   LIG    1        6.974   0.760  -0.986  0.00  0.00    -0.320 OA
ATOM     17  C   LIG    1        5.809   0.337  -0.414  0.00  0.00    +0.070 A 
ATOM     18  C   LIG    1        4.590   0.745  -0.928  0.00  0.00    +0.030 A 
ENDBRANCH   6   8
BRANCH   1  19
ATOM     19  C   LIG    1        0.220  -2.590  -1.427  0.00  0.00    +0.360 C 
BRANCH  19  24
ATOM     20  O   LIG    1        1.674  -6.878  -4.369  0.00  0.00    -0.510 OA
ATOM     21  C   LIG    1        1.341  -5.908  -3.712  0.00  0.00    +0.550 A 
ATOM     22  C   LIG    1        0.568  -4.878  -4.300  0.00  0.00    -0.120 A 
ATOM     23  C   LIG    1        0.209  -3.815  -3.549  0.00  0.00    +0.360 A 
ATOM     24  N   LIG    1        0.605  -3.746  -2.241  0.00  0.00    -0.520 N 
ATOM     25  C   LIG    1        1.340  -4.731  -1.694  0.00  0.00    +0.700 A 
ATOM     26  O   LIG    1        1.677  -4.651  -0.528  0.00  0.00    -0.540 OA
ATOM     27  N   LIG    1        1.707  -5.804  -2.419  0.00  0.00    -0.660 N 
ATOM     28  H   LIG    1        2.237  -6.505  -2.009  0.00  0.00    +0.430 HD
ENDBRANCH  19  24
ENDBRANCH   1  19
TORSDOF 3
