REMARK  Name = ZINCrD00000hQ6hC.1
REMARK                            x       y       z     vdW  Elec       q    Type
REMARK                         _______ _______ _______ _____ _____    ______ ____
ROOT
ATOM      1  C   LIG    1       -0.595   5.739   7.373  0.00  0.00    -0.090 A 
ATOM      2  C   LIG    1       -0.871   7.093   7.327  0.00  0.00    +0.050 A 
ATOM      3  C   LIG    1       -0.748   7.864   8.467  0.00  0.00    -0.080 A 
ATOM      4  C   LIG    1       -0.337   7.279   9.657  0.00  0.00    +0.130 A 
ATOM      5  C   LIG    1       -0.055   5.922   9.699  0.00  0.00    -0.020 A 
ATOM      6  C   LIG    1       -0.185   5.155   8.557  0.00  0.00    +0.060 A 
ENDROOT
BRANCH   1   9
ATOM      7  C   LIG    1        0.124   5.279   4.921  0.00  0.00    -0.050 C 
ATOM      8  C   LIG    1       -1.382   5.552   4.906  0.00  0.00    +0.070 C 
ATOM      9  C   LIG    1       -0.735   4.900   6.129  0.00  0.00    +0.060 C 
BRANCH   7  11
ATOM     10  N   LIG    1        1.397   4.435   2.976  0.00  0.00    -0.610 N 
ATOM     11  C   LIG    1        0.636   4.159   4.053  0.00  0.00    +0.550 C 
ATOM     12  O   LIG    1        0.364   3.008   4.324  0.00  0.00    -0.530 OA
ATOM     13  C   LIG    1        1.726   5.825   2.648  0.00  0.00    +0.280 C 
BRANCH  10  14
ATOM     14  C   LIG    1        1.895   3.346   2.132  0.00  0.00    +0.300 C 
BRANCH  14  18
ATOM     15  C   LIG    1        0.002  -0.004   0.002  0.00  0.00    +0.170 C 
ATOM     16  N   LIG    1       -0.018   1.465   0.010  0.00  0.00    -0.480 NA
ATOM     17  C   LIG    1       -0.155   1.984   1.384  0.00  0.00    +0.170 C 
ATOM     18  C   LIG    1        0.882   3.056   1.023  0.00  0.00    -0.030 C 
ATOM     19  C   LIG    1        1.352   2.012   0.000  0.00  0.00    +0.160 C 
ENDBRANCH  14  18
ENDBRANCH  10  14
ENDBRANCH   7  11
ENDBRANCH   1   9
BRANCH   4  20
ATOM     20  O   LIG    1       -0.210   8.036  10.778  0.00  0.00    -0.310 OA
BRANCH  20  21
ATOM     21  C   LIG    1       -0.516   9.427  10.661  0.00  0.00    +0.240 C 
BRANCH  21  22
ATOM     22  C   LIG    1       -0.319  10.100  11.995  0.00  0.00    -0.100 A 
ATOM     23  C   LIG    1       -1.371  10.185  12.888  0.00  0.00    +0.020 A 
ATOM     24  C   LIG    1       -1.189  10.798  14.113  0.00  0.00    +0.010 A 
ATOM     25  C   LIG    1        0.042  11.333  14.442  0.00  0.00    +0.020 A 
ATOM     26  C   LIG    1        1.093  11.252  13.547  0.00  0.00    +0.010 A 
ATOM     27  C   LIG    1        0.912  10.636  12.324  0.00  0.00    +0.020 A 
ENDBRANCH  21  22
ENDBRANCH  20  21
ENDBRANCH   4  20
TORSDOF 7
