REMARK  Name = ZINCvU0000000JnY.0
REMARK                            x       y       z     vdW  Elec       q    Type
REMARK                         _______ _______ _______ _____ _____    ______ ____
ROOT
ATOM      1  C   LIG    1        1.388   1.095   0.561  0.00  0.00    -0.280 A 
ATOM      2  C   LIG    1        1.762   2.420   0.651  0.00  0.00    +0.300 A 
ATOM      3  N   LIG    1        3.099   2.463   0.785  0.00  0.00    -0.300 N 
ATOM      4  N   LIG    1        3.613   1.163   0.784  0.00  0.00    -0.270 NA
ATOM      5  C   LIG    1        2.622   0.309   0.658  0.00  0.00    +0.190 A 
ENDROOT
BRANCH   5   6
ATOM      6  C   LIG    1        2.731  -1.169   0.617  0.00  0.00    -0.050 A 
ATOM      7  C   LIG    1        1.737  -1.960   1.191  0.00  0.00    +0.130 A 
ATOM      8  C   LIG    1        1.841  -3.335   1.147  0.00  0.00    -0.020 A 
ATOM      9  C   LIG    1        2.937  -3.930   0.543  0.00  0.00    +0.120 A 
ATOM     10  C   LIG    1        3.930  -3.148  -0.024  0.00  0.00    -0.030 A 
ATOM     11  F   LIG    1        3.037  -5.277   0.507  0.00  0.00    -0.140 F 
ATOM     12  C   LIG    1        3.832  -1.772   0.011  0.00  0.00    +0.090 A 
ENDBRANCH   5   6
BRANCH   3  13
ATOM     13  C   LIG    1        3.861   3.632   0.908  0.00  0.00    +0.140 A 
ATOM     14  C   LIG    1        3.238   4.873   0.891  0.00  0.00    -0.010 A 
ATOM     15  C   LIG    1        3.992   6.024   1.017  0.00  0.00    +0.050 A 
ATOM     16  C   LIG    1        5.366   5.941   1.149  0.00  0.00    +0.010 A 
ATOM     17  C   LIG    1        5.989   4.707   1.161  0.00  0.00    +0.050 A 
ATOM     18  C   LIG    1        5.241   3.552   1.040  0.00  0.00    +0.030 A 
ENDBRANCH   3  13
BRANCH   1  21
ATOM     19  N   LIG    1       -1.022   1.425   0.332  0.00  0.00    -0.670 N 
ATOM     20  H   LIG    1       -0.881   2.376   0.460  0.00  0.00    +0.410 HD
ATOM     21  C   LIG    1        0.019   0.573   0.406  0.00  0.00    +0.600 C 
ATOM     22  O   LIG    1       -0.170  -0.626   0.340  0.00  0.00    -0.510 OA
BRANCH  19  27
ATOM     23  C   LIG    1       -6.232  -0.551  -0.730  0.00  0.00    +0.140 C 
ATOM     24  C   LIG    1       -4.848  -0.026  -0.448  0.00  0.00    -0.030 A 
ATOM     25  C   LIG    1       -3.748  -0.640  -1.017  0.00  0.00    +0.050 A 
ATOM     26  C   LIG    1       -2.478  -0.162  -0.761  0.00  0.00    +0.100 A 
ATOM     27  C   LIG    1       -2.307   0.938   0.070  0.00  0.00    +0.150 A 
ATOM     28  C   LIG    1       -3.414   1.549   0.645  0.00  0.00    +0.080 A 
ATOM     29  C   LIG    1       -4.681   1.069   0.381  0.00  0.00    -0.030 A 
BRANCH  29  30
ATOM     30  N   LIG    1       -5.861   1.723   0.989  0.00  0.00    +0.030 N 
ATOM     31  O   LIG    1       -6.966   1.228   0.859  0.00  0.00    -0.150 OA
ATOM     32  O   LIG    1       -5.727   2.756   1.620  0.00  0.00    -0.170 OA
ENDBRANCH  29  30
ENDBRANCH  19  27
ENDBRANCH   1  21
TORSDOF 5
