REMARK  Name = ZINCrg00001Jdv4O.0
REMARK                            x       y       z     vdW  Elec       q    Type
REMARK                         _______ _______ _______ _____ _____    ______ ____
ROOT
ATOM      1  N   LIG    1       -7.022   4.387   0.669  0.00  0.00    -0.610 N 
ATOM      2  C   LIG    1       -6.343   5.081   1.599  0.00  0.00    +0.520 C 
ATOM      3  C   LIG    1       -4.859   4.821   1.460  0.00  0.00    +0.050 C 
ATOM      4  C   LIG    1       -4.713   4.199   0.053  0.00  0.00    +0.000 C 
ATOM      5  O   LIG    1       -6.847   5.809   2.428  0.00  0.00    -0.510 OA
ATOM      6  C   LIG    1       -6.117   3.596  -0.173  0.00  0.00    +0.320 C 
ENDROOT
BRANCH   6   7
ATOM      7  C   LIG    1       -6.511   3.721  -1.623  0.00  0.00    -0.260 A 
ATOM      8  C   LIG    1       -6.864   4.863  -2.256  0.00  0.00    +0.110 A 
ATOM      9  N   LIG    1       -7.143   4.552  -3.539  0.00  0.00    -0.370 N 
ATOM     10  N   LIG    1       -6.955   3.173  -3.700  0.00  0.00    -0.290 NA
ATOM     11  C   LIG    1       -7.567   5.491  -4.581  0.00  0.00    +0.360 C 
ATOM     12  C   LIG    1       -6.934   6.236  -1.639  0.00  0.00    +0.140 C 
ATOM     13  C   LIG    1       -6.570   2.677  -2.552  0.00  0.00    +0.240 A 
ENDBRANCH   6   7
BRANCH   1  14
ATOM     14  C   LIG    1       -8.479   4.416   0.516  0.00  0.00    +0.310 C 
BRANCH  14  15
ATOM     15  C   LIG    1       -9.104   3.317   1.377  0.00  0.00    +0.150 C 
BRANCH  15  17
ATOM     16  C   LIG    1       -9.409   2.628   3.653  0.00  0.00    +0.200 C 
ATOM     17  O   LIG    1       -8.863   3.599   2.757  0.00  0.00    -0.380 OA
ENDBRANCH  15  17
ENDBRANCH  14  15
ENDBRANCH   1  14
BRANCH   4  18
ATOM     18  C   LIG    1       -3.641   3.107   0.046  0.00  0.00    +0.290 C 
BRANCH  18  19
ATOM     19  N   LIG    1       -2.317   3.721   0.175  0.00  0.00    -0.700 N 
ATOM     20  H   LIG    1       -2.235   4.684   0.249  0.00  0.00    +0.410 HD
BRANCH  19  21
ATOM     21  C   LIG    1       -1.182   2.924   0.193  0.00  0.00    +0.360 A 
ATOM     22  C   LIG    1       -1.300   1.538   0.083  0.00  0.00    -0.020 A 
ATOM     23  C   LIG    1       -0.141   0.783   0.111  0.00  0.00    +0.130 A 
ATOM     24  C   LIG    1        1.080   1.458   0.238  0.00  0.00    +0.080 A 
ATOM     25  N   LIG    1        1.095   2.783   0.332  0.00  0.00    -0.150 NA
ATOM     26  N   LIG    1        0.018   3.480   0.311  0.00  0.00    -0.290 NA
BRANCH  24  27
ATOM     27  C   LIG    1        2.308   0.722   0.266  0.00  0.00    +0.270 C 
ATOM     28  N   LIG    1        3.282   0.138   0.288  0.00  0.00    -0.380 NA
ENDBRANCH  24  27
ENDBRANCH  19  21
ENDBRANCH  18  19
ENDBRANCH   4  18
TORSDOF 8
