REMARK  Name = ZINCrg00000yNwM8.0
REMARK                            x       y       z     vdW  Elec       q    Type
REMARK                         _______ _______ _______ _____ _____    ______ ____
ROOT
ATOM      1  C   LIG    1        3.464   3.796   0.015  0.00  0.00    +0.290 C 
ATOM      2  N   LIG    1        2.142   4.290   0.408  0.00  0.00    -0.610 N 
ATOM      3  C   LIG    1        1.047   3.536   0.189  0.00  0.00    +0.530 C 
ATOM      4  O   LIG    1       -0.055   3.984   0.424  0.00  0.00    -0.500 OA
ENDROOT
BRANCH   3   5
ATOM      5  C   LIG    1        1.193   2.135  -0.349  0.00  0.00    +0.140 C 
ATOM      6  C   LIG    1        1.672   1.199   0.769  0.00  0.00    +0.250 C 
ATOM      7  O   LIG    1        1.786  -0.122   0.229  0.00  0.00    -0.290 OA
ATOM      8  C   LIG    1        0.747  -0.565  -0.531  0.00  0.00    +0.080 A 
ATOM      9  C   LIG    1        0.620  -1.922  -0.784  0.00  0.00    +0.000 A 
ATOM     10  C   LIG    1       -0.428  -2.387  -1.561  0.00  0.00    +0.110 A 
ATOM     11  C   LIG    1       -1.349  -1.498  -2.086  0.00  0.00    +0.010 A 
ATOM     12  C   LIG    1       -1.227  -0.144  -1.835  0.00  0.00    +0.070 A 
ATOM     13  F   LIG    1       -0.550  -3.709  -1.808  0.00  0.00    -0.130 F 
ATOM     14  C   LIG    1       -0.180   0.327  -1.057  0.00  0.00    +0.040 A 
ATOM     15  O   LIG    1       -0.075   1.663  -0.816  0.00  0.00    -0.280 OA
ENDBRANCH   3   5
BRANCH   2  16
ATOM     16  C   LIG    1        2.011   5.606   1.040  0.00  0.00    +0.300 C 
BRANCH  16  17
ATOM     17  C   LIG    1        2.123   5.455   2.559  0.00  0.00    +0.240 C 
BRANCH  17  18
ATOM     18  N   LIG    1        1.992   6.770   3.191  0.00  0.00    -0.730 N 
ATOM     19  H   LIG    1        1.856   7.560   2.644  0.00  0.00    +0.400 HD
ATOM     20  C   LIG    1        2.060   6.883   4.532  0.00  0.00    +0.500 C 
ATOM     21  O   LIG    1        2.230   5.896   5.216  0.00  0.00    -0.500 OA
BRANCH  20  22
ATOM     22  C   LIG    1        1.925   8.236   5.182  0.00  0.00    +0.370 C 
BRANCH  22  23
ATOM     23  N   LIG    1        2.033   8.092   6.636  0.00  0.00    -0.360 N 
ATOM     24  C   LIG    1        2.904   8.743   7.436  0.00  0.00    +0.260 A 
ATOM     25  C   LIG    1        2.680   8.335   8.708  0.00  0.00    -0.180 A 
ATOM     26  C   LIG    1        1.643   7.397   8.682  0.00  0.00    +0.250 A 
ATOM     27 CL   LIG    1        3.534   8.876  10.119  0.00  0.00    -0.040 Cl
ATOM     28  N   LIG    1        1.254   7.251   7.441  0.00  0.00    -0.250 NA
ENDBRANCH  22  23
ENDBRANCH  20  22
ENDBRANCH  17  18
ENDBRANCH  16  17
ENDBRANCH   2  16
TORSDOF 6
