REMARK  Name = ZINCnE000001RCjz.0
REMARK                            x       y       z     vdW  Elec       q    Type
REMARK                         _______ _______ _______ _____ _____    ______ ____
ROOT
ATOM      1  F   LIG    1        3.771  -3.115  -4.686  0.00  0.00    -0.130 F 
ATOM      2  C   LIG    1        4.499  -2.716  -3.620  0.00  0.00    +0.100 A 
ATOM      3  C   LIG    1        3.870  -2.406  -2.428  0.00  0.00    +0.010 A 
ATOM      4  C   LIG    1        4.614  -1.993  -1.339  0.00  0.00    -0.020 A 
ATOM      5  C   LIG    1        5.990  -1.897  -1.434  0.00  0.00    +0.040 A 
ATOM      6  C   LIG    1        6.626  -2.211  -2.620  0.00  0.00    +0.050 A 
ATOM      7  C   LIG    1        5.883  -2.621  -3.717  0.00  0.00    +0.060 A 
ENDROOT
BRANCH   7   8
ATOM      8  N   LIG    1        6.526  -2.940  -4.923  0.00  0.00    -0.410 N 
ATOM      9  C   LIG    1        6.346  -4.077  -5.667  0.00  0.00    +0.130 A 
ATOM     10  C   LIG    1        7.154  -3.974  -6.739  0.00  0.00    +0.140 A 
ATOM     11  N   LIG    1        7.812  -2.808  -6.657  0.00  0.00    -0.490 NA
ATOM     12  C   LIG    1        7.440  -2.177  -5.576  0.00  0.00    +0.400 A 
ENDBRANCH   7   8
BRANCH   4  13
ATOM     13  C   LIG    1        3.925  -1.651  -0.043  0.00  0.00    +0.240 C 
BRANCH  13  14
ATOM     14  N   LIG    1        3.583  -0.226  -0.033  0.00  0.00    -0.610 NA
ATOM     15  C   LIG    1        2.326   0.145  -0.019  0.00  0.00    +0.330 A 
ATOM     16  N   LIG    1        1.216  -0.653  -0.013  0.00  0.00    -0.490 NA
ATOM     17  N   LIG    1        0.002  -0.004   0.002  0.00  0.00    -0.190 NA
ATOM     18  C   LIG    1       -0.015   1.284   0.009  0.00  0.00    -0.160 A 
ATOM     19  S   LIG    1        1.681   1.798  -0.004  0.00  0.00    -0.080 S 
BRANCH  18  20
ATOM     20  C   LIG    1       -1.232   2.173   0.020  0.00  0.00    +0.580 C 
ATOM     21  F   LIG    1       -1.225   2.987  -1.118  0.00  0.00    -0.180 F 
ATOM     22  F   LIG    1       -1.213   2.975   1.166  0.00  0.00    -0.180 F 
ATOM     23  F   LIG    1       -2.387   1.384   0.022  0.00  0.00    -0.170 F 
ENDBRANCH  18  20
ENDBRANCH  13  14
ENDBRANCH   4  13
TORSDOF 4
