REMARK  Name = ZINCqH0000006oLz.0
REMARK                            x       y       z     vdW  Elec       q    Type
REMARK                         _______ _______ _______ _____ _____    ______ ____
ROOT
ATOM      1  C   LIG    1       -2.814   4.732   1.850  0.00  0.00    +0.560 C 
ATOM      2  N   LIG    1       -2.744   3.677   1.015  0.00  0.00    -0.610 N 
ATOM      3  C   LIG    1       -3.821   3.413   0.050  0.00  0.00    +0.260 C 
ATOM      4  C   LIG    1       -4.304   1.971   0.232  0.00  0.00    +0.030 C 
ATOM      5  C   LIG    1       -3.111   1.020   0.118  0.00  0.00    +0.040 C 
ATOM      6  C   LIG    1       -2.099   1.333   1.222  0.00  0.00    +0.090 C 
ATOM      7  C   LIG    1       -1.591   2.768   1.052  0.00  0.00    +0.290 C 
ATOM      8  O   LIG    1       -1.962   4.891   2.702  0.00  0.00    -0.530 OA
ENDROOT
BRANCH   6   9
ATOM      9  C   LIG    1       -0.940   0.374   1.129  0.00  0.00    +0.290 A 
ATOM     10  N   LIG    1       -0.830  -0.730   1.808  0.00  0.00    -0.480 NA
ATOM     11  C   LIG    1        0.331  -1.354   1.479  0.00  0.00    +0.050 A 
ATOM     12  C   LIG    1        0.936  -2.543   1.893  0.00  0.00    +0.070 A 
ATOM     13  C   LIG    1        2.140  -2.914   1.364  0.00  0.00    +0.000 A 
ATOM     14  C   LIG    1        2.772  -2.121   0.417  0.00  0.00    +0.030 A 
ATOM     15  C   LIG    1        2.193  -0.943  -0.006  0.00  0.00    +0.010 A 
ATOM     16  C   LIG    1        0.970  -0.550   0.520  0.00  0.00    +0.050 A 
ATOM     17  N   LIG    1        0.142   0.536   0.320  0.00  0.00    -0.600 N 
ATOM     18  H   LIG    1        0.301   1.276  -0.286  0.00  0.00    +0.420 HD
ENDBRANCH   6   9
BRANCH   1  22
ATOM     19  C   LIG    1       -6.013   7.506   1.506  0.00  0.00    -0.070 A 
ATOM     20  C   LIG    1       -5.544   7.148   2.757  0.00  0.00    +0.030 A 
ATOM     21  C   LIG    1       -4.505   6.247   2.876  0.00  0.00    +0.070 A 
ATOM     22  C   LIG    1       -3.928   5.698   1.730  0.00  0.00    -0.120 A 
ATOM     23  C   LIG    1       -4.402   6.067   0.471  0.00  0.00    +0.040 A 
ATOM     24  C   LIG    1       -5.445   6.965   0.366  0.00  0.00    +0.030 A 
BRANCH  19  25
ATOM     25  C   LIG    1       -7.147   8.490   1.383  0.00  0.00    +0.220 C 
BRANCH  25  27
ATOM     26  C   LIG    1       -7.619  10.832   1.184  0.00  0.00    +0.200 C 
ATOM     27  O   LIG    1       -6.621   9.816   1.303  0.00  0.00    -0.380 OA
ENDBRANCH  25  27
ENDBRANCH  19  25
ENDBRANCH   1  22
TORSDOF 4
