REMARK  Name = ZINCtV00000tRPIe.0
REMARK                            x       y       z     vdW  Elec       q    Type
REMARK                         _______ _______ _______ _____ _____    ______ ____
ROOT
ATOM      1  N   LIG    1       -1.124  -2.037   0.204  0.00  0.00    -0.610 N 
ATOM      2  C   LIG    1       -1.146  -0.692   0.124  0.00  0.00    +0.710 C 
ATOM      3  N   LIG    1        0.009  -0.002   0.041  0.00  0.00    -0.680 N 
ATOM      4  H   LIG    1        0.852  -0.475  -0.032  0.00  0.00    +0.420 HD
ATOM      5  O   LIG    1       -2.209  -0.101   0.127  0.00  0.00    -0.560 OA
ENDROOT
BRANCH   3   6
ATOM      6  C   LIG    1       -0.009   1.397   0.061  0.00  0.00    +0.200 A 
ATOM      7  C   LIG    1       -1.219   2.078   0.042  0.00  0.00    +0.030 A 
ATOM      8  C   LIG    1       -1.234   3.459   0.067  0.00  0.00    +0.100 A 
ATOM      9  C   LIG    1       -0.044   4.163   0.100  0.00  0.00    -0.210 A 
ATOM     10  C   LIG    1        1.163   3.489   0.113  0.00  0.00    +0.100 A 
ATOM     11  C   LIG    1        1.183   2.108   0.093  0.00  0.00    -0.040 A 
BRANCH   9  12
ATOM     12  C   LIG    1       -0.064   5.670   0.121  0.00  0.00    +0.510 C 
ATOM     13  F   LIG    1        1.060   6.141   0.809  0.00  0.00    -0.180 F 
ATOM     14  F   LIG    1       -1.224   6.113   0.766  0.00  0.00    -0.180 F 
ATOM     15  F   LIG    1       -0.044   6.156  -1.190  0.00  0.00    -0.180 F 
ENDBRANCH   9  12
ENDBRANCH   3   6
BRANCH   1  17
ATOM     16  C   LIG    1        0.945  -2.549  -0.995  0.00  0.00    +0.030 C 
ATOM     17  C   LIG    1        0.156  -2.744   0.301  0.00  0.00    +0.230 C 
ATOM     18  C   LIG    1        0.960  -2.184   1.477  0.00  0.00    +0.030 C 
ENDBRANCH   1  17
BRANCH   1  19
ATOM     19  C   LIG    1       -2.378  -2.793   0.195  0.00  0.00    +0.400 C 
BRANCH  19  20
ATOM     20  C   LIG    1       -2.684  -3.241  -1.211  0.00  0.00    -0.210 A 
ATOM     21  C   LIG    1       -2.362  -4.431  -1.726  0.00  0.00    +0.020 A 
ATOM     22  C   LIG    1       -2.747  -4.624  -3.037  0.00  0.00    +0.010 A 
ATOM     23  C   LIG    1       -3.381  -3.575  -3.598  0.00  0.00    -0.140 A 
ATOM     24  S   LIG    1       -3.513  -2.273  -2.424  0.00  0.00    +0.160 S 
BRANCH  23  25
ATOM     25  C   LIG    1       -3.886  -3.527  -4.987  0.00  0.00    -0.020 A 
ATOM     26  C   LIG    1       -3.717  -4.624  -5.833  0.00  0.00    +0.030 A 
ATOM     27  C   LIG    1       -4.197  -4.575  -7.125  0.00  0.00    +0.020 A 
ATOM     28  C   LIG    1       -4.833  -3.437  -7.587  0.00  0.00    +0.010 A 
ATOM     29  C   LIG    1       -4.999  -2.343  -6.756  0.00  0.00    +0.020 A 
ATOM     30  C   LIG    1       -4.529  -2.382  -5.459  0.00  0.00    +0.010 A 
ENDBRANCH  23  25
ENDBRANCH  19  20
ENDBRANCH   1  19
TORSDOF 6
