REMARK  Name = ZINCpk00000xI1R4.2
REMARK                            x       y       z     vdW  Elec       q    Type
REMARK                         _______ _______ _______ _____ _____    ______ ____
ROOT
ATOM      1  S   LIG    1       -1.381   2.589   0.060  0.00  0.00    +2.700 S 
ATOM      2  O   LIG    1       -0.986   3.857   0.565  0.00  0.00    -0.920 OA
ATOM      3  O   LIG    1       -2.435   1.821   0.625  0.00  0.00    -0.960 OA
ENDROOT
BRANCH   1   4
ATOM      4  N   LIG    1       -0.031   1.629   0.100  0.00  0.00    -0.990 NA
ATOM      5  C   LIG    1        1.311   2.196   0.331  0.00  0.00    +0.290 C 
ATOM      6  C   LIG    1        2.265   1.680  -0.750  0.00  0.00    +0.240 C 
ATOM      7  O   LIG    1        2.170   0.254  -0.850  0.00  0.00    -0.350 OA
ATOM      8  C   LIG    1        0.869  -0.199  -1.214  0.00  0.00    +0.140 C 
ATOM      9  C   LIG    1        0.817  -1.711  -1.415  0.00  0.00    +0.100 C 
ATOM     10  C   LIG    1       -0.621  -2.112  -1.764  0.00  0.00    +0.260 C 
ATOM     11  N   LIG    1       -1.537  -1.711  -0.692  0.00  0.00    -0.370 N 
ATOM     12  C   LIG    1       -1.520  -0.251  -0.515  0.00  0.00    +0.260 C 
ATOM     13  C   LIG    1       -2.899  -2.141  -1.033  0.00  0.00    +0.330 C 
ATOM     14  H   LIG    1       -1.254  -2.154   0.169  0.00  0.00    +0.430 HD
ATOM     15  C   LIG    1       -0.116   0.178  -0.099  0.00  0.00    +0.220 C 
ENDBRANCH   1   4
BRANCH   1  23
ATOM     16  C   LIG    1        0.335   4.117  -1.902  0.00  0.00    +0.120 C 
ATOM     17  C   LIG    1       -0.946   3.548  -2.454  0.00  0.00    +0.070 A 
ATOM     18  C   LIG    1       -1.276   3.741  -3.798  0.00  0.00    -0.140 A 
ATOM     19  C   LIG    1       -2.466   3.210  -4.302  0.00  0.00    +0.140 A 
ATOM     20  C   LIG    1       -3.307   2.499  -3.470  0.00  0.00    -0.070 A 
ATOM     21  C   LIG    1       -2.970   2.306  -2.140  0.00  0.00    +0.100 A 
ATOM     22 CL   LIG    1       -4.786   1.837  -4.093  0.00  0.00    -0.070 Cl
ATOM     23  C   LIG    1       -1.796   2.834  -1.634  0.00  0.00    -0.700 A 
BRANCH  18  24
ATOM     24  C   LIG    1       -0.372   4.503  -4.681  0.00  0.00    +0.520 C 
ATOM     25  O   LIG    1        0.639   5.017  -4.224  0.00  0.00    -0.660 OA
ATOM     26  O   LIG    1       -0.634   4.620  -5.870  0.00  0.00    -0.670 OA
ENDBRANCH  18  24
ENDBRANCH   1  23
TORSDOF 3
