REMARK  Name = ZINCpk00000xI1R4.1
REMARK                            x       y       z     vdW  Elec       q    Type
REMARK                         _______ _______ _______ _____ _____    ______ ____
ROOT
ATOM      1  S   LIG    1        1.329  -0.162  -3.020  0.00  0.00    +2.700 S 
ATOM      2  O   LIG    1        1.338  -0.455  -4.411  0.00  0.00    -0.930 OA
ATOM      3  O   LIG    1        1.354  -1.166  -2.015  0.00  0.00    -0.960 OA
ENDROOT
BRANCH   1   4
ATOM      4  N   LIG    1       -0.027   0.746  -2.742  0.00  0.00    -0.990 NA
ATOM      5  C   LIG    1       -0.836   1.284  -3.851  0.00  0.00    +0.290 C 
ATOM      6  C   LIG    1       -1.074   2.779  -3.618  0.00  0.00    +0.240 C 
ATOM      7  O   LIG    1       -1.567   2.996  -2.290  0.00  0.00    -0.350 OA
ATOM      8  C   LIG    1       -0.659   2.573  -1.277  0.00  0.00    +0.140 C 
ATOM      9  C   LIG    1       -1.166   2.907   0.124  0.00  0.00    +0.090 C 
ATOM     10  C   LIG    1       -0.147   2.388   1.145  0.00  0.00    +0.260 C 
ATOM     11  N   LIG    1        0.031   0.940   1.002  0.00  0.00    -0.370 N 
ATOM     12  C   LIG    1        0.543   0.610  -0.336  0.00  0.00    +0.260 C 
ATOM     13  C   LIG    1       -1.262   0.274   1.204  0.00  0.00    +0.330 C 
ATOM     14  H   LIG    1        0.685   0.613   1.698  0.00  0.00    +0.440 HD
ATOM     15  C   LIG    1       -0.479   1.052  -1.380  0.00  0.00    +0.220 C 
ENDBRANCH   1   4
BRANCH   1  23
ATOM     16  C   LIG    1        2.062   2.225  -4.721  0.00  0.00    +0.110 C 
ATOM     17  C   LIG    1        2.975   1.944  -3.555  0.00  0.00    +0.070 A 
ATOM     18  C   LIG    1        4.076   2.769  -3.314  0.00  0.00    -0.140 A 
ATOM     19  C   LIG    1        4.921   2.498  -2.235  0.00  0.00    +0.140 A 
ATOM     20  C   LIG    1        4.659   1.422  -1.411  0.00  0.00    -0.070 A 
ATOM     21  C   LIG    1        3.562   0.612  -1.654  0.00  0.00    +0.100 A 
ATOM     22 CL   LIG    1        5.707   1.082  -0.070  0.00  0.00    -0.070 Cl
ATOM     23  C   LIG    1        2.722   0.875  -2.721  0.00  0.00    -0.700 A 
BRANCH  18  24
ATOM     24  C   LIG    1        4.349   3.918  -4.199  0.00  0.00    +0.520 C 
ATOM     25  O   LIG    1        3.572   4.193  -5.102  0.00  0.00    -0.660 OA
ATOM     26  O   LIG    1        5.353   4.596  -4.028  0.00  0.00    -0.670 OA
ENDBRANCH  18  24
ENDBRANCH   1  23
TORSDOF 3
