REMARK  Name = ZINCAx0000000aWY.0
REMARK                            x       y       z     vdW  Elec       q    Type
REMARK                         _______ _______ _______ _____ _____    ______ ____
ROOT
ATOM      1  C   LIG    1       -4.393   2.485   5.604  0.00  0.00    +0.190 C 
ATOM      2  C   LIG    1       -4.826   3.938   5.399  0.00  0.00    +0.080 C 
ENDROOT
BRANCH   1   3
ATOM      3  C   LIG    1       -3.210   2.184   4.720  0.00  0.00    +0.520 C 
ATOM      4  N   LIG    1       -3.348   2.207   3.380  0.00  0.00    -0.630 N 
ATOM      5  H   LIG    1       -4.223   2.342   2.984  0.00  0.00    +0.410 HD
ATOM      6  O   LIG    1       -2.134   1.921   5.215  0.00  0.00    -0.480 OA
BRANCH   4   7
ATOM      7  C   LIG    1       -2.220   2.035   2.552  0.00  0.00    -0.080 A 
ATOM      8  C   LIG    1       -2.051   1.073   1.617  0.00  0.00    +0.180 A 
ATOM      9  N   LIG    1       -0.825   1.244   1.031  0.00  0.00    -0.390 N 
ATOM     10  N   LIG    1       -0.193   2.354   1.604  0.00  0.00    -0.370 N 
ATOM     11  C   LIG    1       -0.266   0.403  -0.030  0.00  0.00    +0.350 C 
ATOM     12  C   LIG    1       -3.045  -0.007   1.277  0.00  0.00    +0.160 C 
ATOM     13  C   LIG    1       -1.016   2.867   2.542  0.00  0.00    +0.540 A 
ATOM     14  O   LIG    1       -0.800   3.837   3.245  0.00  0.00    -0.510 OA
BRANCH  10  15
ATOM     15  C   LIG    1        1.072   2.845   1.264  0.00  0.00    +0.150 A 
ATOM     16  C   LIG    1        2.155   1.980   1.182  0.00  0.00    +0.000 A 
ATOM     17  C   LIG    1        3.401   2.467   0.841  0.00  0.00    +0.030 A 
ATOM     18  C   LIG    1        3.574   3.817   0.592  0.00  0.00    +0.010 A 
ATOM     19  C   LIG    1        2.498   4.682   0.679  0.00  0.00    +0.030 A 
ATOM     20  C   LIG    1        1.248   4.200   1.015  0.00  0.00    +0.030 A 
ENDBRANCH  10  15
ENDBRANCH   4   7
ENDBRANCH   1   3
BRANCH   1  21
ATOM     21  O   LIG    1       -4.022   2.282   6.993  0.00  0.00    -0.300 OA
BRANCH  21  22
ATOM     22  C   LIG    1       -5.000   1.895   7.837  0.00  0.00    +0.540 C 
ATOM     23  O   LIG    1       -6.131   1.732   7.423  0.00  0.00    -0.530 OA
BRANCH  22  26
ATOM     24  N   LIG    1       -5.452   1.060  11.434  0.00  0.00    -0.470 N 
ATOM     25  C   LIG    1       -5.690   1.280  10.134  0.00  0.00    +0.460 A 
ATOM     26  C   LIG    1       -4.699   1.671   9.258  0.00  0.00    -0.330 A 
ATOM     27  C   LIG    1       -3.333   1.865   9.775  0.00  0.00    +0.430 A 
ATOM     28  C   LIG    1       -3.118   1.618  11.211  0.00  0.00    -0.230 A 
ATOM     29  C   LIG    1       -1.860   1.775  11.796  0.00  0.00    +0.180 A 
ATOM     30  C   LIG    1       -1.738   1.525  13.151  0.00  0.00    -0.050 A 
ATOM     31  C   LIG    1       -2.855   1.132  13.871  0.00  0.00    +0.190 A 
ATOM     32  N   LIG    1       -4.031   0.991  13.299  0.00  0.00    -0.520 NA
ATOM     33  C   LIG    1       -2.719   0.861  15.348  0.00  0.00    +0.140 C 
ATOM     34  O   LIG    1       -2.421   2.214   9.046  0.00  0.00    -0.440 OA
ATOM     35  C   LIG    1       -4.209   1.216  12.003  0.00  0.00    +0.380 A 
BRANCH  24  37
ATOM     36  C   LIG    1       -7.256   1.878  12.869  0.00  0.00    +0.040 C 
ATOM     37  C   LIG    1       -6.565   0.641  12.289  0.00  0.00    +0.300 C 
ENDBRANCH  24  37
ENDBRANCH  22  26
ENDBRANCH  21  22
ENDBRANCH   1  21
TORSDOF 7
