REMARK  Name = ZINCtV00000L6jfS.0
REMARK                            x       y       z     vdW  Elec       q    Type
REMARK                         _______ _______ _______ _____ _____    ______ ____
ROOT
ATOM      1  C   LIG    1        3.452   0.704   0.219  0.00  0.00    +0.480 A 
ATOM      2  C   LIG    1        4.028  -0.518   0.421  0.00  0.00    -0.140 A 
ATOM      3  C   LIG    1        3.208  -1.631   0.672  0.00  0.00    +0.290 A 
ATOM      4  N   LIG    1        1.891  -1.490   0.710  0.00  0.00    -0.490 NA
ATOM      5  C   LIG    1        1.321  -0.299   0.513  0.00  0.00    +0.320 A 
ATOM      6  C   LIG    1       -0.016   0.119   0.500  0.00  0.00    -0.210 A 
ATOM      7  C   LIG    1       -0.017   1.495   0.240  0.00  0.00    +0.320 A 
ATOM      8  N   LIG    1        1.221   1.901   0.103  0.00  0.00    -0.320 NA
ATOM      9  N   LIG    1        2.085   0.812   0.266  0.00  0.00    -0.340 N 
ENDROOT
BRANCH   6  10
ATOM     10  C   LIG    1       -1.206  -0.735   0.720  0.00  0.00    +0.010 A 
ATOM     11  C   LIG    1       -1.356  -1.924   0.007  0.00  0.00    +0.020 A 
ATOM     12  C   LIG    1       -2.464  -2.718   0.220  0.00  0.00    +0.000 A 
ATOM     13  C   LIG    1       -3.431  -2.331   1.131  0.00  0.00    +0.000 A 
ATOM     14  C   LIG    1       -3.291  -1.149   1.837  0.00  0.00    +0.000 A 
ATOM     15  C   LIG    1       -2.184  -0.349   1.637  0.00  0.00    +0.010 A 
ENDBRANCH   6  10
BRANCH   3  16
ATOM     16  C   LIG    1        3.816  -2.964   0.893  0.00  0.00    -0.060 A 
ATOM     17  C   LIG    1        5.201  -3.117   0.848  0.00  0.00    +0.040 A 
ATOM     18  C   LIG    1        5.763  -4.359   1.061  0.00  0.00    +0.000 A 
ATOM     19  C   LIG    1        4.953  -5.454   1.308  0.00  0.00    +0.030 A 
ATOM     20  C   LIG    1        3.578  -5.309   1.348  0.00  0.00    +0.000 A 
ATOM     21  C   LIG    1        3.005  -4.071   1.142  0.00  0.00    +0.070 A 
ENDBRANCH   3  16
BRANCH   1  22
ATOM     22  N   LIG    1        4.233   1.814  -0.029  0.00  0.00    -0.650 N 
ATOM     23  H   LIG    1        3.817   2.658  -0.266  0.00  0.00    +0.430 HD
BRANCH  22  29
ATOM     24 CL   LIG    1        8.805   2.982  -2.009  0.00  0.00    -0.050 Cl
ATOM     25  C   LIG    1        7.802   2.233  -0.806  0.00  0.00    -0.010 A 
ATOM     26  C   LIG    1        8.381   1.544   0.245  0.00  0.00    +0.020 A 
ATOM     27  C   LIG    1        7.585   0.945   1.205  0.00  0.00    +0.060 A 
ATOM     28  C   LIG    1        6.210   1.038   1.120  0.00  0.00    +0.000 A 
ATOM     29  C   LIG    1        5.625   1.724   0.063  0.00  0.00    +0.160 A 
ATOM     30  C   LIG    1        6.426   2.324  -0.900  0.00  0.00    +0.010 A 
ENDBRANCH  22  29
ENDBRANCH   1  22
TORSDOF 4
