REMARK  Name = ZINCrD00000hQ4eC.0
REMARK                            x       y       z     vdW  Elec       q    Type
REMARK                         _______ _______ _______ _____ _____    ______ ____
ROOT
ATOM      1  C   LIG    1        5.320   5.515  -0.208  0.00  0.00    +0.550 C 
ATOM      2  N   LIG    1        5.048   4.205  -0.049  0.00  0.00    -0.460 N 
ATOM      3  N   LIG    1        3.774   3.642   0.004  0.00  0.00    -0.250 NA
ATOM      4  C   LIG    1        3.769   2.364   0.165  0.00  0.00    +0.150 C 
ATOM      5  C   LIG    1        5.192   1.859   0.238  0.00  0.00    +0.100 C 
ATOM      6  C   LIG    1        6.047   3.133   0.089  0.00  0.00    +0.250 C 
ATOM      7  O   LIG    1        6.471   5.895  -0.246  0.00  0.00    -0.510 OA
ENDROOT
BRANCH   4   8
ATOM      8  C   LIG    1        2.563   1.523   0.258  0.00  0.00    -0.060 A 
ATOM      9  C   LIG    1        2.681   0.142   0.427  0.00  0.00    +0.080 A 
ATOM     10  C   LIG    1        1.548  -0.640   0.514  0.00  0.00    -0.010 A 
ATOM     11  C   LIG    1        0.292  -0.062   0.435  0.00  0.00    +0.070 A 
ATOM     12  C   LIG    1        0.160   1.304   0.268  0.00  0.00    -0.010 A 
ATOM     13  C   LIG    1        1.288   2.105   0.178  0.00  0.00    +0.190 A 
BRANCH  13  14
ATOM     14  N   LIG    1        1.157   3.482   0.009  0.00  0.00    -1.050 N 
ATOM     15  H   LIG    1        1.795   3.967  -0.537  0.00  0.00    +0.430 HD
BRANCH  14  16
ATOM     16  S   LIG    1       -0.088   4.292   0.742  0.00  0.00    +2.600 S 
ATOM     17  O   LIG    1       -1.257   3.627   0.281  0.00  0.00    -0.950 OA
ATOM     18  O   LIG    1        0.150   5.657   0.430  0.00  0.00    -0.940 OA
ATOM     19  C   LIG    1        0.158   3.991   2.514  0.00  0.00    -0.270 C 
ENDBRANCH  14  16
ENDBRANCH  13  14
ENDBRANCH   4   8
BRANCH   6  20
ATOM     20  C   LIG    1        6.894   3.350   1.316  0.00  0.00    -0.090 A 
ATOM     21  C   LIG    1        6.340   3.918   2.448  0.00  0.00    +0.010 A 
ATOM     22  C   LIG    1        7.117   4.112   3.575  0.00  0.00    +0.000 A 
ATOM     23  C   LIG    1        8.450   3.747   3.567  0.00  0.00    +0.010 A 
ATOM     24  C   LIG    1        9.005   3.183   2.434  0.00  0.00    +0.010 A 
ATOM     25  C   LIG    1        8.228   2.985   1.308  0.00  0.00    +0.020 A 
ENDBRANCH   6  20
BRANCH   1  27
ATOM     26  C   LIG    1        4.772   7.915  -0.505  0.00  0.00    +0.050 C 
ATOM     27  C   LIG    1        4.194   6.508  -0.338  0.00  0.00    +0.000 C 
ATOM     28  C   LIG    1        3.343   6.157  -1.560  0.00  0.00    +0.060 C 
ENDBRANCH   1  27
TORSDOF 5
