REMARK  Name = ZINC660000002nSU.0
REMARK                            x       y       z     vdW  Elec       q    Type
REMARK                         _______ _______ _______ _____ _____    ______ ____
ROOT
ATOM      1  C   LIG    1       -0.018   1.468   0.010  0.00  0.00    +0.060 C 
ENDROOT
BRANCH   1   2
ATOM      2  C   LIG    1        1.396   1.989  -0.001  0.00  0.00    +0.500 C 
ATOM      3  O   LIG    1        1.602   3.191   0.004  0.00  0.00    -0.700 OA
ATOM      4  O   LIG    1        2.333   1.210  -0.014  0.00  0.00    -0.690 OA
ENDBRANCH   1   2
BRANCH   1   6
ATOM      5  C   LIG    1        0.018  -1.178  -0.004  0.00  0.00    -0.060 C 
ATOM      6  C   LIG    1        0.002  -0.004   0.002  0.00  0.00    -0.120 C 
ENDBRANCH   1   6
TORSDOF 2
