REMARK  Name = ZINCrD000000fCnR.2
REMARK                            x       y       z     vdW  Elec       q    Type
REMARK                         _______ _______ _______ _____ _____    ______ ____
ROOT
ATOM      1  N   LIG    1        0.000  -0.006  -0.004  0.00  0.00    -0.680 N 
ATOM      2  H   LIG    1       -0.836  -0.496  -0.042  0.00  0.00    +0.410 HD
ATOM      3  C   LIG    1       -0.009   1.331   0.164  0.00  0.00    +0.510 C 
ATOM      4  O   LIG    1        1.036   1.932   0.304  0.00  0.00    -0.490 OA
ENDROOT
BRANCH   1  12
ATOM      5  C   LIG    1        7.040  -3.616  -0.966  0.00  0.00    +0.110 C 
ATOM      6  C   LIG    1        5.948  -2.579  -0.904  0.00  0.00    +0.520 C 
ATOM      7  N   LIG    1        4.748  -2.894  -0.378  0.00  0.00    -0.560 N 
ATOM      8  C   LIG    1        4.419  -4.172   0.259  0.00  0.00    +0.280 C 
ATOM      9  C   LIG    1        2.949  -4.042   0.690  0.00  0.00    +0.100 C 
ATOM     10  C   LIG    1        2.544  -2.653   0.250  0.00  0.00    -0.120 A 
ATOM     11  C   LIG    1        1.344  -1.981   0.368  0.00  0.00    +0.020 A 
ATOM     12  C   LIG    1        1.217  -0.689  -0.124  0.00  0.00    +0.130 A 
ATOM     13  C   LIG    1        2.302  -0.079  -0.740  0.00  0.00    +0.050 A 
ATOM     14  C   LIG    1        3.501  -0.749  -0.853  0.00  0.00    +0.030 A 
ATOM     15  C   LIG    1        3.632  -2.048  -0.360  0.00  0.00    +0.130 A 
ATOM     16  O   LIG    1        6.150  -1.461  -1.328  0.00  0.00    -0.520 OA
ENDBRANCH   1  12
BRANCH   3  17
ATOM     17  C   LIG    1       -1.316   2.081   0.170  0.00  0.00    +0.210 C 
BRANCH  17  18
ATOM     18  N   LIG    1       -1.057   3.514   0.368  0.00  0.00    -0.500 NA
ATOM     19  C   LIG    1       -0.413   4.103  -0.821  0.00  0.00    +0.190 C 
ATOM     20  C   LIG    1       -1.305   5.271  -1.292  0.00  0.00    +0.000 C 
ATOM     21  C   LIG    1       -2.105   5.638  -0.014  0.00  0.00    +0.040 C 
ATOM     22  C   LIG    1       -2.313   4.247   0.635  0.00  0.00    +0.180 C 
BRANCH  22  23
ATOM     23  C   LIG    1       -2.532   4.388   2.119  0.00  0.00    -0.080 A 
ATOM     24  C   LIG    1       -1.464   4.659   2.953  0.00  0.00    +0.050 A 
ATOM     25  C   LIG    1       -1.665   4.792   4.314  0.00  0.00    -0.010 A 
ATOM     26  C   LIG    1       -2.934   4.646   4.842  0.00  0.00    +0.000 A 
ATOM     27  C   LIG    1       -4.002   4.370   4.009  0.00  0.00    +0.000 A 
ATOM     28  C   LIG    1       -3.801   4.241   2.648  0.00  0.00    +0.000 A 
ENDBRANCH  22  23
ENDBRANCH  17  18
ENDBRANCH   3  17
TORSDOF 4
