REMARK  Name = ZINCnE000001E66G.0
REMARK                            x       y       z     vdW  Elec       q    Type
REMARK                         _______ _______ _______ _____ _____    ______ ____
ROOT
ATOM      1  C   LIG    1        0.328   0.306   2.145  0.00  0.00    -0.090 A 
ATOM      2  C   LIG    1        1.609   0.765   2.408  0.00  0.00    +0.040 A 
ATOM      3  C   LIG    1        2.165   0.618   3.661  0.00  0.00    +0.030 A 
ATOM      4  C   LIG    1        1.439   0.005   4.675  0.00  0.00    +0.040 A 
ATOM      5  O   LIG    1        1.712  -0.273   5.966  0.00  0.00    -0.180 OA
ATOM      6  C   LIG    1        0.683  -0.887   6.561  0.00  0.00    +0.280 A 
ATOM      7  C   LIG    1       -0.336  -1.046   5.673  0.00  0.00    -0.220 A 
ATOM      8  C   LIG    1        0.143  -0.459   4.406  0.00  0.00    -0.090 A 
ATOM      9  C   LIG    1       -0.410  -0.300   3.140  0.00  0.00    +0.070 A 
ENDROOT
BRANCH   7  10
ATOM     10  C   LIG    1       -1.643  -1.671   5.924  0.00  0.00    +0.590 C 
ATOM     11  N   LIG    1       -2.281  -1.454   7.091  0.00  0.00    -0.600 N 
ATOM     12  C   LIG    1       -1.740  -0.506   8.075  0.00  0.00    +0.250 C 
ATOM     13  C   LIG    1       -2.838   0.508   8.431  0.00  0.00    +0.030 C 
ATOM     14  C   LIG    1       -4.085  -0.244   8.903  0.00  0.00    -0.090 C 
ATOM     15  C   LIG    1       -4.603  -1.136   7.773  0.00  0.00    +0.030 C 
ATOM     16  C   LIG    1       -3.528  -2.165   7.406  0.00  0.00    +0.270 C 
ATOM     17  O   LIG    1       -2.148  -2.385   5.079  0.00  0.00    -0.540 OA
BRANCH  14  18
ATOM     18  C   LIG    1       -5.152   0.747   9.289  0.00  0.00    +0.500 C 
ATOM     19  O   LIG    1       -5.835   1.275   8.427  0.00  0.00    -0.700 OA
ATOM     20  O   LIG    1       -5.334   1.022  10.463  0.00  0.00    -0.700 OA
ENDBRANCH  14  18
ENDBRANCH   7  10
BRANCH   1  22
ATOM     21  C   LIG    1        0.609  -0.253  -0.255  0.00  0.00    +0.040 C 
ATOM     22  C   LIG    1       -0.263   0.476   0.769  0.00  0.00    +0.020 C 
ATOM     23  C   LIG    1       -0.323   1.965   0.420  0.00  0.00    +0.040 C 
ENDBRANCH   1  22
TORSDOF 3
