REMARK  Name = ZINCrH00000auuM5.0
REMARK                            x       y       z     vdW  Elec       q    Type
REMARK                         _______ _______ _______ _____ _____    ______ ____
ROOT
ATOM      1  C   LIG    1       -4.713   8.581   1.531  0.00  0.00    +0.050 C 
ATOM      2  C   LIG    1       -4.571   8.087   0.089  0.00  0.00    +0.230 C 
ENDROOT
BRANCH   2   3
ATOM      3  N   LIG    1       -3.816   6.832   0.075  0.00  0.00    -0.730 N 
ATOM      4  H   LIG    1       -4.285   5.984   0.074  0.00  0.00    +0.400 HD
ATOM      5  C   LIG    1       -2.468   6.857   0.062  0.00  0.00    +0.590 C 
ATOM      6  O   LIG    1       -1.879   7.922   0.063  0.00  0.00    -0.510 OA
BRANCH   5   7
ATOM      7  C   LIG    1       -1.710   5.598   0.047  0.00  0.00    +0.010 A 
ATOM      8  C   LIG    1       -0.355   5.494   0.034  0.00  0.00    +0.070 A 
ATOM      9  C   LIG    1       -0.028   4.117   0.024  0.00  0.00    -0.130 A 
ATOM     10  C   LIG    1        1.185   3.417   0.009  0.00  0.00    +0.120 A 
ATOM     11  C   LIG    1        1.183   2.053   0.002  0.00  0.00    -0.040 A 
ATOM     12  C   LIG    1       -0.016   1.347   0.009  0.00  0.00    +0.140 A 
ATOM     13  C   LIG    1       -1.224   2.014   0.019  0.00  0.00    -0.030 A 
ATOM     14  F   LIG    1        0.002  -0.004   0.002  0.00  0.00    -0.130 F 
ATOM     15  C   LIG    1       -1.245   3.405   0.031  0.00  0.00    +0.140 A 
ATOM     16  N   LIG    1       -2.262   4.330   0.046  0.00  0.00    -0.580 N 
ATOM     17  H   LIG    1       -3.210   4.127   0.054  0.00  0.00    +0.420 HD
ENDBRANCH   5   7
ENDBRANCH   2   3
BRANCH   2  18
ATOM     18  C   LIG    1       -5.960   7.854  -0.509  0.00  0.00    +0.280 C 
BRANCH  18  19
ATOM     19  N   LIG    1       -5.824   7.269  -1.845  0.00  0.00    -0.730 N 
ATOM     20  H   LIG    1       -4.943   7.093  -2.210  0.00  0.00    +0.400 HD
ATOM     21  C   LIG    1       -6.924   6.976  -2.567  0.00  0.00    +0.600 C 
ATOM     22  O   LIG    1       -8.029   7.197  -2.109  0.00  0.00    -0.520 OA
BRANCH  21  23
ATOM     23  C   LIG    1       -6.788   6.391  -3.904  0.00  0.00    -0.280 A 
ATOM     24  C   LIG    1       -7.823   6.051  -4.730  0.00  0.00    +0.020 A 
ATOM     25  C   LIG    1       -7.410   5.521  -5.929  0.00  0.00    +0.000 A 
ATOM     26  C   LIG    1       -6.084   5.429  -6.082  0.00  0.00    -0.050 A 
ATOM     27  S   LIG    1       -5.268   6.021  -4.706  0.00  0.00    +0.190 S 
BRANCH  24  28
ATOM     28  C   LIG    1       -9.272   6.239  -4.362  0.00  0.00    +0.030 C 
ATOM     29  C   LIG    1      -10.322   5.629  -5.293  0.00  0.00    +0.020 C 
ATOM     30  C   LIG    1      -10.116   7.146  -5.260  0.00  0.00    +0.030 C 
ENDBRANCH  24  28
ENDBRANCH  21  23
ENDBRANCH  18  19
ENDBRANCH   2  18
TORSDOF 6
