REMARK  Name = ZINCkj000005f7Ur.0
REMARK                            x       y       z     vdW  Elec       q    Type
REMARK                         _______ _______ _______ _____ _____    ______ ____
ROOT
ATOM      1  C   LIG    1       -3.312  -1.944  -3.024  0.00  0.00    +0.230 C 
ENDROOT
BRANCH   1   5
ATOM      2  N   LIG    1       -6.289  -4.849  -3.780  0.00  0.00    -0.390 N 
ATOM      3  C   LIG    1       -6.502  -3.491  -4.298  0.00  0.00    +0.280 C 
ATOM      4  C   LIG    1       -5.162  -2.753  -4.361  0.00  0.00    +0.210 C 
ATOM      5  N   LIG    1       -4.575  -2.696  -3.015  0.00  0.00    -0.520 NA
ATOM      6  C   LIG    1       -4.379  -4.048  -2.473  0.00  0.00    +0.220 C 
ATOM      7  C   LIG    1       -5.724  -4.775  -2.426  0.00  0.00    +0.280 C 
ATOM      8  H   LIG    1       -5.649  -5.343  -4.384  0.00  0.00    +0.420 HD
BRANCH   2  10
ATOM      9  C   LIG    1       -8.159  -5.642  -5.147  0.00  0.00    +0.090 C 
ATOM     10  C   LIG    1       -7.572  -5.563  -3.737  0.00  0.00    +0.160 C 
ATOM     11  C   LIG    1       -7.350  -6.977  -3.197  0.00  0.00    +0.090 C 
ENDBRANCH   2  10
ENDBRANCH   1   5
BRANCH   1  12
ATOM     12  C   LIG    1       -2.867  -1.694  -1.606  0.00  0.00    +0.510 C 
ATOM     13  N   LIG    1       -1.726  -1.018  -1.367  0.00  0.00    -0.720 N 
ATOM     14  H   LIG    1       -1.192  -0.691  -2.108  0.00  0.00    +0.400 HD
ATOM     15  O   LIG    1       -3.535  -2.103  -0.680  0.00  0.00    -0.530 OA
BRANCH  13  16
ATOM     16  C   LIG    1       -1.293  -0.775   0.011  0.00  0.00    +0.320 C 
BRANCH  16  17
ATOM     17  C   LIG    1        0.002  -0.004   0.002  0.00  0.00    -0.120 A 
ATOM     18  C   LIG    1       -0.017   1.378   0.010  0.00  0.00    +0.020 A 
ATOM     19  C   LIG    1        1.171   2.086   0.002  0.00  0.00    +0.010 A 
ATOM     20  C   LIG    1        2.377   1.411  -0.015  0.00  0.00    +0.020 A 
ATOM     21  C   LIG    1        2.396   0.029  -0.022  0.00  0.00    +0.010 A 
ATOM     22  C   LIG    1        1.208  -0.679  -0.013  0.00  0.00    +0.020 A 
ENDBRANCH  16  17
ENDBRANCH  13  16
ENDBRANCH   1  12
TORSDOF 5
