REMARK  Name = ZINCtV00000L6kA1.0
REMARK                            x       y       z     vdW  Elec       q    Type
REMARK                         _______ _______ _______ _____ _____    ______ ____
ROOT
ATOM      1  C   LIG    1        1.681   6.173  -3.407  0.00  0.00    +0.110 A 
ATOM      2  C   LIG    1        2.779   5.447  -3.700  0.00  0.00    -0.070 A 
ATOM      3  S   LIG    1        3.198   4.501  -2.274  0.00  0.00    +0.200 S 
ATOM      4  C   LIG    1        1.864   5.157  -1.431  0.00  0.00    +0.030 A 
ATOM      5  N   LIG    1        1.222   5.987  -2.178  0.00  0.00    -0.460 NA
ENDROOT
BRANCH   1   9
ATOM      6  C   LIG    1       -0.149   8.824  -6.182  0.00  0.00    -0.060 A 
ATOM      7  C   LIG    1       -0.682   8.678  -4.914  0.00  0.00    +0.000 A 
ATOM      8  C   LIG    1       -0.092   7.819  -4.009  0.00  0.00    +0.050 A 
ATOM      9  C   LIG    1        1.042   7.097  -4.375  0.00  0.00    -0.030 A 
ATOM     10  C   LIG    1        1.578   7.252  -5.652  0.00  0.00    +0.020 A 
ATOM     11  C   LIG    1        0.977   8.110  -6.551  0.00  0.00    +0.020 A 
BRANCH   6  12
ATOM     12  C   LIG    1       -0.797   9.764  -7.166  0.00  0.00    +0.020 C 
ATOM     13  C   LIG    1        0.207  10.841  -7.579  0.00  0.00    +0.030 C 
BRANCH  12  15
ATOM     14  C   LIG    1       -2.011   9.909  -9.345  0.00  0.00    +0.010 C 
ATOM     15  C   LIG    1       -1.243   8.980  -8.402  0.00  0.00    +0.000 C 
ENDBRANCH  12  15
ENDBRANCH   6  12
ENDBRANCH   1   9
BRANCH   4  16
ATOM     16  C   LIG    1        1.495   4.816  -0.010  0.00  0.00    +0.280 C 
BRANCH  16  17
ATOM     17  C   LIG    1        0.660   3.562   0.005  0.00  0.00    +0.190 A 
ATOM     18  N   LIG    1        1.104   2.332  -0.018  0.00  0.00    -0.270 NA
ATOM     19  N   LIG    1        0.115   1.507   0.013  0.00  0.00    -0.260 NA
ATOM     20  C   LIG    1       -1.004   2.167   0.054  0.00  0.00    +0.170 A 
ATOM     21  C   LIG    1       -2.408   1.619   0.106  0.00  0.00    +0.240 C 
ATOM     22  S   LIG    1       -3.429   2.756   1.088  0.00  0.00    -0.070 S 
ATOM     23  C   LIG    1       -2.920   4.343   0.512  0.00  0.00    -0.110 A 
ATOM     24  C   LIG    1       -3.828   5.394   0.499  0.00  0.00    +0.070 A 
ATOM     25  C   LIG    1       -3.435   6.642   0.057  0.00  0.00    +0.040 A 
ATOM     26  C   LIG    1       -2.137   6.851  -0.371  0.00  0.00    +0.050 A 
ATOM     27  C   LIG    1       -1.227   5.810  -0.364  0.00  0.00    +0.050 A 
ATOM     28  C   LIG    1       -1.613   4.551   0.071  0.00  0.00    +0.120 A 
ATOM     29  N   LIG    1       -0.695   3.495   0.047  0.00  0.00    -0.410 N 
ENDBRANCH  16  17
ENDBRANCH   4  16
TORSDOF 5
