REMARK  Name = ZINCvU00000003SW.0
REMARK                            x       y       z     vdW  Elec       q    Type
REMARK                         _______ _______ _______ _____ _____    ______ ____
ROOT
ATOM      1  N   LIG    1       -0.014   1.088   2.448  0.00  0.00    -0.450 N 
ATOM      2  C   LIG    1        1.059   1.668   3.062  0.00  0.00    +0.150 A 
ATOM      3  N   LIG    1        1.371   0.915   4.094  0.00  0.00    -0.290 NA
ATOM      4  N   LIG    1        0.571  -0.089   4.165  0.00  0.00    -0.260 NA
ATOM      5  C   LIG    1       -0.304  -0.035   3.188  0.00  0.00    +0.230 A 
ENDROOT
BRANCH   5   6
ATOM      6  C   LIG    1       -1.392  -1.001   2.928  0.00  0.00    -0.010 A 
ATOM      7  C   LIG    1       -1.830  -1.852   3.944  0.00  0.00    +0.090 A 
ATOM      8  C   LIG    1       -2.850  -2.748   3.698  0.00  0.00    +0.040 A 
ATOM      9  C   LIG    1       -3.431  -2.812   2.443  0.00  0.00    -0.020 A 
ATOM     10  C   LIG    1       -2.998  -1.973   1.429  0.00  0.00    +0.040 A 
ATOM     11 CL   LIG    1       -4.708  -3.947   2.138  0.00  0.00    -0.060 Cl
ATOM     12  C   LIG    1       -1.982  -1.069   1.665  0.00  0.00    +0.030 A 
ENDBRANCH   5   6
BRANCH   1  13
ATOM     13  C   LIG    1       -0.715   1.567   1.253  0.00  0.00    +0.320 C 
BRANCH  13  14
ATOM     14  C   LIG    1       -0.018   1.026   0.003  0.00  0.00    +0.040 C 
BRANCH  14  15
ATOM     15  C   LIG    1       -0.750   1.525  -1.244  0.00  0.00    +0.180 C 
BRANCH  15  16
ATOM     16  O   LIG    1       -0.100   1.020  -2.413  0.00  0.00    -0.390 OA
BRANCH  16  18
ATOM     17  C   LIG    1        0.067   0.834  -4.816  0.00  0.00    +0.040 C 
ATOM     18  C   LIG    1       -0.708   1.430  -3.639  0.00  0.00    +0.160 C 
ENDBRANCH  16  18
ENDBRANCH  15  16
ENDBRANCH  14  15
ENDBRANCH  13  14
ENDBRANCH   1  13
BRANCH   2  19
ATOM     19  S   LIG    1        1.874   3.149   2.566  0.00  0.00    +0.100 S 
BRANCH  19  20
ATOM     20  C   LIG    1        3.152   3.248   3.844  0.00  0.00    +0.110 C 
BRANCH  20  21
ATOM     21  C   LIG    1        3.997   4.475   3.615  0.00  0.00    +0.530 C 
ATOM     22  N   LIG    1        5.018   4.755   4.450  0.00  0.00    -0.650 N 
ATOM     23  H   LIG    1        5.208   4.168   5.198  0.00  0.00    +0.420 HD
ATOM     24  O   LIG    1        3.759   5.209   2.680  0.00  0.00    -0.450 OA
BRANCH  22  25
ATOM     25  C   LIG    1        5.800   5.891   4.238  0.00  0.00    +0.380 A 
ATOM     26  N   LIG    1        5.538   6.685   3.212  0.00  0.00    -0.450 NA
ATOM     27  C   LIG    1        6.250   7.771   2.978  0.00  0.00    +0.340 A 
ATOM     28  C   LIG    1        7.309   8.115   3.797  0.00  0.00    -0.110 A 
ATOM     29  C   LIG    1        7.620   7.304   4.881  0.00  0.00    +0.130 A 
ATOM     30 CL   LIG    1        8.240   9.544   3.473  0.00  0.00    -0.040 Cl
ATOM     31  C   LIG    1        6.852   6.174   5.103  0.00  0.00    -0.120 A 
ATOM     32 CL   LIG    1        7.196   5.125   6.443  0.00  0.00    -0.040 Cl
ENDBRANCH  22  25
ENDBRANCH  20  21
ENDBRANCH  19  20
ENDBRANCH   2  19
TORSDOF 10
