REMARK  Name = ZINCb70000002ELI.0
REMARK                            x       y       z     vdW  Elec       q    Type
REMARK                         _______ _______ _______ _____ _____    ______ ____
ROOT
ATOM      1  C   LIG    1       -0.699   1.479   1.216  0.00  0.00    +0.240 C 
ENDROOT
BRANCH   1   2
ATOM      2  C   LIG    1       -2.135   0.949   1.227  0.00  0.00    +0.150 C 
ATOM      3  C   LIG    1       -2.836   1.344  -0.076  0.00  0.00    +0.190 C 
ATOM      4  O   LIG    1       -4.138   0.751  -0.107  0.00  0.00    -0.360 OA
ATOM      5  C   LIG    1       -4.120  -0.675   0.003  0.00  0.00    +0.210 C 
ATOM      6  C   LIG    1       -3.419  -1.070   1.306  0.00  0.00    +0.230 C 
ATOM      7  O   LIG    1       -2.117  -0.477   1.337  0.00  0.00    -0.380 OA
ENDBRANCH   1   2
BRANCH   1   8
ATOM      8  N   LIG    1       -0.012   1.005   0.008  0.00  0.00    -0.640 N 
ATOM      9  H   LIG    1       -0.500   1.339  -0.810  0.00  0.00    +0.430 HD
ATOM     10  H   LIG    1        0.935   1.354   0.000  0.00  0.00    +0.440 HD
ATOM     11  H   LIG    1        0.002  -0.004   0.002  0.00  0.00    +0.440 HD
ENDBRANCH   1   8
BRANCH   1  12
ATOM     12  C   LIG    1        0.041   0.972   2.456  0.00  0.00    -0.060 C 
ATOM     13  C   LIG    1        0.415   2.000   3.525  0.00  0.00    +0.090 C 
ATOM     14  C   LIG    1        1.500   1.397   2.630  0.00  0.00    +0.040 C 
ENDBRANCH   1  12
TORSDOF 3
