REMARK  Name = ZINCah0000002qaF.0
REMARK                            x       y       z     vdW  Elec       q    Type
REMARK                         _______ _______ _______ _____ _____    ______ ____
ROOT
ATOM      1  C   LIG    1        0.141  -4.291   0.133  0.00  0.00    +0.030 C 
ATOM      2  C   LIG    1        0.074  -2.785   0.394  0.00  0.00    -0.030 C 
ATOM      3  C   LIG    1       -1.140  -2.187  -0.326  0.00  0.00    +0.040 C 
ATOM      4  C   LIG    1       -1.305  -0.733   0.124  0.00  0.00    +0.120 C 
ATOM      5  C   LIG    1        0.002  -0.004  -0.005  0.00  0.00    +0.220 C 
ATOM      6  C   LIG    1        1.183  -0.620  -0.115  0.00  0.00    -0.360 C 
ATOM      7  C   LIG    1        1.339  -2.113  -0.143  0.00  0.00    +0.100 C 
ENDROOT
BRANCH   6   8
ATOM      8  C   LIG    1        2.340   0.172  -0.211  0.00  0.00    +0.430 C 
ATOM      9  O   LIG    1        3.419  -0.350  -0.410  0.00  0.00    -0.470 OA
ENDBRANCH   6   8
BRANCH   5  10
ATOM     10  O   LIG    1       -0.017   1.342  -0.004  0.00  0.00    -0.480 OA
ATOM     11  H   LIG    1        0.838   1.793  -0.005  0.00  0.00    +0.410 HD
ENDBRANCH   5  10
TORSDOF 2
