REMARK  Name = ZINCrg00000PBhdH.0
REMARK                            x       y       z     vdW  Elec       q    Type
REMARK                         _______ _______ _______ _____ _____    ______ ____
ROOT
ATOM      1  C   LIG    1        0.067  -1.486   4.799  0.00  0.00    +0.560 C 
ATOM      2  N   LIG    1        0.055  -0.240   5.314  0.00  0.00    -0.710 N 
ATOM      3  H   LIG    1        0.039   0.529   4.722  0.00  0.00    +0.410 HD
ATOM      4  O   LIG    1        0.087  -2.449   5.541  0.00  0.00    -0.500 OA
ENDROOT
BRANCH   1  12
ATOM      5  C   LIG    1       -0.018   1.461   0.010  0.00  0.00    +0.370 C 
ATOM      6  N   LIG    1        0.002  -0.004   0.002  0.00  0.00    -0.390 N 
ATOM      7  N   LIG    1       -0.004  -0.821  -1.135  0.00  0.00    -0.220 NA
ATOM      8  C   LIG    1        0.023  -2.073  -0.778  0.00  0.00    +0.300 A 
ATOM      9  C   LIG    1        0.037  -2.145   0.635  0.00  0.00    +0.040 A 
ATOM     10  N   LIG    1        0.059  -3.165   1.496  0.00  0.00    -0.390 NA
ATOM     11  C   LIG    1        0.068  -2.973   2.792  0.00  0.00    +0.090 A 
ATOM     12  C   LIG    1        0.056  -1.681   3.335  0.00  0.00    -0.110 A 
ATOM     13  C   LIG    1        0.033  -0.580   2.477  0.00  0.00    +0.100 A 
ATOM     14  C   LIG    1        0.024  -0.817   1.107  0.00  0.00    +0.080 A 
BRANCH  11  15
ATOM     15  C   LIG    1        0.092  -4.163   3.716  0.00  0.00    +0.470 C 
ATOM     16  F   LIG    1       -1.043  -4.142   4.533  0.00  0.00    -0.180 F 
ATOM     17  F   LIG    1        1.241  -4.112   4.513  0.00  0.00    -0.180 F 
ENDBRANCH  11  15
ENDBRANCH   1  12
BRANCH   2  18
ATOM     18  C   LIG    1        0.066  -0.047   6.766  0.00  0.00    +0.320 C 
BRANCH  18  19
ATOM     19  C   LIG    1        0.049   1.427   7.077  0.00  0.00    +0.510 C 
ATOM     20  N   LIG    1        0.055   1.846   8.358  0.00  0.00    -0.720 N 
ATOM     21  H   LIG    1        0.071   1.198   9.080  0.00  0.00    +0.410 HD
ATOM     22  O   LIG    1        0.029   2.237   6.174  0.00  0.00    -0.540 OA
BRANCH  20  23
ATOM     23  C   LIG    1        0.038   3.280   8.660  0.00  0.00    +0.230 C 
ATOM     24  C   LIG    1        1.468   3.824   8.629  0.00  0.00    +0.010 C 
ATOM     25  C   LIG    1        1.451   5.321   8.944  0.00  0.00    -0.010 C 
ATOM     26  C   LIG    1        0.851   5.542  10.334  0.00  0.00    +0.160 C 
ATOM     27  C   LIG    1       -0.578   4.998  10.366  0.00  0.00    +0.040 C 
ATOM     28  C   LIG    1       -0.561   3.501  10.050  0.00  0.00    +0.030 C 
BRANCH  26  29
ATOM     29  O   LIG    1        0.835   6.941  10.629  0.00  0.00    -0.570 OA
ATOM     30  H   LIG    1        1.709   7.353  10.626  0.00  0.00    +0.380 HD
ENDBRANCH  26  29
ENDBRANCH  20  23
ENDBRANCH  18  19
ENDBRANCH   2  18
TORSDOF 6
