REMARK  Name = ZINCpk000005JQLF.0
REMARK                            x       y       z     vdW  Elec       q    Type
REMARK                         _______ _______ _______ _____ _____    ______ ____
ROOT
ATOM      1  N   LIG    1       -2.870   0.260   1.273  0.00  0.00    -0.700 N 
ATOM      2  H   LIG    1       -3.158  -0.426   0.651  0.00  0.00    +0.410 HD
ATOM      3  C   LIG    1       -3.018   0.073   2.600  0.00  0.00    +0.580 C 
ATOM      4  O   LIG    1       -2.656   0.933   3.379  0.00  0.00    -0.510 OA
ENDROOT
BRANCH   3   5
ATOM      5  C   LIG    1       -3.621  -1.181   3.108  0.00  0.00    +0.180 A 
ATOM      6  C   LIG    1       -3.779  -1.397   4.485  0.00  0.00    -0.160 A 
ATOM      7  C   LIG    1       -3.478  -0.641   5.694  0.00  0.00    +0.010 A 
ATOM      8  C   LIG    1       -3.872  -1.396   6.736  0.00  0.00    +0.260 A 
ATOM      9  N   LIG    1       -4.409  -2.571   6.284  0.00  0.00    -0.570 N 
ATOM     10  H   LIG    1       -4.760  -3.276   6.851  0.00  0.00    +0.430 HD
ATOM     11  C   LIG    1       -4.365  -2.612   4.916  0.00  0.00    +0.320 A 
ATOM     12  N   LIG    1       -4.732  -3.497   4.001  0.00  0.00    -0.510 NA
ATOM     13  C   LIG    1       -4.560  -3.251   2.718  0.00  0.00    +0.520 A 
ATOM     14  N   LIG    1       -4.024  -2.135   2.270  0.00  0.00    -0.510 NA
ENDBRANCH   3   5
BRANCH   1  18
ATOM     15  N   LIG    1       -0.788   1.606  -1.147  0.00  0.00    -0.470 N 
ATOM     16  C   LIG    1       -0.013   1.086   0.008  0.00  0.00    +0.180 C 
ATOM     17  C   LIG    1       -0.798   1.615   1.234  0.00  0.00    +0.060 C 
ATOM     18  C   LIG    1       -2.273   1.500   0.770  0.00  0.00    +0.170 C 
ATOM     19  C   LIG    1       -3.077   2.709   1.253  0.00  0.00    +0.060 C 
ATOM     20  C   LIG    1       -2.212   1.478  -0.768  0.00  0.00    +0.200 C 
BRANCH  15  24
ATOM     21  C   LIG    1       -0.727  -2.650  -3.620  0.00  0.00    +0.150 C 
ATOM     22  C   LIG    1       -0.474  -1.168  -3.514  0.00  0.00    +0.190 A 
ATOM     23  C   LIG    1       -0.760  -0.492  -2.345  0.00  0.00    -0.120 A 
ATOM     24  C   LIG    1       -0.513   0.882  -2.296  0.00  0.00    +0.350 A 
ATOM     25  N   LIG    1       -0.005   1.482  -3.368  0.00  0.00    -0.510 NA
ATOM     26  C   LIG    1        0.258   0.797  -4.462  0.00  0.00    +0.510 A 
ATOM     27  N   LIG    1        0.032  -0.499  -4.541  0.00  0.00    -0.530 NA
ENDBRANCH  15  24
ENDBRANCH   1  18
TORSDOF 3
