REMARK  Name = ZINCvU0000000AqR.0
REMARK                            x       y       z     vdW  Elec       q    Type
REMARK                         _______ _______ _______ _____ _____    ______ ____
ROOT
ATOM      1  C   LIG    1       -0.523   8.037  -1.277  0.00  0.00    +0.040 C 
ENDROOT
BRANCH   1   2
ATOM      2  C   LIG    1       -0.651   9.562  -1.297  0.00  0.00    +0.060 C 
BRANCH   2   5
ATOM      3  N   LIG    1       -0.942  11.350  -2.981  0.00  0.00    -0.670 N 
ATOM      4  H   LIG    1       -1.021  11.984  -2.252  0.00  0.00    +0.410 HD
ATOM      5  C   LIG    1       -0.811  10.034  -2.719  0.00  0.00    +0.510 C 
ATOM      6  O   LIG    1       -0.822   9.230  -3.627  0.00  0.00    -0.510 OA
BRANCH   3  12
ATOM      7  C   LIG    1       -0.986  13.162  -4.577  0.00  0.00    -0.110 A 
ATOM      8  C   LIG    1       -1.008  13.603  -5.886  0.00  0.00    +0.030 A 
ATOM      9  C   LIG    1       -1.010  12.691  -6.925  0.00  0.00    -0.020 A 
ATOM     10  C   LIG    1       -0.989  11.334  -6.658  0.00  0.00    +0.020 A 
ATOM     11  C   LIG    1       -0.961  10.886  -5.351  0.00  0.00    +0.010 A 
ATOM     12  C   LIG    1       -0.965  11.800  -4.306  0.00  0.00    +0.150 A 
BRANCH   7  14
ATOM     13  C   LIG    1       -0.972  15.577  -4.015  0.00  0.00    +0.040 C 
ATOM     14  C   LIG    1       -0.984  14.157  -3.446  0.00  0.00    -0.030 C 
ATOM     15  C   LIG    1        0.261  13.944  -2.581  0.00  0.00    +0.030 C 
ATOM     16  C   LIG    1       -2.238  13.960  -2.591  0.00  0.00    +0.030 C 
ENDBRANCH   7  14
ENDBRANCH   3  12
ENDBRANCH   2   5
ENDBRANCH   1   2
BRANCH   1  17
ATOM     17  C   LIG    1       -0.360   7.557   0.167  0.00  0.00    +0.300 C 
BRANCH  17  18
ATOM     18  N   LIG    1       -0.238   6.098   0.185  0.00  0.00    -0.560 N 
ATOM     19  C   LIG    1        0.988   5.548   0.094  0.00  0.00    +0.570 A 
ATOM     20  C   LIG    1        1.151   4.087   0.109  0.00  0.00    -0.160 A 
ATOM     21  C   LIG    1        2.394   3.479   0.017  0.00  0.00    +0.150 A 
ATOM     22  C   LIG    1        2.497   2.094   0.035  0.00  0.00    +0.000 A 
ATOM     23  C   LIG    1        1.394   1.296   0.143  0.00  0.00    +0.090 A 
ATOM     24  C   LIG    1        0.115   1.872   0.234  0.00  0.00    -0.080 A 
ATOM     25  C   LIG    1       -1.050   1.094   0.352  0.00  0.00    +0.090 A 
ATOM     26  C   LIG    1       -2.270   1.700   0.443  0.00  0.00    +0.000 A 
ATOM     27  C   LIG    1       -2.399   3.083   0.426  0.00  0.00    +0.150 A 
ATOM     28  C   LIG    1       -1.274   3.887   0.316  0.00  0.00    -0.160 A 
ATOM     29  C   LIG    1       -0.002   3.277   0.222  0.00  0.00    +0.010 A 
ATOM     30  O   LIG    1        1.966   6.265  -0.002  0.00  0.00    -0.490 OA
ATOM     31  C   LIG    1       -1.356   5.355   0.294  0.00  0.00    +0.570 A 
ATOM     32  O   LIG    1       -2.440   5.901   0.375  0.00  0.00    -0.490 OA
ENDBRANCH  17  18
ENDBRANCH   1  17
TORSDOF 6
