REMARK  Name = ZINCpk00000xTNEe.0
REMARK                            x       y       z     vdW  Elec       q    Type
REMARK                         _______ _______ _______ _____ _____    ______ ____
ROOT
ATOM      1  C   LIG    1        5.873   0.681  -3.049  0.00  0.00    +0.300 C 
ATOM      2  C   LIG    1        7.403   0.655  -2.853  0.00  0.00    +0.050 C 
ATOM      3  C   LIG    1        7.559   0.063  -1.427  0.00  0.00    +0.040 C 
ATOM      4  C   LIG    1        6.335   0.674  -0.701  0.00  0.00    +0.250 C 
ATOM      5  N   LIG    1        5.261   0.682  -1.712  0.00  0.00    -0.610 N 
ATOM      6  C   LIG    1        3.939   0.683  -1.453  0.00  0.00    +0.520 C 
ATOM      7  O   LIG    1        3.142   0.688  -2.367  0.00  0.00    -0.510 OA
ENDROOT
BRANCH   1  11
ATOM      8  C   LIG    1        4.457   3.821  -6.691  0.00  0.00    +0.360 C 
ATOM      9  N   LIG    1        4.859   3.291  -5.385  0.00  0.00    -0.370 N 
ATOM     10  C   LIG    1        5.158   2.005  -5.108  0.00  0.00    +0.240 A 
ATOM     11  C   LIG    1        5.475   1.929  -3.794  0.00  0.00    -0.250 A 
ATOM     12  C   LIG    1        5.375   3.215  -3.253  0.00  0.00    +0.230 A 
ATOM     13  N   LIG    1        5.006   4.032  -4.205  0.00  0.00    -0.290 NA
ENDBRANCH   1  11
BRANCH   6  14
ATOM     14  C   LIG    1        3.450   0.676  -0.027  0.00  0.00    +0.410 C 
BRANCH  14  15
ATOM     15  N   LIG    1        1.985   0.679  -0.013  0.00  0.00    -0.130 N 
ATOM     16  N   LIG    1        1.239  -0.370  -0.012  0.00  0.00    -0.050 NA
ATOM     17  N   LIG    1        0.002  -0.004   0.002  0.00  0.00    -0.270 NA
ATOM     18  C   LIG    1       -0.016   1.336   0.009  0.00  0.00    +0.210 A 
ATOM     19  N   LIG    1        1.241   1.731  -0.001  0.00  0.00    -0.290 NA
BRANCH  18  20
ATOM     20  C   LIG    1       -1.219   2.207   0.020  0.00  0.00    -0.010 A 
ATOM     21  C   LIG    1       -1.079   3.592   0.032  0.00  0.00    +0.050 A 
ATOM     22  C   LIG    1       -2.200   4.397   0.037  0.00  0.00    +0.010 A 
ATOM     23  C   LIG    1       -3.461   3.830   0.041  0.00  0.00    +0.030 A 
ATOM     24  C   LIG    1       -3.606   2.454   0.034  0.00  0.00    +0.010 A 
ATOM     25  C   LIG    1       -2.491   1.640   0.024  0.00  0.00    +0.060 A 
ENDBRANCH  18  20
ENDBRANCH  14  15
ENDBRANCH   6  14
TORSDOF 4
