REMARK  Name = ZINCpk00000y6vm9.0
REMARK                            x       y       z     vdW  Elec       q    Type
REMARK                         _______ _______ _______ _____ _____    ______ ____
ROOT
ATOM      1  C   LIG    1        0.983  -0.832  -0.665  0.00  0.00    -0.060 A 
ATOM      2  C   LIG    1        0.965  -2.185  -0.933  0.00  0.00    +0.160 A 
ATOM      3  C   LIG    1        2.276  -2.561  -1.241  0.00  0.00    -0.760 A 
ATOM      4  C   LIG    1        3.055  -1.456  -1.159  0.00  0.00    +0.340 A 
ATOM      5  N   LIG    1        2.280  -0.398  -0.815  0.00  0.00    -0.530 N 
ATOM      6  H   LIG    1        2.590   0.514  -0.693  0.00  0.00    +0.430 HD
ENDROOT
BRANCH   1   9
ATOM      7  C   LIG    1        1.365   1.817   0.211  0.00  0.00    +0.300 C 
ATOM      8  N   LIG    1        0.010   1.279   0.070  0.00  0.00    -0.550 N 
ATOM      9  C   LIG    1       -0.171  -0.006  -0.295  0.00  0.00    +0.590 C 
ATOM     10  O   LIG    1       -1.291  -0.481  -0.317  0.00  0.00    -0.490 OA
BRANCH   8  11
ATOM     11  C   LIG    1       -1.096   2.100   0.307  0.00  0.00    +0.150 A 
ATOM     12  C   LIG    1       -2.376   1.559   0.318  0.00  0.00    +0.020 A 
ATOM     13  C   LIG    1       -3.466   2.372   0.558  0.00  0.00    +0.030 A 
ATOM     14  C   LIG    1       -3.286   3.725   0.778  0.00  0.00    -0.020 A 
ATOM     15  C   LIG    1       -2.014   4.268   0.762  0.00  0.00    +0.030 A 
ATOM     16  C   LIG    1       -0.919   3.460   0.528  0.00  0.00    -0.040 A 
ENDBRANCH   8  11
ENDBRANCH   1   9
BRANCH   3  17
ATOM     17  S   LIG    1        2.818  -4.183  -1.662  0.00  0.00    +2.720 S 
ATOM     18  O   LIG    1        1.866  -5.081  -1.107  0.00  0.00    -0.950 OA
ATOM     19  O   LIG    1        4.205  -4.235  -1.356  0.00  0.00    -0.960 OA
BRANCH  17  20
ATOM     20  N   LIG    1        2.697  -4.330  -3.307  0.00  0.00    -0.990 NA
ATOM     21  C   LIG    1        3.825  -3.968  -4.176  0.00  0.00    +0.290 C 
ATOM     22  C   LIG    1        3.336  -2.968  -5.228  0.00  0.00    +0.020 C 
ATOM     23  C   LIG    1        2.135  -3.560  -5.970  0.00  0.00    +0.000 C 
ATOM     24  C   LIG    1        0.997  -3.815  -4.979  0.00  0.00    +0.150 C 
ATOM     25  C   LIG    1        1.461  -4.830  -3.924  0.00  0.00    +0.320 C 
BRANCH  24  26
ATOM     26  O   LIG    1       -0.135  -4.338  -5.678  0.00  0.00    -0.560 OA
ATOM     27  H   LIG    1       -0.480  -3.750  -6.364  0.00  0.00    +0.380 HD
ENDBRANCH  24  26
ENDBRANCH  17  20
ENDBRANCH   3  17
TORSDOF 5
