REMARK  Name = ZINCrg00000fSFIc.0
REMARK                            x       y       z     vdW  Elec       q    Type
REMARK                         _______ _______ _______ _____ _____    ______ ____
ROOT
ATOM      1  O   LIG    1       -0.141   3.726  -2.305  0.00  0.00    -0.490 OA
ATOM      2  C   LIG    1        1.022   4.074  -2.230  0.00  0.00    +0.560 C 
ATOM      3  N   LIG    1        1.663   4.031  -1.046  0.00  0.00    -0.720 N 
ATOM      4  H   LIG    1        2.591   4.309  -0.986  0.00  0.00    +0.400 HD
ENDROOT
BRANCH   2   5
ATOM      5  C   LIG    1        1.732   4.543  -3.439  0.00  0.00    -0.100 A 
ATOM      6  C   LIG    1        3.026   5.056  -3.337  0.00  0.00    +0.040 A 
ATOM      7  C   LIG    1        3.683   5.492  -4.469  0.00  0.00    +0.020 A 
ATOM      8  C   LIG    1        3.062   5.422  -5.704  0.00  0.00    +0.030 A 
ATOM      9  C   LIG    1        1.779   4.914  -5.812  0.00  0.00    +0.020 A 
ATOM     10  C   LIG    1        1.113   4.470  -4.689  0.00  0.00    -0.060 A 
BRANCH  10  11
ATOM     11  C   LIG    1       -0.281   3.911  -4.809  0.00  0.00    +0.380 C 
BRANCH  11  12
ATOM     12  N   LIG    1       -1.256   4.965  -4.515  0.00  0.00    -0.360 N 
ATOM     13  C   LIG    1       -2.269   5.367  -5.303  0.00  0.00    +0.450 A 
ATOM     14  N   LIG    1       -2.907   6.327  -4.684  0.00  0.00    -0.550 NA
ATOM     15  C   LIG    1       -2.335   6.563  -3.504  0.00  0.00    +0.390 A 
ATOM     16  N   LIG    1       -1.323   5.750  -3.353  0.00  0.00    -0.280 NA
ENDBRANCH  11  12
ENDBRANCH  10  11
ENDBRANCH   2   5
BRANCH   3  17
ATOM     17  C   LIG    1        0.960   3.566   0.152  0.00  0.00    +0.260 C 
ATOM     18  C   LIG    1        1.634   4.138   1.416  0.00  0.00    +0.050 C 
ATOM     19  C   LIG    1        1.540   2.988   2.450  0.00  0.00    +0.000 C 
ATOM     20  C   LIG    1        1.784   1.728   1.582  0.00  0.00    -0.010 C 
ATOM     21  C   LIG    1        1.055   2.034   0.258  0.00  0.00    +0.150 C 
BRANCH  21  22
ATOM     22  O   LIG    1       -0.255   1.462   0.276  0.00  0.00    -0.550 OA
ATOM     23  H   LIG    1       -0.262   0.499   0.363  0.00  0.00    +0.380 HD
ENDBRANCH  21  22
BRANCH  19  24
ATOM     24  C   LIG    1        2.626   3.129   3.518  0.00  0.00    +0.330 C 
BRANCH  24  25
ATOM     25  N   LIG    1        2.515   2.026   4.476  0.00  0.00    -0.370 N 
ATOM     26  C   LIG    1        3.497   1.163   4.810  0.00  0.00    +0.220 A 
ATOM     27  C   LIG    1        2.994   0.301   5.725  0.00  0.00    -0.120 A 
ATOM     28  C   LIG    1        1.657   0.644   5.951  0.00  0.00    +0.220 A 
ATOM     29  N   LIG    1        1.369   1.678   5.203  0.00  0.00    -0.290 NA
ENDBRANCH  24  25
ENDBRANCH  19  24
ENDBRANCH   3  17
TORSDOF 7
