REMARK  Name = ZINCrH000004sHaq.1
REMARK                            x       y       z     vdW  Elec       q    Type
REMARK                         _______ _______ _______ _____ _____    ______ ____
ROOT
ATOM      1  C   LIG    1        4.644   0.698   5.686  0.00  0.00    +0.150 C 
ATOM      2  C   LIG    1        5.822   0.264   4.811  0.00  0.00    +0.020 C 
ATOM      3  C   LIG    1        7.071   0.162   5.694  0.00  0.00    +0.030 C 
ATOM      4  C   LIG    1        6.886  -1.001   6.671  0.00  0.00    +0.260 C 
ATOM      5  N   LIG    1        5.605  -0.892   7.357  0.00  0.00    -0.600 N 
ATOM      6  C   LIG    1        4.583  -0.155   6.921  0.00  0.00    +0.530 C 
ATOM      7  O   LIG    1        3.550  -0.174   7.555  0.00  0.00    -0.520 OA
ENDROOT
BRANCH   1   8
ATOM      8  N   LIG    1        3.393   0.550   4.929  0.00  0.00    -0.660 NA
ATOM      9  H   LIG    1        3.549   0.690   3.942  0.00  0.00    +0.340 HD
BRANCH   8  10
ATOM     10  C   LIG    1        2.361   1.464   5.434  0.00  0.00    +0.270 C 
BRANCH  10  16
ATOM     11  C   LIG    1        0.223  -0.842   5.825  0.00  0.00    +0.140 C 
ATOM     12  C   LIG    1        0.152   0.267   4.807  0.00  0.00    +0.100 A 
ATOM     13  N   LIG    1       -0.804   0.444   3.931  0.00  0.00    -0.300 NA
ATOM     14  N   LIG    1       -0.498   1.581   3.173  0.00  0.00    -0.370 N 
ATOM     15  C   LIG    1        0.675   2.075   3.621  0.00  0.00    +0.230 A 
ATOM     16  C   LIG    1        1.096   1.284   4.635  0.00  0.00    -0.230 A 
BRANCH  14  17
ATOM     17  C   LIG    1       -1.306   2.134   2.083  0.00  0.00    +0.260 C 
ATOM     18  C   LIG    1       -1.203   3.660   2.095  0.00  0.00    +0.050 C 
ATOM     19  C   LIG    1       -0.791   1.598   0.745  0.00  0.00    +0.050 C 
ENDBRANCH  14  17
ENDBRANCH  10  16
ENDBRANCH   8  10
ENDBRANCH   1   8
BRANCH   5  20
ATOM     20  C   LIG    1        5.429  -1.640   8.605  0.00  0.00    +0.280 C 
ATOM     21  C   LIG    1        4.331  -2.689   8.419  0.00  0.00    +0.050 C 
BRANCH  20  22
ATOM     22  C   LIG    1        5.036  -0.691   9.708  0.00  0.00    -0.130 A 
ATOM     23  C   LIG    1        3.735  -0.672  10.172  0.00  0.00    +0.100 A 
ATOM     24  C   LIG    1        3.375   0.194  11.188  0.00  0.00    -0.010 A 
ATOM     25  C   LIG    1        4.314   1.050  11.732  0.00  0.00    +0.040 A 
ATOM     26  C   LIG    1        5.615   1.036  11.266  0.00  0.00    -0.030 A 
ATOM     27  C   LIG    1        5.978   0.165  10.253  0.00  0.00    +0.100 A 
ATOM     28  F   LIG    1        7.249   0.151   9.796  0.00  0.00    -0.140 F 
ENDBRANCH  20  22
ENDBRANCH   5  20
TORSDOF 6
