REMARK  Name = ZINCqH0000001Ryk.0
REMARK                            x       y       z     vdW  Elec       q    Type
REMARK                         _______ _______ _______ _____ _____    ______ ____
ROOT
ATOM      1  N   LIG    1        1.197  -0.631   0.011  0.00  0.00    -0.350 N 
ATOM      2  N   LIG    1        2.318  -0.014  -0.004  0.00  0.00    -0.190 NA
ATOM      3  C   LIG    1        2.442   1.291  -0.008  0.00  0.00    +0.050 A 
ATOM      4  C   LIG    1        1.232   2.128   0.006  0.00  0.00    -0.030 A 
ATOM      5  C   LIG    1        1.277   3.517   0.004  0.00  0.00    +0.070 A 
ATOM      6  C   LIG    1        0.098   4.233   0.019  0.00  0.00    +0.060 A 
ATOM      7  C   LIG    1       -1.129   3.582   0.036  0.00  0.00    +0.030 A 
ATOM      8  C   LIG    1       -1.196   2.204   0.043  0.00  0.00    +0.090 A 
ATOM      9  C   LIG    1       -0.018   1.465   0.023  0.00  0.00    -0.140 A 
ATOM     10  C   LIG    1        0.003  -0.005   0.025  0.00  0.00    +0.520 A 
ATOM     11  O   LIG    1       -1.035  -0.642   0.039  0.00  0.00    -0.500 OA
ENDROOT
BRANCH   3  12
ATOM     12  C   LIG    1        3.780   1.913  -0.026  0.00  0.00    +0.600 C 
ATOM     13  N   LIG    1        4.884   1.139  -0.039  0.00  0.00    -0.650 N 
ATOM     14  H   LIG    1        4.801   0.175   0.031  0.00  0.00    +0.420 HD
ATOM     15  O   LIG    1        3.888   3.124  -0.029  0.00  0.00    -0.500 OA
BRANCH  13  16
ATOM     16  C   LIG    1        6.148   1.726  -0.154  0.00  0.00    +0.140 A 
ATOM     17  C   LIG    1        6.403   2.954   0.441  0.00  0.00    +0.020 A 
ATOM     18  C   LIG    1        7.652   3.528   0.325  0.00  0.00    +0.040 A 
ATOM     19  C   LIG    1        8.654   2.884  -0.383  0.00  0.00    -0.110 A 
ATOM     20  C   LIG    1       10.085   3.299  -0.651  0.00  0.00    +0.080 C 
ATOM     21  C   LIG    1       10.548   2.417  -1.830  0.00  0.00    +0.030 C 
ATOM     22  C   LIG    1        9.649   1.170  -1.683  0.00  0.00    +0.080 C 
ATOM     23  C   LIG    1        8.404   1.660  -0.977  0.00  0.00    -0.080 A 
ATOM     24  C   LIG    1        7.154   1.079  -0.859  0.00  0.00    -0.010 A 
ENDBRANCH  13  16
ENDBRANCH   3  12
BRANCH   1  26
ATOM     25  C   LIG    1        1.922  -2.601  -1.245  0.00  0.00    +0.050 C 
ATOM     26  C   LIG    1        1.212  -2.096   0.013  0.00  0.00    +0.250 C 
ATOM     27  C   LIG    1        1.954  -2.597   1.254  0.00  0.00    +0.050 C 
ENDBRANCH   1  26
TORSDOF 3
