REMARK  Name = ZINCrH000004pvLR.0
REMARK                            x       y       z     vdW  Elec       q    Type
REMARK                         _______ _______ _______ _____ _____    ______ ____
ROOT
ATOM      1  N   LIG    1        2.272  -2.853  -0.082  0.00  0.00    -0.740 N 
ATOM      2  H   LIG    1        3.121  -2.395  -0.175  0.00  0.00    +0.400 HD
ENDROOT
BRANCH   1   3
ATOM      3  C   LIG    1        1.086  -2.117   0.008  0.00  0.00    +0.230 A 
ATOM      4  C   LIG    1       -0.131  -2.773   0.141  0.00  0.00    -0.060 A 
ATOM      5  C   LIG    1       -1.303  -2.047   0.230  0.00  0.00    +0.060 A 
ATOM      6  C   LIG    1       -1.268  -0.665   0.192  0.00  0.00    +0.000 A 
ATOM      7  C   LIG    1       -0.052  -0.003   0.053  0.00  0.00    +0.190 A 
ATOM      8  F   LIG    1       -2.415   0.043   0.284  0.00  0.00    -0.140 F 
ATOM      9  C   LIG    1        1.125  -0.730  -0.036  0.00  0.00    -0.020 A 
BRANCH   7  10
ATOM     10  N   LIG    1       -0.017   1.397   0.010  0.00  0.00    -0.680 N 
ATOM     11  H   LIG    1       -0.733   1.912   0.412  0.00  0.00    +0.410 HD
ATOM     12  C   LIG    1        1.009   2.026  -0.596  0.00  0.00    +0.710 C 
ATOM     13  O   LIG    1        1.851   1.382  -1.193  0.00  0.00    -0.570 OA
ATOM     14  N   LIG    1        1.103   3.369  -0.540  0.00  0.00    -0.860 N 
ATOM     15  H   LIG    1        1.842   3.823  -0.976  0.00  0.00    +0.420 HD
ATOM     16  H   LIG    1        0.432   3.883  -0.064  0.00  0.00    +0.400 HD
ENDBRANCH   7  10
ENDBRANCH   1   3
BRANCH   1  18
ATOM     17  C   LIG    1        1.956  -4.864  -1.438  0.00  0.00    +0.030 C 
ATOM     18  C   LIG    1        2.230  -4.317  -0.035  0.00  0.00    +0.290 C 
BRANCH  18  19
ATOM     19  C   LIG    1        3.554  -4.842   0.459  0.00  0.00    -0.110 A 
ATOM     20  C   LIG    1        4.731  -4.254   0.037  0.00  0.00    +0.100 A 
ATOM     21  C   LIG    1        5.945  -4.735   0.491  0.00  0.00    +0.010 A 
ATOM     22  C   LIG    1        5.982  -5.803   1.367  0.00  0.00    +0.140 A 
ATOM     23  C   LIG    1        4.804  -6.391   1.789  0.00  0.00    -0.650 A 
ATOM     24  C   LIG    1        3.590  -5.907   1.339  0.00  0.00    +0.150 A 
BRANCH  23  25
ATOM     25  S   LIG    1        4.850  -7.753   2.906  0.00  0.00    +2.490 S 
ATOM     26  O   LIG    1        6.118  -8.352   2.677  0.00  0.00    -0.860 OA
ATOM     27  O   LIG    1        3.647  -8.462   2.644  0.00  0.00    -0.860 OA
BRANCH  25  28
ATOM     28  C   LIG    1        4.795  -6.991   4.552  0.00  0.00    -0.020 C 
ATOM     29  F   LIG    1        5.898  -6.146   4.712  0.00  0.00    -0.160 F 
ATOM     30  F   LIG    1        4.826  -7.990   5.530  0.00  0.00    -0.160 F 
ATOM     31  F   LIG    1        3.616  -6.248   4.682  0.00  0.00    -0.160 F 
ENDBRANCH  25  28
ENDBRANCH  23  25
ENDBRANCH  18  19
ENDBRANCH   1  18
TORSDOF 6
