REMARK  Name = ZINCrH00000No4WJ.0
REMARK                            x       y       z     vdW  Elec       q    Type
REMARK                         _______ _______ _______ _____ _____    ______ ____
ROOT
ATOM      1  C   LIG    1        1.728   7.433   2.633  0.00  0.00    +0.520 C 
ATOM      2  N   LIG    1        1.502   6.800   1.465  0.00  0.00    -0.730 N 
ATOM      3  H   LIG    1        1.648   7.263   0.626  0.00  0.00    +0.400 HD
ATOM      4  O   LIG    1        1.545   6.853   3.683  0.00  0.00    -0.530 OA
ENDROOT
BRANCH   1   8
ATOM      5  C   LIG    1        4.210  10.878   3.347  0.00  0.00    +0.230 C 
ATOM      6  C   LIG    1        4.033  10.402   1.904  0.00  0.00    +0.020 C 
ATOM      7  C   LIG    1        3.547   8.951   1.902  0.00  0.00    +0.030 C 
ATOM      8  C   LIG    1        2.207   8.861   2.636  0.00  0.00    -0.010 C 
ATOM      9  C   LIG    1        2.383   9.338   4.079  0.00  0.00    +0.050 C 
ATOM     10  C   LIG    1        2.870  10.788   4.081  0.00  0.00    +0.030 C 
BRANCH   5  13
ATOM     11  C   LIG    1        7.523   9.433   4.607  0.00  0.00    +0.090 C 
ATOM     12  C   LIG    1        6.510  10.304   3.910  0.00  0.00    +0.510 C 
ATOM     13  N   LIG    1        5.195  10.031   4.024  0.00  0.00    -0.730 N 
ATOM     14  H   LIG    1        4.901   9.274   4.555  0.00  0.00    +0.400 HD
ATOM     15  O   LIG    1        6.877  11.251   3.247  0.00  0.00    -0.550 OA
ENDBRANCH   5  13
ENDBRANCH   1   8
BRANCH   2  16
ATOM     16  C   LIG    1        1.036   5.411   1.463  0.00  0.00    +0.280 C 
BRANCH  16  17
ATOM     17  C   LIG    1        0.860   4.934   0.020  0.00  0.00    +0.140 C 
BRANCH  17  18
ATOM     18  C   LIG    1        0.380   3.506   0.017  0.00  0.00    +0.050 A 
ATOM     19  N   LIG    1       -0.858   3.142   0.027  0.00  0.00    -0.460 NA
ATOM     20  C   LIG    1       -1.104   1.847   0.017  0.00  0.00    +0.080 A 
ATOM     21  C   LIG    1       -0.013   1.076   0.008  0.00  0.00    -0.070 A 
ATOM     22  S   LIG    1        1.398   2.132   0.000  0.00  0.00    +0.120 S 
BRANCH  20  23
ATOM     23  C   LIG    1       -2.501   1.283   0.019  0.00  0.00    +0.020 C 
ATOM     24  C   LIG    1       -2.840   0.754  -1.376  0.00  0.00    +0.020 C 
ATOM     25  C   LIG    1       -4.258   0.181  -1.374  0.00  0.00    +0.010 C 
ATOM     26  C   LIG    1       -5.252   1.280  -0.990  0.00  0.00    +0.000 C 
ATOM     27  C   LIG    1       -4.913   1.809   0.405  0.00  0.00    +0.000 C 
ATOM     28  C   LIG    1       -2.588   0.140   1.033  0.00  0.00    +0.050 C 
ATOM     29  C   LIG    1       -3.494   2.382   0.403  0.00  0.00    +0.030 C 
ENDBRANCH  20  23
ENDBRANCH  17  18
ENDBRANCH  16  17
ENDBRANCH   2  16
TORSDOF 6
