REMARK  Name = ZINCrH00000No4Nv.0
REMARK                            x       y       z     vdW  Elec       q    Type
REMARK                         _______ _______ _______ _____ _____    ______ ____
ROOT
ATOM      1  N   LIG    1       -2.145  -0.411   1.390  0.00  0.00    -0.590 N 
ENDROOT
BRANCH   1   2
ATOM      2  C   LIG    1       -2.111  -1.196   0.243  0.00  0.00    +0.380 A 
ATOM      3  C   LIG    1       -1.996  -0.598  -1.009  0.00  0.00    +0.170 A 
ATOM      4  N   LIG    1       -1.958  -1.346  -2.095  0.00  0.00    -0.390 NA
ATOM      5  C   LIG    1       -2.041  -2.662  -1.997  0.00  0.00    +0.170 A 
ATOM      6  C   LIG    1       -2.161  -3.260  -0.755  0.00  0.00    +0.180 A 
ATOM      7 CL   LIG    1       -2.269  -4.989  -0.632  0.00  0.00    -0.010 Cl
ATOM      8  N   LIG    1       -2.194  -2.517   0.339  0.00  0.00    -0.500 NA
ENDBRANCH   1   2
BRANCH   1   9
ATOM      9  C   LIG    1       -2.164   1.050   1.278  0.00  0.00    +0.290 C 
BRANCH   9  11
ATOM     10  C   LIG    1       -0.013   1.086   0.008  0.00  0.00    +0.030 C 
ATOM     11  C   LIG    1       -0.729   1.579   1.267  0.00  0.00    -0.020 C 
BRANCH  11  12
ATOM     12  C   LIG    1       -0.750   3.109   1.275  0.00  0.00    -0.040 C 
ATOM     13  C   LIG    1        0.687   3.640   1.268  0.00  0.00    +0.010 C 
ATOM     14  C   LIG    1        0.654   5.170   1.356  0.00  0.00    -0.020 C 
ATOM     15  C   LIG    1       -0.113   5.585   2.614  0.00  0.00    +0.200 C 
ATOM     16  O   LIG    1       -1.431   5.032   2.571  0.00  0.00    -0.380 OA
ATOM     17  C   LIG    1       -1.463   3.604   2.536  0.00  0.00    +0.200 C 
ENDBRANCH  11  12
ENDBRANCH   9  11
ENDBRANCH   1   9
BRANCH   1  18
ATOM     18  C   LIG    1       -2.162  -1.044   2.711  0.00  0.00    +0.350 C 
BRANCH  18  19
ATOM     19  C   LIG    1       -3.588  -1.282   3.136  0.00  0.00    -0.110 A 
ATOM     20  C   LIG    1       -4.266  -0.314   3.853  0.00  0.00    +0.020 A 
ATOM     21  C   LIG    1       -5.575  -0.531   4.240  0.00  0.00    +0.000 A 
ATOM     22  C   LIG    1       -6.204  -1.719   3.917  0.00  0.00    -0.080 A 
ATOM     23  C   LIG    1       -5.524  -2.689   3.204  0.00  0.00    +0.000 A 
ATOM     24  C   LIG    1       -4.216  -2.471   2.814  0.00  0.00    +0.040 A 
BRANCH  22  25
ATOM     25  C   LIG    1       -7.630  -1.957   4.342  0.00  0.00    +0.080 C 
BRANCH  25  26
ATOM     26  C   LIG    1       -7.646  -2.619   5.721  0.00  0.00    +0.180 C 
BRANCH  26  27
ATOM     27  O   LIG    1       -8.999  -2.845   6.125  0.00  0.00    -0.580 OA
ATOM     28  H   LIG    1       -9.086  -3.264   6.992  0.00  0.00    +0.380 HD
ENDBRANCH  26  27
ENDBRANCH  25  26
ENDBRANCH  22  25
ENDBRANCH  18  19
ENDBRANCH   1  18
TORSDOF 9
