REMARK  Name = ZINCqH0000050kC8.0
REMARK                            x       y       z     vdW  Elec       q    Type
REMARK                         _______ _______ _______ _____ _____    ______ ____
ROOT
ATOM      1  C   LIG    1       -0.014   1.204   0.009  0.00  0.00    +0.470 C 
ATOM      2  O   LIG    1        0.002  -0.004   0.002  0.00  0.00    -0.490 OA
ENDROOT
BRANCH   1   3
ATOM      3  O   LIG    1       -1.186   1.859   0.018  0.00  0.00    -0.350 OA
BRANCH   3   4
ATOM      4  C   LIG    1       -2.393   1.052   0.019  0.00  0.00    +0.260 C 
BRANCH   4   5
ATOM      5  C   LIG    1       -3.619   1.968   0.030  0.00  0.00    +0.230 C 
BRANCH   5   6
ATOM      6  O   LIG    1       -3.665   2.715  -1.187  0.00  0.00    -0.310 OA
BRANCH   6  12
ATOM      7  C   LIG    1       -7.738   4.732   0.593  0.00  0.00    +0.090 C 
ATOM      8  C   LIG    1       -6.704   4.593  -0.494  0.00  0.00    -0.050 A 
ATOM      9  C   LIG    1       -6.808   5.348  -1.648  0.00  0.00    -0.030 A 
ATOM     10  C   LIG    1       -5.861   5.222  -2.647  0.00  0.00    +0.050 A 
ATOM     11  C   LIG    1       -4.808   4.341  -2.496  0.00  0.00    -0.120 A 
ATOM     12  C   LIG    1       -4.700   3.583  -1.339  0.00  0.00    +0.130 A 
ATOM     13  C   LIG    1       -3.776   4.204  -3.586  0.00  0.00    +0.090 C 
ATOM     14  C   LIG    1       -5.655   3.707  -0.340  0.00  0.00    -0.080 A 
ENDBRANCH   6  12
ENDBRANCH   5   6
ENDBRANCH   4   5
ENDBRANCH   3   4
ENDBRANCH   1   3
BRANCH   1  15
ATOM     15  C   LIG    1        1.280   1.975   0.000  0.00  0.00    +0.130 C 
BRANCH  15  16
ATOM     16  C   LIG    1        2.457   0.997  -0.016  0.00  0.00    +0.070 C 
ATOM     17  S   LIG    1        2.454   0.066  -1.577  0.00  0.00    -0.050 S 
ATOM     18  C   LIG    1        3.044   1.284  -2.719  0.00  0.00    -0.140 A 
ATOM     19  C   LIG    1        2.641   1.242  -4.044  0.00  0.00    +0.080 A 
ATOM     20  C   LIG    1        3.118   2.183  -4.939  0.00  0.00    +0.020 A 
ATOM     21  C   LIG    1        3.994   3.162  -4.509  0.00  0.00    +0.050 A 
ATOM     22  C   LIG    1        4.394   3.211  -3.188  0.00  0.00    -0.010 A 
ATOM     23  C   LIG    1        3.920   2.274  -2.276  0.00  0.00    +0.160 A 
ATOM     24  N   LIG    1        4.331   2.353  -0.948  0.00  0.00    -0.650 N 
ATOM     25  H   LIG    1        5.116   2.892  -0.763  0.00  0.00    +0.420 HD
ATOM     26  C   LIG    1        3.751   1.760   0.091  0.00  0.00    +0.530 C 
ATOM     27  O   LIG    1        4.288   1.839   1.176  0.00  0.00    -0.500 OA
ENDBRANCH  15  16
ENDBRANCH   1  15
TORSDOF 7
