REMARK  Name = ZINCrH000004v9Q6.0
REMARK                            x       y       z     vdW  Elec       q    Type
REMARK                         _______ _______ _______ _____ _____    ______ ____
ROOT
ATOM      1  O   LIG    1       -2.978   4.619  -0.989  0.00  0.00    -0.560 OA
ATOM      2  C   LIG    1       -2.446   4.311   0.060  0.00  0.00    +0.710 C 
ATOM      3  N   LIG    1       -1.419   3.438   0.063  0.00  0.00    -0.620 N 
ATOM      4  C   LIG    1       -0.694   3.140   1.306  0.00  0.00    +0.270 C 
ATOM      5  C   LIG    1       -0.684   1.623   1.519  0.00  0.00    +0.040 C 
ATOM      6  C   LIG    1       -0.107   0.941   0.276  0.00  0.00    +0.040 C 
ATOM      7  C   LIG    1       -0.989   1.253  -0.935  0.00  0.00    +0.090 C 
ATOM      8  C   LIG    1       -1.004   2.766  -1.175  0.00  0.00    +0.300 C 
ATOM      9  N   LIG    1       -2.882   4.843   1.219  0.00  0.00    -0.680 N 
ATOM     10  H   LIG    1       -2.416   4.650   2.047  0.00  0.00    +0.410 HD
ENDROOT
BRANCH   7  11
ATOM     11  C   LIG    1       -0.439   0.555  -2.152  0.00  0.00    +0.290 A 
ATOM     12  N   LIG    1       -0.831  -0.608  -2.584  0.00  0.00    -0.480 NA
ATOM     13  C   LIG    1       -0.132  -0.939  -3.701  0.00  0.00    +0.050 A 
ATOM     14  C   LIG    1       -0.147  -2.044  -4.555  0.00  0.00    +0.070 A 
ATOM     15  C   LIG    1        0.704  -2.091  -5.623  0.00  0.00    +0.000 A 
ATOM     16  C   LIG    1        1.587  -1.050  -5.870  0.00  0.00    +0.030 A 
ATOM     17  C   LIG    1        1.619   0.051  -5.041  0.00  0.00    +0.010 A 
ATOM     18  C   LIG    1        0.762   0.117  -3.952  0.00  0.00    +0.050 A 
ATOM     19  N   LIG    1        0.543   1.046  -2.954  0.00  0.00    -0.600 N 
ATOM     20  H   LIG    1        1.005   1.892  -2.846  0.00  0.00    +0.420 HD
ENDBRANCH   7  11
BRANCH   9  21
ATOM     21  C   LIG    1       -4.010   5.675   1.227  0.00  0.00    +0.170 A 
ATOM     22  C   LIG    1       -4.891   5.638   2.299  0.00  0.00    +0.010 A 
ATOM     23  C   LIG    1       -6.004   6.459   2.309  0.00  0.00    +0.060 A 
ATOM     24  C   LIG    1       -6.242   7.320   1.250  0.00  0.00    +0.020 A 
ATOM     25  O   LIG    1       -7.247   8.216   1.022  0.00  0.00    -0.310 OA
ATOM     26  C   LIG    1       -6.753   9.094  -0.007  0.00  0.00    +0.430 C 
ATOM     27  O   LIG    1       -5.811   8.278  -0.729  0.00  0.00    -0.310 OA
ATOM     28  C   LIG    1       -5.359   7.359   0.173  0.00  0.00    +0.050 A 
ATOM     29  C   LIG    1       -4.242   6.540   0.167  0.00  0.00    +0.050 A 
ENDBRANCH   9  21
TORSDOF 2
