REMARK  Name = ZINCrg000000rUpM.0
REMARK                            x       y       z     vdW  Elec       q    Type
REMARK                         _______ _______ _______ _____ _____    ______ ____
ROOT
ATOM      1  N   LIG    1       -5.582   1.684   3.112  0.00  0.00    -0.260 N 
ATOM      2  N   LIG    1       -6.638   1.767   2.188  0.00  0.00    -0.080 NA
ATOM      3  N   LIG    1       -6.215   1.245   1.088  0.00  0.00    -0.030 NA
ATOM      4  N   LIG    1       -5.001   0.847   1.220  0.00  0.00    -0.310 NA
ATOM      5  C   LIG    1       -4.568   1.087   2.440  0.00  0.00    +0.210 A 
ENDROOT
BRANCH   1   8
ATOM      6  C   LIG    1       -7.493   0.671   5.280  0.00  0.00    +0.190 C 
ATOM      7  C   LIG    1       -6.406   1.704   5.429  0.00  0.00    +0.250 A 
ATOM      8  C   LIG    1       -5.578   2.128   4.448  0.00  0.00    -0.130 A 
ATOM      9  C   LIG    1       -4.709   3.104   5.000  0.00  0.00    +0.550 A 
ATOM     10  N   LIG    1       -5.027   3.244   6.303  0.00  0.00    -0.360 N 
ATOM     11  O   LIG    1       -3.834   3.707   4.405  0.00  0.00    -0.500 OA
ATOM     12  N   LIG    1       -6.086   2.369   6.582  0.00  0.00    -0.370 N 
ATOM     13  C   LIG    1       -6.741   2.201   7.881  0.00  0.00    +0.380 C 
BRANCH  10  14
ATOM     14  C   LIG    1       -4.410   4.107   7.214  0.00  0.00    +0.140 A 
ATOM     15  C   LIG    1       -5.181   4.936   8.019  0.00  0.00    +0.010 A 
ATOM     16  C   LIG    1       -4.569   5.785   8.921  0.00  0.00    +0.030 A 
ATOM     17  C   LIG    1       -3.190   5.816   9.016  0.00  0.00    +0.020 A 
ATOM     18  C   LIG    1       -2.419   4.996   8.213  0.00  0.00    +0.040 A 
ATOM     19  C   LIG    1       -3.025   4.142   7.312  0.00  0.00    +0.030 A 
ENDBRANCH  10  14
ENDBRANCH   1   8
BRANCH   5  20
ATOM     20  S   LIG    1       -2.969   0.708   3.077  0.00  0.00    +0.080 S 
BRANCH  20  21
ATOM     21  C   LIG    1       -2.221  -0.054   1.616  0.00  0.00    +0.030 C 
BRANCH  21  22
ATOM     22  C   LIG    1       -2.949  -1.333   1.288  0.00  0.00    +0.530 C 
ATOM     23  O   LIG    1       -3.535  -1.443   0.232  0.00  0.00    -0.500 OA
ATOM     24  N   LIG    1       -2.947  -2.354   2.168  0.00  0.00    -0.850 N 
ATOM     25  H   LIG    1       -3.478  -3.146   1.992  0.00  0.00    +0.410 HD
ATOM     26  H   LIG    1       -2.415  -2.296   2.977  0.00  0.00    +0.400 HD
ENDBRANCH  21  22
BRANCH  21  27
ATOM     27  C   LIG    1       -0.749  -0.363   1.899  0.00  0.00    +0.010 C 
ATOM     28  C   LIG    1       -0.133  -1.062   0.685  0.00  0.00    +0.050 C 
ATOM     29  C   LIG    1        0.002   0.941   2.173  0.00  0.00    +0.050 C 
ENDBRANCH  21  27
ENDBRANCH  20  21
ENDBRANCH   5  20
TORSDOF 6
