REMARK  Name = ZINCtV000002EM1L.0
REMARK                            x       y       z     vdW  Elec       q    Type
REMARK                         _______ _______ _______ _____ _____    ______ ____
ROOT
ATOM      1  N   LIG    1        2.879   0.771  -1.401  0.00  0.00    -0.740 N 
ATOM      2  H   LIG    1        2.311   1.062  -2.131  0.00  0.00    +0.400 HD
ATOM      3  C   LIG    1        4.028   0.115  -1.661  0.00  0.00    +0.710 C 
ATOM      4  N   LIG    1        4.386  -0.136  -2.936  0.00  0.00    -0.740 N 
ATOM      5  H   LIG    1        3.818   0.155  -3.666  0.00  0.00    +0.390 HD
ATOM      6  O   LIG    1        4.740  -0.249  -0.746  0.00  0.00    -0.580 OA
ENDROOT
BRANCH   4   7
ATOM      7  C   LIG    1        5.635  -0.848  -3.219  0.00  0.00    +0.310 C 
ATOM      8  C   LIG    1        6.796   0.148  -3.243  0.00  0.00    +0.040 C 
BRANCH   7   9
ATOM      9  C   LIG    1        5.531  -1.531  -4.558  0.00  0.00    -0.110 A 
ATOM     10  C   LIG    1        4.662  -1.045  -5.516  0.00  0.00    +0.060 A 
ATOM     11  C   LIG    1        4.566  -1.671  -6.745  0.00  0.00    +0.050 A 
ATOM     12  C   LIG    1        5.341  -2.784  -7.017  0.00  0.00    -0.070 A 
ATOM     13  C   LIG    1        6.212  -3.272  -6.059  0.00  0.00    +0.030 A 
ATOM     14 BR   LIG    1        5.209  -3.640  -8.698  0.00  0.00    -0.030 Br
ATOM     15  C   LIG    1        6.312  -2.642  -4.831  0.00  0.00    +0.120 A 
ATOM     16  F   LIG    1        7.166  -3.114  -3.897  0.00  0.00    -0.120 F 
ENDBRANCH   7   9
ENDBRANCH   4   7
BRANCH   1  17
ATOM     17  C   LIG    1        2.489   1.044  -0.016  0.00  0.00    +0.340 C 
BRANCH  17  21
ATOM     18  C   LIG    1       -1.237   3.138   0.030  0.00  0.00    +0.130 A 
ATOM     19  C   LIG    1       -1.218   1.750   0.058  0.00  0.00    -0.020 A 
ATOM     20  C   LIG    1       -0.012   1.076   0.048  0.00  0.00    +0.060 A 
ATOM     21  C   LIG    1        1.176   1.782   0.000  0.00  0.00    -0.120 A 
ATOM     22  C   LIG    1        1.161   3.165  -0.032  0.00  0.00    +0.070 A 
ATOM     23  C   LIG    1       -0.041   3.845  -0.017  0.00  0.00    -0.050 A 
ATOM     24 CL   LIG    1       -0.059   5.580  -0.059  0.00  0.00    -0.050 Cl
BRANCH  18  30
ATOM     25  C   LIG    1       -6.051   2.740  -0.506  0.00  0.00    +0.020 C 
ATOM     26  C   LIG    1       -4.878   3.700  -0.298  0.00  0.00    -0.010 C 
ATOM     27  C   LIG    1       -5.099   4.507   0.985  0.00  0.00    +0.010 C 
ATOM     28  C   LIG    1       -3.893   5.422   1.217  0.00  0.00    +0.020 C 
ATOM     29  C   LIG    1       -2.622   4.573   1.296  0.00  0.00    +0.180 C 
ATOM     30  N   LIG    1       -2.456   3.822   0.045  0.00  0.00    -0.490 N 
ATOM     31  C   LIG    1       -3.579   2.901  -0.175  0.00  0.00    +0.190 C 
ENDBRANCH  18  30
ENDBRANCH  17  21
ENDBRANCH   1  17
TORSDOF 5
