REMARK  Name = ZINCrg00000fR804.0
REMARK                            x       y       z     vdW  Elec       q    Type
REMARK                         _______ _______ _______ _____ _____    ______ ____
ROOT
ATOM      1  N   LIG    1       -1.167  -2.062   0.017  0.00  0.00    -1.100 NA
ATOM      2  H   LIG    1       -0.366  -2.287   0.516  0.00  0.00    +0.430 HD
ENDROOT
BRANCH   1   3
ATOM      3  S   LIG    1       -1.980  -3.240  -0.815  0.00  0.00    +2.700 S 
ATOM      4  O   LIG    1       -3.351  -3.106  -0.465  0.00  0.00    -0.950 OA
ATOM      5  O   LIG    1       -1.245  -4.442  -0.631  0.00  0.00    -0.950 OA
BRANCH   3   9
ATOM      6  C   LIG    1       -1.681  -2.221  -5.218  0.00  0.00    +0.210 A 
ATOM      7  C   LIG    1       -0.714  -3.021  -4.621  0.00  0.00    +0.000 A 
ATOM      8  C   LIG    1       -0.808  -3.329  -3.278  0.00  0.00    +0.160 A 
ATOM      9  C   LIG    1       -1.864  -2.844  -2.528  0.00  0.00    -0.700 A 
ATOM     10  C   LIG    1       -2.830  -2.052  -3.120  0.00  0.00    +0.150 A 
ATOM     11  C   LIG    1       -2.739  -1.735  -4.462  0.00  0.00    -0.030 A 
BRANCH   6  14
ATOM     12  C   LIG    1       -0.856  -2.418  -8.885  0.00  0.00    +0.110 C 
ATOM     13  C   LIG    1       -1.065  -2.800  -7.442  0.00  0.00    +0.510 C 
ATOM     14  N   LIG    1       -1.589  -1.907  -6.578  0.00  0.00    -0.680 N 
ATOM     15  H   LIG    1       -1.902  -1.047  -6.900  0.00  0.00    +0.420 HD
ATOM     16  O   LIG    1       -0.763  -3.910  -7.058  0.00  0.00    -0.520 OA
ENDBRANCH   6  14
ENDBRANCH   3   9
ENDBRANCH   1   3
BRANCH   1  17
ATOM     17  C   LIG    1       -1.656  -0.682  -0.000  0.00  0.00    +0.290 C 
ATOM     18  C   LIG    1       -2.531  -0.436   1.230  0.00  0.00    +0.080 C 
BRANCH  17  19
ATOM     19  C   LIG    1       -0.486   0.267   0.018  0.00  0.00    +0.460 C 
ATOM     20  O   LIG    1        0.642  -0.166   0.043  0.00  0.00    -0.490 OA
BRANCH  19  21
ATOM     21  O   LIG    1       -0.696   1.593   0.006  0.00  0.00    -0.330 OA
BRANCH  21  22
ATOM     22  C   LIG    1        0.478   2.446   0.025  0.00  0.00    +0.250 C 
BRANCH  22  23
ATOM     23  C   LIG    1        0.050   3.891   0.009  0.00  0.00    +0.420 C 
ATOM     24  O   LIG    1       -1.131   4.173  -0.017  0.00  0.00    -0.450 OA
BRANCH  23  25
ATOM     25  C   LIG    1        1.022   4.917   0.022  0.00  0.00    -0.100 A 
ATOM     26  C   LIG    1        2.395   4.745   0.057  0.00  0.00    +0.040 A 
ATOM     27  C   LIG    1        2.965   6.019   0.055  0.00  0.00    -0.060 A 
ATOM     28  C   LIG    1        1.957   6.926   0.030  0.00  0.00    +0.220 A 
ATOM     29  N   LIG    1        0.777   6.274   0.010  0.00  0.00    -0.520 N 
ATOM     30  H   LIG    1       -0.099   6.690  -0.010  0.00  0.00    +0.430 HD
ENDBRANCH  23  25
ENDBRANCH  22  23
ENDBRANCH  21  22
ENDBRANCH  19  21
ENDBRANCH  17  19
ENDBRANCH   1  17
TORSDOF 9
