REMARK  Name = ZINCkj00000dDuXY.0
REMARK                            x       y       z     vdW  Elec       q    Type
REMARK                         _______ _______ _______ _____ _____    ______ ____
ROOT
ATOM      1  C   LIG    1        1.280   1.980   0.001  0.00  0.00    +0.180 C 
ATOM      2  C   LIG    1        1.375   2.838   1.263  0.00  0.00    +0.150 C 
ATOM      3  C   LIG    1        2.756   3.431   1.374  0.00  0.00    -0.090 A 
ATOM      4  C   LIG    1        2.955   4.495   2.239  0.00  0.00    +0.040 A 
ATOM      5  C   LIG    1        4.208   5.060   2.372  0.00  0.00    +0.050 A 
ATOM      6  C   LIG    1        5.268   4.562   1.638  0.00  0.00    +0.040 A 
ATOM      7  C   LIG    1        5.070   3.503   0.774  0.00  0.00    +0.050 A 
ATOM      8  C   LIG    1        3.813   2.935   0.639  0.00  0.00    -0.140 A 
ATOM      9  C   LIG    1        3.642   1.783  -0.316  0.00  0.00    +0.340 C 
ATOM     10  N   LIG    1        2.414   1.042  -0.015  0.00  0.00    -0.490 N 
ATOM     11  H   LIG    1        2.260   0.339  -0.723  0.00  0.00    +0.440 HD
ATOM     12  H   LIG    1        2.498   0.600   0.887  0.00  0.00    +0.440 HD
ENDROOT
BRANCH   1  15
ATOM     13  N   LIG    1       -1.191   1.867   0.018  0.00  0.00    -0.700 N 
ATOM     14  H   LIG    1       -1.204   2.837   0.023  0.00  0.00    +0.410 HD
ATOM     15  C   LIG    1       -0.014   1.209   0.009  0.00  0.00    +0.510 C 
ATOM     16  O   LIG    1        0.002  -0.004   0.002  0.00  0.00    -0.520 OA
BRANCH  13  20
ATOM     17  C   LIG    1       -4.267   2.608  -0.629  0.00  0.00    +0.150 C 
ATOM     18  C   LIG    1       -4.231   1.452  -1.659  0.00  0.00    +0.000 C 
ATOM     19  C   LIG    1       -2.863   0.778  -1.423  0.00  0.00    +0.020 C 
ATOM     20  C   LIG    1       -2.449   1.117   0.020  0.00  0.00    +0.250 C 
ATOM     21  C   LIG    1       -3.580   1.984   0.611  0.00  0.00    +0.050 C 
BRANCH  17  23
ATOM     22  C   LIG    1       -6.127   4.022  -1.165  0.00  0.00    +0.200 C 
ATOM     23  O   LIG    1       -5.615   2.980  -0.332  0.00  0.00    -0.380 OA
ENDBRANCH  17  23
ENDBRANCH  13  20
ENDBRANCH   1  15
TORSDOF 3
