REMARK  Name = ZINCnE000005tHdz.1
REMARK                            x       y       z     vdW  Elec       q    Type
REMARK                         _______ _______ _______ _____ _____    ______ ____
ROOT
ATOM      1  N   LIG    1        0.752  -2.657   6.810  0.00  0.00    -0.720 N 
ATOM      2  H   LIG    1        0.312  -1.793   6.826  0.00  0.00    +0.400 HD
ATOM      3  C   LIG    1        0.666  -3.438   5.714  0.00  0.00    +0.660 C 
ATOM      4  N   LIG    1       -0.112  -3.063   4.679  0.00  0.00    -0.680 NA
ATOM      5  O   LIG    1        1.290  -4.479   5.659  0.00  0.00    -0.640 OA
ENDROOT
BRANCH   4   6
ATOM      6  C   LIG    1       -0.200  -3.867   3.549  0.00  0.00    +0.370 A 
ATOM      7  N   LIG    1       -0.917  -3.601   2.502  0.00  0.00    -0.570 NA
ATOM      8  C   LIG    1       -0.883  -4.478   1.516  0.00  0.00    +0.110 A 
ATOM      9  C   LIG    1       -0.106  -5.538   1.744  0.00  0.00    -0.240 A 
ATOM     10  S   LIG    1        0.620  -5.352   3.338  0.00  0.00    +0.010 S 
BRANCH   8  11
ATOM     11  C   LIG    1       -1.665  -4.300   0.241  0.00  0.00    +0.060 C 
ATOM     12  C   LIG    1       -0.861  -4.861  -0.933  0.00  0.00    +0.010 C 
ATOM     13  C   LIG    1       -2.997  -5.045   0.350  0.00  0.00    +0.020 C 
ENDBRANCH   8  11
ENDBRANCH   4   6
BRANCH   1  14
ATOM     14  C   LIG    1        1.510  -3.115   7.977  0.00  0.00    +0.320 C 
ATOM     15  C   LIG    1        1.356  -2.103   9.114  0.00  0.00    +0.060 C 
BRANCH  14  19
ATOM     16  C   LIG    1       -1.483  -6.831   9.496  0.00  0.00    +0.230 C 
ATOM     17  C   LIG    1       -0.290  -6.016   9.065  0.00  0.00    +0.160 A 
ATOM     18  N   LIG    1       -0.290  -4.747   8.734  0.00  0.00    -0.470 NA
ATOM     19  C   LIG    1        0.986  -4.455   8.423  0.00  0.00    +0.190 A 
ATOM     20  N   LIG    1        1.682  -5.543   8.572  0.00  0.00    -0.360 NA
ATOM     21  O   LIG    1        0.968  -6.450   8.945  0.00  0.00    +0.070 OA
ENDBRANCH  14  19
BRANCH  14  22
ATOM     22  C   LIG    1        2.989  -3.243   7.606  0.00  0.00    -0.020 C 
ATOM     23  C   LIG    1        4.013  -2.625   8.560  0.00  0.00    +0.000 C 
ATOM     24  C   LIG    1        3.732  -1.966   7.208  0.00  0.00    +0.020 C 
ENDBRANCH  14  22
ENDBRANCH   1  14
TORSDOF 5
