REMARK  Name = ZINCrH000004jREI.0
REMARK                            x       y       z     vdW  Elec       q    Type
REMARK                         _______ _______ _______ _____ _____    ______ ____
ROOT
ATOM      1  C   LIG    1        0.295  -1.933   1.199  0.00  0.00    +0.280 C 
ATOM      2  N   LIG    1        0.038  -1.268   2.479  0.00  0.00    -0.610 N 
ATOM      3  C   LIG    1       -0.868  -0.273   2.551  0.00  0.00    +0.520 C 
ATOM      4  O   LIG    1       -1.081   0.279   3.610  0.00  0.00    -0.530 OA
ENDROOT
BRANCH   3   5
ATOM      5  C   LIG    1       -1.617   0.155   1.315  0.00  0.00    -0.020 C 
ATOM      6  C   LIG    1       -2.576   1.296   1.664  0.00  0.00    +0.060 C 
ATOM      7  C   LIG    1       -3.359   1.711   0.416  0.00  0.00    +0.030 C 
ATOM      8  C   LIG    1       -2.381   2.212  -0.652  0.00  0.00    +0.260 C 
ATOM      9  N   LIG    1       -1.369   1.173  -0.891  0.00  0.00    -0.600 N 
ATOM     10  C   LIG    1       -1.132   0.720  -2.138  0.00  0.00    +0.600 C 
ATOM     11  O   LIG    1       -0.248  -0.093  -2.332  0.00  0.00    -0.520 OA
ATOM     12  C   LIG    1       -0.622   0.637   0.255  0.00  0.00    +0.300 C 
BRANCH  10  13
ATOM     13  C   LIG    1       -1.940   1.206  -3.260  0.00  0.00    -0.270 A 
ATOM     14  C   LIG    1       -2.489   0.425  -4.239  0.00  0.00    +0.090 A 
ATOM     15  C   LIG    1       -3.201   1.142  -5.171  0.00  0.00    +0.000 A 
ATOM     16  C   LIG    1       -3.236   2.464  -4.965  0.00  0.00    -0.070 A 
ATOM     17  S   LIG    1       -2.365   2.886  -3.559  0.00  0.00    +0.220 S 
ENDBRANCH  10  13
ENDBRANCH   3   5
BRANCH   2  18
ATOM     18  C   LIG    1        0.766  -1.683   3.680  0.00  0.00    +0.320 C 
BRANCH  18  19
ATOM     19  C   LIG    1       -0.014  -2.791   4.392  0.00  0.00    +0.190 C 
BRANCH  19  20
ATOM     20  O   LIG    1       -0.062  -3.950   3.558  0.00  0.00    -0.310 OA
BRANCH  20  21
ATOM     21  C   LIG    1       -0.723  -5.033   4.046  0.00  0.00    +0.140 A 
ATOM     22  C   LIG    1       -1.308  -4.982   5.302  0.00  0.00    -0.060 A 
ATOM     23  C   LIG    1       -1.984  -6.082   5.794  0.00  0.00    +0.070 A 
ATOM     24  C   LIG    1       -2.068  -7.238   5.038  0.00  0.00    -0.070 A 
ATOM     25  C   LIG    1       -1.481  -7.293   3.787  0.00  0.00    +0.070 A 
ATOM     26 CL   LIG    1       -2.913  -8.621   5.661  0.00  0.00    -0.070 Cl
ATOM     27  C   LIG    1       -0.809  -6.193   3.289  0.00  0.00    +0.000 A 
ENDBRANCH  20  21
ENDBRANCH  19  20
ENDBRANCH  18  19
ENDBRANCH   2  18
TORSDOF 6
