REMARK  Name = ZINCrH000004rSqn.0
REMARK                            x       y       z     vdW  Elec       q    Type
REMARK                         _______ _______ _______ _____ _____    ______ ____
ROOT
ATOM      1  C   LIG    1        4.795   3.990   0.186  0.00  0.00    -0.100 A 
ATOM      2  C   LIG    1        4.760   5.378   0.345  0.00  0.00    +0.100 A 
ATOM      3  C   LIG    1        5.938   6.085   0.443  0.00  0.00    +0.120 A 
ATOM      4  C   LIG    1        7.157   5.415   0.382  0.00  0.00    -0.070 A 
ATOM      5  C   LIG    1        7.188   4.032   0.223  0.00  0.00    +0.010 A 
ATOM      6  C   LIG    1        6.024   3.325   0.131  0.00  0.00    +0.170 A 
ENDROOT
BRANCH   1   9
ATOM      7  N   LIG    1        2.353   3.868   0.140  0.00  0.00    -0.660 N 
ATOM      8  H   LIG    1        2.328   4.837   0.181  0.00  0.00    +0.410 HD
ATOM      9  C   LIG    1        3.537   3.227   0.081  0.00  0.00    +0.560 C 
ATOM     10  O   LIG    1        3.568   2.019  -0.058  0.00  0.00    -0.500 OA
BRANCH   7  16
ATOM     11  C   LIG    1       -2.296   3.357   1.654  0.00  0.00    +0.090 C 
ATOM     12  C   LIG    1       -1.109   2.866   0.867  0.00  0.00    -0.070 A 
ATOM     13  C   LIG    1       -1.200   1.693   0.140  0.00  0.00    +0.000 A 
ATOM     14  C   LIG    1       -0.110   1.235  -0.579  0.00  0.00    +0.030 A 
ATOM     15  C   LIG    1        1.068   1.955  -0.583  0.00  0.00    +0.020 A 
ATOM     16  C   LIG    1        1.161   3.137   0.142  0.00  0.00    +0.140 A 
ATOM     17  C   LIG    1        0.067   3.590   0.867  0.00  0.00    -0.110 A 
ATOM     18  C   LIG    1        0.164   4.872   1.655  0.00  0.00    +0.090 C 
ENDBRANCH   7  16
ENDBRANCH   1   9
BRANCH   5  19
ATOM     19  N   LIG    1        8.488   3.326   0.160  0.00  0.00    +0.020 N 
ATOM     20  O   LIG    1        9.527   3.954   0.247  0.00  0.00    -0.130 OA
ATOM     21  O   LIG    1        8.517   2.116   0.021  0.00  0.00    -0.150 OA
ENDBRANCH   5  19
BRANCH   4  22
ATOM     22  S   LIG    1        8.664   6.320   0.507  0.00  0.00    +0.170 S 
BRANCH  22  23
ATOM     23  C   LIG    1        9.103   5.956   2.174  0.00  0.00    +0.140 A 
ATOM     24  N   LIG    1        8.380   5.289   3.043  0.00  0.00    -0.290 NA
ATOM     25  N   LIG    1        9.008   5.207   4.161  0.00  0.00    -0.290 NA
ATOM     26  C   LIG    1       10.155   5.821   4.076  0.00  0.00    +0.400 A 
ATOM     27  N   LIG    1       10.256   6.320   2.808  0.00  0.00    -0.460 N 
ATOM     28  C   LIG    1       11.371   7.086   2.245  0.00  0.00    +0.360 C 
ENDBRANCH  22  23
ENDBRANCH   4  22
TORSDOF 5
