REMARK  Name = ZINCrD0000075a0W.0
REMARK                            x       y       z     vdW  Elec       q    Type
REMARK                         _______ _______ _______ _____ _____    ______ ____
ROOT
ATOM      1  N   LIG    1       -1.191   1.867   0.018  0.00  0.00    -0.620 N 
ATOM      2  H   LIG    1       -1.204   2.837   0.023  0.00  0.00    +0.420 HD
ATOM      3  C   LIG    1       -0.014   1.209   0.009  0.00  0.00    +0.480 C 
ATOM      4  O   LIG    1        0.002  -0.004   0.002  0.00  0.00    -0.480 OA
ENDROOT
BRANCH   1   9
ATOM      5  C   LIG    1       -5.231  -1.590   0.015  0.00  0.00    +0.160 C 
ATOM      6  C   LIG    1       -4.267  -0.432   0.018  0.00  0.00    -0.270 A 
ATOM      7  C   LIG    1       -4.595   0.861   0.028  0.00  0.00    +0.090 A 
ATOM      8  N   LIG    1       -3.566   1.688   0.028  0.00  0.00    -0.500 NA
ATOM      9  C   LIG    1       -2.385   1.155   0.020  0.00  0.00    +0.230 A 
ATOM     10  S   LIG    1       -2.509  -0.550   0.004  0.00  0.00    +0.240 S 
BRANCH   7  11
ATOM     11  C   LIG    1       -6.024   1.339   0.037  0.00  0.00    +0.170 C 
BRANCH  11  12
ATOM     12  C   LIG    1       -6.508   1.506  -1.380  0.00  0.00    -0.080 A 
ATOM     13  C   LIG    1       -6.355   2.720  -2.023  0.00  0.00    +0.010 A 
ATOM     14  C   LIG    1       -6.794   2.873  -3.325  0.00  0.00    +0.000 A 
ATOM     15  C   LIG    1       -7.395   1.814  -3.980  0.00  0.00    +0.000 A 
ATOM     16  C   LIG    1       -7.552   0.602  -3.335  0.00  0.00    +0.000 A 
ATOM     17  C   LIG    1       -7.109   0.448  -2.035  0.00  0.00    +0.010 A 
ENDBRANCH  11  12
ENDBRANCH   7  11
ENDBRANCH   1   9
BRANCH   3  18
ATOM     18  C   LIG    1        1.280   1.980   0.001  0.00  0.00    +0.360 C 
BRANCH  18  19
ATOM     19  N   LIG    1        2.407   1.043  -0.015  0.00  0.00    -0.580 N 
ATOM     20  C   LIG    1        2.958   0.582  -1.292  0.00  0.00    +0.320 C 
BRANCH  19  21
ATOM     21  C   LIG    1        2.951   0.594   1.177  0.00  0.00    +0.430 A 
ATOM     22  C   LIG    1        2.358   0.960   2.384  0.00  0.00    -0.100 A 
ATOM     23  C   LIG    1        2.895   0.510   3.560  0.00  0.00    +0.160 A 
ATOM     24  C   LIG    1        4.039  -0.302   3.507  0.00  0.00    -0.140 A 
ATOM     25  C   LIG    1        4.583  -0.625   2.262  0.00  0.00    +0.380 A 
ATOM     26  N   LIG    1        4.031  -0.174   1.154  0.00  0.00    -0.530 NA
BRANCH  24  27
ATOM     27  C   LIG    1        4.639  -0.791   4.711  0.00  0.00    +0.260 C 
ATOM     28  N   LIG    1        5.115  -1.180   5.667  0.00  0.00    -0.420 NA
ENDBRANCH  24  27
ENDBRANCH  19  21
ENDBRANCH  18  19
ENDBRANCH   3  18
TORSDOF 7
