REMARK  Name = ZINCrg00001JduPc.0
REMARK                            x       y       z     vdW  Elec       q    Type
REMARK                         _______ _______ _______ _____ _____    ______ ____
ROOT
ATOM      1  C   LIG    1       -4.502   2.877  -2.438  0.00  0.00    +0.530 C 
ATOM      2  N   LIG    1       -3.575   2.104  -1.837  0.00  0.00    -0.720 N 
ATOM      3  H   LIG    1       -2.839   1.740  -2.353  0.00  0.00    +0.410 HD
ATOM      4  O   LIG    1       -5.422   3.332  -1.793  0.00  0.00    -0.500 OA
ENDROOT
BRANCH   2   5
ATOM      5  C   LIG    1       -3.679   1.815  -0.405  0.00  0.00    +0.160 C 
ATOM      6  C   LIG    1       -3.608   3.123   0.393  0.00  0.00    +0.280 C 
ATOM      7  O   LIG    1       -2.410   3.810   0.039  0.00  0.00    -0.300 OA
ATOM      8  C   LIG    1       -1.248   3.107   0.035  0.00  0.00    +0.130 A 
ATOM      9  C   LIG    1       -0.047   3.808   0.034  0.00  0.00    -0.020 A 
ATOM     10  C   LIG    1        1.154   3.129   0.020  0.00  0.00    +0.050 A 
ATOM     11  C   LIG    1        1.165   1.747   0.008  0.00  0.00    -0.020 A 
ATOM     12  C   LIG    1       -0.025   1.046   0.012  0.00  0.00    +0.050 A 
ATOM     13  C   LIG    1       -1.234   1.722   0.021  0.00  0.00    -0.160 A 
ATOM     14  C   LIG    1       -2.512   0.923   0.028  0.00  0.00    +0.140 C 
BRANCH   5  15
ATOM     15  C   LIG    1       -4.984   1.117  -0.122  0.00  0.00    +0.460 C 
ATOM     16  O   LIG    1       -5.043   0.275   0.743  0.00  0.00    -0.500 OA
BRANCH  15  17
ATOM     17  O   LIG    1       -6.080   1.429  -0.830  0.00  0.00    -0.320 OA
ATOM     18  C   LIG    1       -7.302   0.717  -0.503  0.00  0.00    +0.250 C 
ENDBRANCH  15  17
ENDBRANCH   5  15
ENDBRANCH   2   5
BRANCH   1  24
ATOM     19  C   LIG    1       -3.558   1.633  -6.976  0.00  0.00    +0.550 C 
ATOM     20  N   LIG    1       -4.463   2.177  -6.138  0.00  0.00    -0.610 N 
ATOM     21  C   LIG    1       -5.494   3.094  -6.642  0.00  0.00    +0.260 C 
ATOM     22  C   LIG    1       -5.439   4.392  -5.829  0.00  0.00    +0.010 C 
ATOM     23  C   LIG    1       -5.565   4.062  -4.340  0.00  0.00    +0.060 C 
ATOM     24  C   LIG    1       -4.394   3.174  -3.912  0.00  0.00    -0.020 C 
ATOM     25  C   LIG    1       -4.437   1.863  -4.702  0.00  0.00    +0.300 C 
ATOM     26  O   LIG    1       -2.653   0.951  -6.534  0.00  0.00    -0.540 OA
BRANCH  19  28
ATOM     27  C   LIG    1       -2.834   1.249  -9.260  0.00  0.00    +0.140 C 
ATOM     28  C   LIG    1       -3.666   1.865  -8.424  0.00  0.00    -0.090 C 
ENDBRANCH  19  28
ENDBRANCH   1  24
TORSDOF 5
