REMARK  Name = ZINCrD00000dTsNN.0
REMARK                            x       y       z     vdW  Elec       q    Type
REMARK                         _______ _______ _______ _____ _____    ______ ____
ROOT
ATOM      1  N   LIG    1       -1.581   1.584   4.650  0.00  0.00    -0.460 N 
ATOM      2  C   LIG    1       -0.338   1.085   5.255  0.00  0.00    +0.190 C 
ATOM      3  C   LIG    1       -0.528   0.960   6.769  0.00  0.00    +0.240 C 
ATOM      4  O   LIG    1       -1.642   0.103   7.035  0.00  0.00    -0.370 OA
ATOM      5  C   LIG    1       -2.869   0.559   6.461  0.00  0.00    +0.170 C 
ATOM      6  C   LIG    1       -2.703   0.681   4.944  0.00  0.00    +0.180 C 
ENDROOT
BRANCH   1  11
ATOM      7  N   LIG    1       -1.982   2.759   2.531  0.00  0.00    -0.460 N 
ATOM      8  C   LIG    1       -1.565   2.528   1.249  0.00  0.00    +0.180 A 
ATOM      9  N   LIG    1       -0.813   1.464   1.272  0.00  0.00    -0.250 NA
ATOM     10  N   LIG    1       -0.731   1.008   2.471  0.00  0.00    -0.310 NA
ATOM     11  C   LIG    1       -1.432   1.763   3.284  0.00  0.00    +0.350 A 
BRANCH   8  12
ATOM     12  C   LIG    1       -1.908   3.354   0.036  0.00  0.00    +0.260 C 
ATOM     13  C   LIG    1       -2.939   2.608  -0.814  0.00  0.00    +0.020 C 
ATOM     14  C   LIG    1       -3.237   3.426  -2.075  0.00  0.00    +0.020 C 
ATOM     15  C   LIG    1       -1.929   3.672  -2.832  0.00  0.00    +0.000 C 
ATOM     16  C   LIG    1       -0.936   4.377  -1.903  0.00  0.00    +0.210 C 
ATOM     17  O   LIG    1       -0.727   3.578  -0.737  0.00  0.00    -0.360 OA
ENDBRANCH   8  12
BRANCH   7  19
ATOM     18  C   LIG    1       -4.309   3.456   2.812  0.00  0.00    +0.030 C 
ATOM     19  C   LIG    1       -2.842   3.849   2.998  0.00  0.00    +0.300 C 
ENDBRANCH   7  19
ENDBRANCH   1  11
BRANCH   5  20
ATOM     20  C   LIG    1       -3.984  -0.441   6.775  0.00  0.00    +0.060 C 
BRANCH  20  21
ATOM     21  C   LIG    1       -4.230  -0.472   8.285  0.00  0.00    +0.070 C 
BRANCH  21  22
ATOM     22  C   LIG    1       -5.328  -1.457   8.594  0.00  0.00    -0.080 A 
ATOM     23  C   LIG    1       -6.644  -1.038   8.627  0.00  0.00    +0.000 A 
ATOM     24  C   LIG    1       -7.652  -1.943   8.906  0.00  0.00    +0.000 A 
ATOM     25  C   LIG    1       -7.341  -3.265   9.163  0.00  0.00    -0.010 A 
ATOM     26  C   LIG    1       -6.024  -3.683   9.136  0.00  0.00    +0.000 A 
ATOM     27  C   LIG    1       -5.017  -2.780   8.851  0.00  0.00    +0.000 A 
ENDBRANCH  21  22
ENDBRANCH  20  21
ENDBRANCH   5  20
TORSDOF 6
