REMARK  Name = ZINCnE000005rrWG.0
REMARK                            x       y       z     vdW  Elec       q    Type
REMARK                         _______ _______ _______ _____ _____    ______ ____
ROOT
ATOM      1  S   LIG    1        3.996  -0.769  -0.040  0.00  0.00    +2.600 S 
ATOM      2  O   LIG    1        4.988   0.248  -0.009  0.00  0.00    -1.020 OA
ATOM      3  O   LIG    1        3.919  -1.749  -1.066  0.00  0.00    -1.020 OA
ENDROOT
BRANCH   1   4
ATOM      4  C   LIG    1        2.438   0.054  -0.021  0.00  0.00    -0.580 A 
ATOM      5  C   LIG    1        2.382   1.415  -0.013  0.00  0.00    +0.120 A 
ATOM      6  C   LIG    1        1.160   2.085   0.002  0.00  0.00    +0.010 A 
ATOM      7  C   LIG    1       -0.017   1.398   0.010  0.00  0.00    +0.050 A 
ATOM      8  C   LIG    1        0.002  -0.004   0.002  0.00  0.00    -0.040 A 
ATOM      9  C   LIG    1       -1.177  -0.770   0.010  0.00  0.00    -0.020 A 
ATOM     10  C   LIG    1       -1.074  -2.129   0.002  0.00  0.00    +0.220 A 
ATOM     11  N   LIG    1        0.102  -2.741  -0.013  0.00  0.00    -0.480 NA
ATOM     12  C   LIG    1        1.242  -2.091  -0.021  0.00  0.00    +0.340 A 
ATOM     13  C   LIG    1        1.246  -0.687  -0.013  0.00  0.00    -0.040 A 
ENDBRANCH   1   4
BRANCH   1  14
ATOM     14  N   LIG    1        4.130  -1.597   1.389  0.00  0.00    -1.080 NA
BRANCH  14  19
ATOM     15  C   LIG    1        6.528  -3.791   3.110  0.00  0.00    +0.160 A 
ATOM     16  C   LIG    1        7.551  -3.844   2.174  0.00  0.00    -0.190 A 
ATOM     17  C   LIG    1        7.436  -3.152   0.983  0.00  0.00    +0.080 A 
ATOM     18  C   LIG    1        6.301  -2.411   0.718  0.00  0.00    -0.190 A 
ATOM     19  C   LIG    1        5.276  -2.350   1.654  0.00  0.00    +0.310 A 
ATOM     20  C   LIG    1        5.389  -3.044   2.851  0.00  0.00    -0.090 A 
BRANCH  15  21
ATOM     21  O   LIG    1        6.642  -4.472   4.281  0.00  0.00    -0.320 OA
BRANCH  21  23
ATOM     22  C   LIG    1        7.789  -5.914   5.844  0.00  0.00    +0.040 C 
ATOM     23  C   LIG    1        7.842  -5.221   4.481  0.00  0.00    +0.180 C 
ENDBRANCH  21  23
ENDBRANCH  15  21
ENDBRANCH  14  19
ENDBRANCH   1  14
TORSDOF 5
