REMARK  Name = ZINCtj00000u25vF.0
REMARK                            x       y       z     vdW  Elec       q    Type
REMARK                         _______ _______ _______ _____ _____    ______ ____
ROOT
ATOM      1  C   LIG    1       -1.605   5.221  -2.322  0.00  0.00    +0.230 C 
ATOM      2  C   LIG    1       -2.335   5.482  -3.657  0.00  0.00    +0.040 C 
ATOM      3  C   LIG    1       -1.976   4.231  -4.501  0.00  0.00    +0.040 C 
ATOM      4  C   LIG    1       -1.949   3.123  -3.419  0.00  0.00    +0.250 C 
ATOM      5  N   LIG    1       -1.372   3.773  -2.228  0.00  0.00    -0.590 N 
ATOM      6  C   LIG    1       -0.740   3.143  -1.218  0.00  0.00    +0.530 C 
ATOM      7  O   LIG    1       -0.222   3.788  -0.331  0.00  0.00    -0.550 OA
ENDROOT
BRANCH   6   8
ATOM      8  C   LIG    1       -0.678   1.638  -1.190  0.00  0.00    +0.010 C 
ATOM      9  C   LIG    1       -2.099   1.068  -1.143  0.00  0.00    +0.070 C 
ATOM     10  C   LIG    1       -2.776   1.517   0.155  0.00  0.00    +0.050 C 
ATOM     11  C   LIG    1       -1.931   1.065   1.347  0.00  0.00    +0.250 C 
ATOM     12  N   LIG    1       -0.595   1.663   1.259  0.00  0.00    -0.380 N 
ATOM     13  H   LIG    1       -0.679   2.668   1.217  0.00  0.00    +0.430 HD
ATOM     14  C   LIG    1        0.089   1.181   0.053  0.00  0.00    +0.290 C 
BRANCH  12  15
ATOM     15  C   LIG    1        0.186   1.289   2.445  0.00  0.00    +0.160 C 
ATOM     16  C   LIG    1       -0.525   1.792   3.703  0.00  0.00    +0.090 C 
ATOM     17  C   LIG    1        1.578   1.920   2.360  0.00  0.00    +0.080 C 
ENDBRANCH  12  15
ENDBRANCH   6   8
BRANCH   1  18
ATOM     18  C   LIG    1       -2.475   5.686  -1.152  0.00  0.00    +0.010 C 
BRANCH  18  19
ATOM     19  C   LIG    1       -2.643   7.205  -1.213  0.00  0.00    +0.260 C 
BRANCH  19  21
ATOM     20  C   LIG    1       -3.639   8.975   0.134  0.00  0.00    +0.580 C 
ATOM     21  N   LIG    1       -3.373   7.663  -0.028  0.00  0.00    -0.720 N 
ATOM     22  H   LIG    1       -3.664   7.023   0.640  0.00  0.00    +0.410 HD
ATOM     23  O   LIG    1       -3.196   9.787  -0.654  0.00  0.00    -0.530 OA
BRANCH  20  30
ATOM     24  C   LIG    1       -6.111  12.530   2.661  0.00  0.00    +0.170 C 
ATOM     25  C   LIG    1       -5.656  11.104   2.493  0.00  0.00    +0.060 A 
ATOM     26  N   LIG    1       -5.998  10.207   3.377  0.00  0.00    -0.200 NA
ATOM     27  N   LIG    1       -5.645   8.976   3.296  0.00  0.00    -0.430 N 
ATOM     28  H   LIG    1       -5.932   8.358   3.987  0.00  0.00    +0.450 HD
ATOM     29  C   LIG    1       -4.889   8.517   2.281  0.00  0.00    +0.500 A 
ATOM     30  C   LIG    1       -4.468   9.424   1.268  0.00  0.00    -0.230 A 
ATOM     31  O   LIG    1       -4.569   7.342   2.230  0.00  0.00    -0.540 OA
ATOM     32  C   LIG    1       -4.865  10.753   1.392  0.00  0.00    +0.190 A 
ENDBRANCH  20  30
ENDBRANCH  19  21
ENDBRANCH  18  19
ENDBRANCH   1  18
TORSDOF 6
