REMARK  Name = ZINCtj00000u25vF.1
REMARK                            x       y       z     vdW  Elec       q    Type
REMARK                         _______ _______ _______ _____ _____    ______ ____
ROOT
ATOM      1  C   LIG    1       -0.766   1.626   1.178  0.00  0.00    +0.230 C 
ATOM      2  C   LIG    1        0.020   1.161  -0.066  0.00  0.00    +0.040 C 
ATOM      3  C   LIG    1       -0.827   1.712  -1.244  0.00  0.00    +0.040 C 
ATOM      4  C   LIG    1       -1.336   3.054  -0.659  0.00  0.00    +0.250 C 
ATOM      5  N   LIG    1       -1.596   2.771   0.764  0.00  0.00    -0.610 N 
ATOM      6  C   LIG    1       -2.448   3.449   1.557  0.00  0.00    +0.540 C 
ATOM      7  O   LIG    1       -2.653   3.071   2.691  0.00  0.00    -0.530 OA
ENDROOT
BRANCH   6   8
ATOM      8  C   LIG    1       -3.148   4.678   1.035  0.00  0.00    -0.010 C 
ATOM      9  C   LIG    1       -2.107   5.726   0.630  0.00  0.00    +0.050 C 
ATOM     10  C   LIG    1       -2.827   6.998   0.175  0.00  0.00    +0.070 C 
ATOM     11  C   LIG    1       -3.740   7.491   1.300  0.00  0.00    +0.250 C 
ATOM     12  N   LIG    1       -4.728   6.455   1.623  0.00  0.00    -0.380 N 
ATOM     13  H   LIG    1       -5.249   6.218   0.792  0.00  0.00    +0.420 HD
ATOM     14  C   LIG    1       -4.048   5.257   2.128  0.00  0.00    +0.290 C 
BRANCH  12  15
ATOM     15  C   LIG    1       -5.650   6.963   2.648  0.00  0.00    +0.160 C 
ATOM     16  C   LIG    1       -6.681   5.884   2.986  0.00  0.00    +0.080 C 
ATOM     17  C   LIG    1       -6.367   8.206   2.119  0.00  0.00    +0.090 C 
ENDBRANCH  12  15
ENDBRANCH   6   8
BRANCH   1  18
ATOM     18  C   LIG    1        0.207   2.053   2.279  0.00  0.00    +0.010 C 
BRANCH  18  19
ATOM     19  C   LIG    1        1.039   0.847   2.720  0.00  0.00    +0.260 C 
BRANCH  19  21
ATOM     20  C   LIG    1        2.707   0.317   4.415  0.00  0.00    +0.580 C 
ATOM     21  N   LIG    1        1.883   1.226   3.856  0.00  0.00    -0.720 N 
ATOM     22  H   LIG    1        1.849   2.130   4.205  0.00  0.00    +0.420 HD
ATOM     23  O   LIG    1        2.684  -0.839   4.038  0.00  0.00    -0.530 OA
BRANCH  20  30
ATOM     24  C   LIG    1        6.483  -0.618   7.579  0.00  0.00    +0.180 C 
ATOM     25  C   LIG    1        5.438   0.304   7.004  0.00  0.00    +0.060 A 
ATOM     26  N   LIG    1        5.332   1.523   7.458  0.00  0.00    -0.200 NA
ATOM     27  N   LIG    1        4.466   2.360   7.015  0.00  0.00    -0.430 N 
ATOM     28  H   LIG    1        4.437   3.252   7.394  0.00  0.00    +0.450 HD
ATOM     29  C   LIG    1        3.595   2.035   6.040  0.00  0.00    +0.500 A 
ATOM     30  C   LIG    1        3.637   0.725   5.484  0.00  0.00    -0.220 A 
ATOM     31  O   LIG    1        2.784   2.851   5.639  0.00  0.00    -0.540 OA
ATOM     32  C   LIG    1        4.586  -0.158   5.993  0.00  0.00    +0.190 A 
ENDBRANCH  20  30
ENDBRANCH  19  21
ENDBRANCH  18  19
ENDBRANCH   1  18
TORSDOF 6
