REMARK  Name = ZINCrH00000tj1cm.0
REMARK                            x       y       z     vdW  Elec       q    Type
REMARK                         _______ _______ _______ _____ _____    ______ ____
ROOT
ATOM      1  C   LIG    1       -2.788   0.755   1.536  0.00  0.00    +0.090 C 
ATOM      2  C   LIG    1       -2.398   1.065   0.089  0.00  0.00    +0.210 C 
ENDROOT
BRANCH   2   3
ATOM      3  C   LIG    1       -3.515   1.822  -0.582  0.00  0.00    +0.520 C 
ATOM      4  N   LIG    1       -4.738   1.266  -0.686  0.00  0.00    -0.620 N 
ATOM      5  H   LIG    1       -4.899   0.378  -0.330  0.00  0.00    +0.430 HD
ATOM      6  O   LIG    1       -3.313   2.932  -1.027  0.00  0.00    -0.470 OA
BRANCH   4   7
ATOM      7  C   LIG    1       -5.768   1.964  -1.305  0.00  0.00    +0.270 A 
ATOM      8  N   LIG    1       -6.978   1.527  -1.466  0.00  0.00    -0.490 NA
ATOM      9  C   LIG    1       -7.833   2.335  -2.078  0.00  0.00    +0.130 A 
ATOM     10  C   LIG    1       -7.329   3.519  -2.469  0.00  0.00    -0.110 A 
ATOM     11  S   LIG    1       -5.631   3.577  -1.999  0.00  0.00    +0.210 S 
BRANCH   9  12
ATOM     12  C   LIG    1       -9.246   1.956  -2.320  0.00  0.00    -0.020 A 
ATOM     13  C   LIG    1      -10.107   2.841  -2.968  0.00  0.00    +0.030 A 
ATOM     14  C   LIG    1      -11.420   2.482  -3.195  0.00  0.00    +0.010 A 
ATOM     15  C   LIG    1      -11.885   1.250  -2.771  0.00  0.00    +0.010 A 
ATOM     16  C   LIG    1      -11.038   0.370  -2.122  0.00  0.00    +0.010 A 
ATOM     17  C   LIG    1       -9.721   0.717  -1.895  0.00  0.00    +0.040 A 
ENDBRANCH   9  12
ENDBRANCH   4   7
ENDBRANCH   2   3
BRANCH   2  18
ATOM     18  O   LIG    1       -1.190   1.871   0.075  0.00  0.00    -0.320 OA
BRANCH  18  19
ATOM     19  C   LIG    1       -0.015   1.213   0.036  0.00  0.00    +0.540 C 
ATOM     20  O   LIG    1        0.000  -0.002   0.013  0.00  0.00    -0.510 OA
BRANCH  19  21
ATOM     21  C   LIG    1        1.251   1.966   0.014  0.00  0.00    -0.260 A 
ATOM     22  C   LIG    1        1.248   3.362  -0.084  0.00  0.00    +0.220 A 
ATOM     23  C   LIG    1        2.464   4.023  -0.095  0.00  0.00    -0.230 A 
ATOM     24  C   LIG    1        3.638   3.292  -0.022  0.00  0.00    +0.410 A 
ATOM     25  N   LIG    1        3.619   1.976   0.064  0.00  0.00    -0.540 NA
ATOM     26 BR   LIG    1        2.523   5.909  -0.218  0.00  0.00    -0.030 Br
ATOM     27  C   LIG    1        2.484   1.294   0.085  0.00  0.00    +0.480 A 
BRANCH  27  28
ATOM     28  N   LIG    1        2.512  -0.085   0.176  0.00  0.00    -0.820 N 
ATOM     29  H   LIG    1        3.356  -0.545   0.307  0.00  0.00    +0.410 HD
ATOM     30  H   LIG    1        1.688  -0.592   0.109  0.00  0.00    +0.430 HD
ENDBRANCH  27  28
ENDBRANCH  19  21
ENDBRANCH  18  19
ENDBRANCH   2  18
TORSDOF 7
