REMARK  Name = ZINCyk0000000dDM.0
REMARK                            x       y       z     vdW  Elec       q    Type
REMARK                         _______ _______ _______ _____ _____    ______ ____
ROOT
ATOM      1  C   LIG    1        0.425  -0.291   4.917  0.00  0.00    +0.270 C 
ATOM      2  N   LIG    1        1.145   0.849   4.344  0.00  0.00    -0.610 N 
ATOM      3  C   LIG    1        0.741   1.381   3.173  0.00  0.00    +0.500 C 
ATOM      4  O   LIG    1        1.337   2.325   2.699  0.00  0.00    -0.520 OA
ENDROOT
BRANCH   3   5
ATOM      5  C   LIG    1       -0.449   0.802   2.454  0.00  0.00    +0.320 C 
BRANCH   5   6
ATOM      6  N   LIG    1       -0.682   1.550   1.215  0.00  0.00    -0.580 N 
ATOM      7  C   LIG    1       -0.013   1.086   0.008  0.00  0.00    +0.280 C 
ATOM      8  C   LIG    1       -0.740   1.586  -1.241  0.00  0.00    +0.320 C 
ATOM      9  N   LIG    1       -1.024   3.021  -1.064  0.00  0.00    -0.600 N 
ATOM     10  C   LIG    1       -1.890   3.403   0.061  0.00  0.00    +0.350 C 
ATOM     11  C   LIG    1       -0.510   3.945  -1.899  0.00  0.00    +0.660 C 
ATOM     12  O   LIG    1        0.203   3.602  -2.821  0.00  0.00    -0.560 OA
ATOM     13  C   LIG    1       -1.492   2.607   1.274  0.00  0.00    +0.520 C 
ATOM     14  O   LIG    1       -1.929   2.943   2.355  0.00  0.00    -0.540 OA
BRANCH  11  15
ATOM     15  O   LIG    1       -0.787   5.250  -1.712  0.00  0.00    -0.360 OA
BRANCH  15  16
ATOM     16  C   LIG    1       -0.200   6.190  -2.650  0.00  0.00    +0.140 C 
ATOM     17  C   LIG    1        1.325   6.081  -2.593  0.00  0.00    +0.040 C 
ATOM     18  C   LIG    1       -0.624   7.612  -2.280  0.00  0.00    +0.080 C 
ATOM     19  C   LIG    1       -0.681   5.866  -4.066  0.00  0.00    +0.040 C 
ENDBRANCH  15  16
ENDBRANCH  11  15
ENDBRANCH   5   6
ENDBRANCH   3   5
BRANCH   2  20
ATOM     20  C   LIG    1        2.302   1.412   5.044  0.00  0.00    +0.330 C 
BRANCH  20  21
ATOM     21  C   LIG    1        1.843   2.496   5.984  0.00  0.00    -0.100 A 
ATOM     22  C   LIG    1        1.770   3.805   5.546  0.00  0.00    +0.040 A 
ATOM     23  C   LIG    1        1.343   4.800   6.406  0.00  0.00    +0.030 A 
ATOM     24  C   LIG    1        1.000   4.486   7.708  0.00  0.00    -0.090 A 
ATOM     25  C   LIG    1        1.078   3.178   8.148  0.00  0.00    +0.000 A 
ATOM     26  C   LIG    1        1.499   2.183   7.286  0.00  0.00    +0.010 A 
BRANCH  24  27
ATOM     27  C   LIG    1        0.540   5.571   8.648  0.00  0.00    +0.260 C 
BRANCH  27  28
ATOM     28  N   LIG    1        1.700   6.135   9.350  0.00  0.00    -0.530 NA
ATOM     29  C   LIG    1        2.310   5.141  10.244  0.00  0.00    +0.210 C 
ATOM     30  C   LIG    1        3.548   5.748  10.909  0.00  0.00    +0.280 C 
ATOM     31  N   LIG    1        3.159   6.942  11.670  0.00  0.00    -0.390 N 
ATOM     32  C   LIG    1        2.574   7.936  10.760  0.00  0.00    +0.280 C 
ATOM     33  C   LIG    1        4.344   7.514  12.323  0.00  0.00    +0.310 C 
ATOM     34  H   LIG    1        2.479   6.687  12.371  0.00  0.00    +0.420 HD
ATOM     35  C   LIG    1        1.328   7.347  10.093  0.00  0.00    +0.200 C 
ENDBRANCH  27  28
ENDBRANCH  24  27
ENDBRANCH  20  21
ENDBRANCH   2  20
TORSDOF 8
