REMARK  Name = ZINCyk0000000dDM.1
REMARK                            x       y       z     vdW  Elec       q    Type
REMARK                         _______ _______ _______ _____ _____    ______ ____
ROOT
ATOM      1  N   LIG    1        1.145   0.849   4.344  0.00  0.00    -0.610 N 
ATOM      2  C   LIG    1        0.741   1.381   3.173  0.00  0.00    +0.500 C 
ATOM      3  O   LIG    1        1.337   2.325   2.699  0.00  0.00    -0.520 OA
ATOM      4  C   LIG    1        0.425  -0.291   4.917  0.00  0.00    +0.290 C 
ENDROOT
BRANCH   1   5
ATOM      5  C   LIG    1        2.302   1.412   5.044  0.00  0.00    +0.340 C 
BRANCH   5   9
ATOM      6  C   LIG    1        1.000   4.487   7.708  0.00  0.00    -0.160 A 
ATOM      7  C   LIG    1        1.078   3.178   8.148  0.00  0.00    +0.030 A 
ATOM      8  C   LIG    1        1.499   2.183   7.286  0.00  0.00    +0.030 A 
ATOM      9  C   LIG    1        1.843   2.496   5.984  0.00  0.00    -0.070 A 
ATOM     10  C   LIG    1        1.770   3.805   5.546  0.00  0.00    +0.050 A 
ATOM     11  C   LIG    1        1.343   4.800   6.406  0.00  0.00    +0.040 A 
BRANCH   6  12
ATOM     12  C   LIG    1        0.541   5.571   8.648  0.00  0.00    +0.330 C 
BRANCH  12  17
ATOM     13  C   LIG    1        4.247   7.394  12.482  0.00  0.00    +0.220 C 
ATOM     14  N   LIG    1        3.110   6.841  11.732  0.00  0.00    -0.540 NA
ATOM     15  C   LIG    1        2.484   7.870  10.891  0.00  0.00    +0.200 C 
ATOM     16  C   LIG    1        1.272   7.271  10.175  0.00  0.00    +0.280 C 
ATOM     17  N   LIG    1        1.702   6.135   9.350  0.00  0.00    -0.390 N 
ATOM     18  C   LIG    1        2.303   5.105  10.207  0.00  0.00    +0.270 C 
ATOM     19  H   LIG    1        2.383   6.449   8.674  0.00  0.00    +0.420 HD
ATOM     20  C   LIG    1        3.525   5.686  10.923  0.00  0.00    +0.210 C 
ENDBRANCH  12  17
ENDBRANCH   6  12
ENDBRANCH   5   9
ENDBRANCH   1   5
BRANCH   2  21
ATOM     21  C   LIG    1       -0.449   0.802   2.454  0.00  0.00    +0.320 C 
BRANCH  21  22
ATOM     22  N   LIG    1       -0.682   1.550   1.215  0.00  0.00    -0.580 N 
ATOM     23  C   LIG    1       -0.013   1.086   0.008  0.00  0.00    +0.280 C 
ATOM     24  C   LIG    1       -0.740   1.586  -1.241  0.00  0.00    +0.320 C 
ATOM     25  N   LIG    1       -1.024   3.021  -1.064  0.00  0.00    -0.600 N 
ATOM     26  C   LIG    1       -1.890   3.403   0.061  0.00  0.00    +0.350 C 
ATOM     27  C   LIG    1       -0.510   3.945  -1.899  0.00  0.00    +0.660 C 
ATOM     28  O   LIG    1        0.203   3.602  -2.821  0.00  0.00    -0.560 OA
ATOM     29  C   LIG    1       -1.492   2.607   1.274  0.00  0.00    +0.520 C 
ATOM     30  O   LIG    1       -1.929   2.943   2.355  0.00  0.00    -0.540 OA
BRANCH  27  31
ATOM     31  O   LIG    1       -0.787   5.250  -1.712  0.00  0.00    -0.360 OA
BRANCH  31  32
ATOM     32  C   LIG    1       -0.200   6.190  -2.650  0.00  0.00    +0.140 C 
ATOM     33  C   LIG    1        1.325   6.081  -2.593  0.00  0.00    +0.040 C 
ATOM     34  C   LIG    1       -0.624   7.612  -2.280  0.00  0.00    +0.080 C 
ATOM     35  C   LIG    1       -0.681   5.866  -4.066  0.00  0.00    +0.040 C 
ENDBRANCH  31  32
ENDBRANCH  27  31
ENDBRANCH  21  22
ENDBRANCH   2  21
TORSDOF 8
