REMARK  Name = ZINCqH0000003HcI.0
REMARK                            x       y       z     vdW  Elec       q    Type
REMARK                         _______ _______ _______ _____ _____    ______ ____
ROOT
ATOM      1  C   LIG    1        1.414   9.645  -0.807  0.00  0.00    +0.220 A 
ATOM      2  C   LIG    1        1.185   8.303  -0.554  0.00  0.00    -0.110 A 
ATOM      3  C   LIG    1        1.114   7.402  -1.609  0.00  0.00    +0.300 A 
ATOM      4  C   LIG    1        1.276   7.846  -2.913  0.00  0.00    -0.130 A 
ATOM      5  C   LIG    1        1.498   9.187  -3.166  0.00  0.00    +0.080 A 
ATOM      6  C   LIG    1        1.571  10.088  -2.116  0.00  0.00    +0.060 A 
ENDROOT
BRANCH   4   7
ATOM      7  N   LIG    1        1.206   6.885  -4.036  0.00  0.00    +0.060 N 
ATOM      8  O   LIG    1        0.900   5.724  -3.826  0.00  0.00    -0.210 OA
ATOM      9  O   LIG    1        1.454   7.253  -5.170  0.00  0.00    -0.160 OA
ENDBRANCH   4   7
BRANCH   3  10
ATOM     10  N   LIG    1        0.884   6.045  -1.355  0.00  0.00    -0.710 N 
ATOM     11  H   LIG    1        0.751   5.429  -2.093  0.00  0.00    +0.420 HD
BRANCH  10  12
ATOM     12  C   LIG    1        0.844   5.554   0.025  0.00  0.00    +0.320 C 
BRANCH  12  13
ATOM     13  C   LIG    1        0.583   4.070   0.022  0.00  0.00    -0.100 A 
ATOM     14  C   LIG    1       -0.716   3.598   0.060  0.00  0.00    +0.060 A 
ATOM     15  C   LIG    1       -0.960   2.237   0.053  0.00  0.00    +0.040 A 
ATOM     16  C   LIG    1        0.097   1.343   0.017  0.00  0.00    +0.050 A 
ATOM     17  O   LIG    1        0.128  -0.022   0.005  0.00  0.00    -0.310 OA
ATOM     18  C   LIG    1        1.474  -0.379   0.371  0.00  0.00    +0.440 C 
ATOM     19  O   LIG    1        2.256   0.752  -0.057  0.00  0.00    -0.310 OA
ATOM     20  C   LIG    1        1.405   1.818  -0.021  0.00  0.00    +0.030 A 
ATOM     21  C   LIG    1        1.643   3.183  -0.018  0.00  0.00    +0.060 A 
ENDBRANCH  12  13
ENDBRANCH  10  12
ENDBRANCH   3  10
BRANCH   1  22
ATOM     22  O   LIG    1        1.485  10.529   0.224  0.00  0.00    -0.290 OA
BRANCH  22  24
ATOM     23  C   LIG    1        1.426  11.139   2.562  0.00  0.00    +0.070 C 
ATOM     24  C   LIG    1        1.315  10.004   1.542  0.00  0.00    +0.190 C 
ENDBRANCH  22  24
ENDBRANCH   1  22
BRANCH   6  25
ATOM     25  O   LIG    1        1.795  11.407  -2.366  0.00  0.00    -0.300 OA
BRANCH  25  26
ATOM     26  C   LIG    1        1.947  11.792  -3.734  0.00  0.00    +0.170 C 
ATOM     27  C   LIG    1        2.190  13.300  -3.816  0.00  0.00    +0.070 C 
ENDBRANCH  25  26
ENDBRANCH   6  25
TORSDOF 8
