REMARK  Name = ZINCrD0000075rAp.0
REMARK                            x       y       z     vdW  Elec       q    Type
REMARK                         _______ _______ _______ _____ _____    ______ ____
ROOT
ATOM      1  C   LIG    1       -1.330   1.944   0.019  0.00  0.00    +0.250 C 
ENDROOT
BRANCH   1   3
ATOM      2  O   LIG    1        0.002  -0.004   0.002  0.00  0.00    -0.510 OA
ATOM      3  C   LIG    1       -0.014   1.209   0.009  0.00  0.00    +0.520 C 
ATOM      4  N   LIG    1        1.143   1.898   0.001  0.00  0.00    -0.720 N 
ATOM      5  H   LIG    1        1.130   2.868   0.007  0.00  0.00    +0.400 HD
BRANCH   4   6
ATOM      6  C   LIG    1        2.422   1.183  -0.015  0.00  0.00    +0.190 C 
ATOM      7  C   LIG    1        2.503   0.311  -1.270  0.00  0.00    +0.030 C 
ATOM      8  C   LIG    1        3.838  -0.435  -1.286  0.00  0.00    -0.010 C 
ATOM      9  C   LIG    1        3.943  -1.321  -0.043  0.00  0.00    +0.020 C 
ATOM     10  C   LIG    1        3.862  -0.449   1.212  0.00  0.00    -0.010 C 
ATOM     11  C   LIG    1        5.011   0.561   1.206  0.00  0.00    +0.020 C 
ATOM     12  C   LIG    1        4.907   1.446  -0.037  0.00  0.00    +0.000 C 
ATOM     13  C   LIG    1        4.987   0.575  -1.292  0.00  0.00    +0.020 C 
ATOM     14  C   LIG    1        2.527   0.298   1.229  0.00  0.00    +0.030 C 
ATOM     15  C   LIG    1        3.571   2.193  -0.020  0.00  0.00    +0.020 C 
ENDBRANCH   4   6
ENDBRANCH   1   3
BRANCH   1  16
ATOM     16  O   LIG    1       -2.420   0.986   0.019  0.00  0.00    -0.330 OA
BRANCH  16  17
ATOM     17  C   LIG    1       -3.667   1.482   0.028  0.00  0.00    +0.460 C 
ATOM     18  O   LIG    1       -3.842   2.678   0.035  0.00  0.00    -0.500 OA
BRANCH  17  19
ATOM     19  C   LIG    1       -4.850   0.548   0.028  0.00  0.00    +0.210 C 
BRANCH  19  20
ATOM     20  C   LIG    1       -6.125   1.351   0.038  0.00  0.00    -0.170 A 
ATOM     21  C   LIG    1       -6.845   1.692   1.119  0.00  0.00    +0.250 A 
ATOM     22  N   LIG    1       -7.938   2.422   0.739  0.00  0.00    -0.590 N 
ATOM     23  H   LIG    1       -8.607   2.781   1.344  0.00  0.00    +0.420 HD
ATOM     24  C   LIG    1       -7.948   2.574  -0.629  0.00  0.00    +0.100 A 
ATOM     25  C   LIG    1       -8.809   3.212  -1.516  0.00  0.00    -0.010 A 
ATOM     26  C   LIG    1       -8.542   3.186  -2.867  0.00  0.00    +0.030 A 
ATOM     27  C   LIG    1       -7.420   2.530  -3.355  0.00  0.00    -0.020 A 
ATOM     28  C   LIG    1       -6.561   1.896  -2.501  0.00  0.00    +0.050 A 
ATOM     29  C   LIG    1       -6.810   1.914  -1.128  0.00  0.00    -0.090 A 
ENDBRANCH  19  20
ENDBRANCH  17  19
ENDBRANCH  16  17
ENDBRANCH   1  16
TORSDOF 6
