REMARK  Name = ZINCqH0000032ER8.0
REMARK                            x       y       z     vdW  Elec       q    Type
REMARK                         _______ _______ _______ _____ _____    ______ ____
ROOT
ATOM      1  C   LIG    1       -0.067   6.009  -1.304  0.00  0.00    +0.030 C 
ATOM      2  C   LIG    1        0.897   7.192  -1.418  0.00  0.00    -0.070 C 
ATOM      3  C   LIG    1        1.057   7.573  -2.897  0.00  0.00    +0.140 C 
ATOM      4  C   LIG    1        1.089   6.287  -3.697  0.00  0.00    +0.100 A 
ATOM      5  N   LIG    1        0.219   5.876  -4.576  0.00  0.00    -0.290 NA
ATOM      6  N   LIG    1        0.639   4.625  -5.053  0.00  0.00    -0.480 N 
ATOM      7  H   LIG    1        0.181   4.083  -5.714  0.00  0.00    +0.440 HD
ATOM      8  C   LIG    1        1.796   4.307  -4.427  0.00  0.00    +0.250 A 
ATOM      9  C   LIG    1        2.094   5.319  -3.596  0.00  0.00    -0.270 A 
ATOM     10  C   LIG    1        3.311   5.474  -2.692  0.00  0.00    +0.360 C 
ATOM     11  N   LIG    1        2.798   5.570  -1.314  0.00  0.00    -0.610 N 
ATOM     12  C   LIG    1        2.863   4.494  -0.505  0.00  0.00    +0.710 C 
ATOM     13  N   LIG    1        3.476   3.370  -0.927  0.00  0.00    -0.740 N 
ATOM     14  H   LIG    1        3.818   3.315  -1.833  0.00  0.00    +0.400 HD
ATOM     15  O   LIG    1        2.368   4.536   0.604  0.00  0.00    -0.580 OA
ATOM     16  C   LIG    1        0.322   8.384  -0.650  0.00  0.00    +0.040 C 
ATOM     17  C   LIG    1        2.231   6.807  -0.812  0.00  0.00    +0.310 C 
ENDROOT
BRANCH  13  18
ATOM     18  C   LIG    1        3.626   2.232  -0.017  0.00  0.00    +0.310 C 
ATOM     19  C   LIG    1        4.822   1.390  -0.456  0.00  0.00    +0.020 C 
ATOM     20  C   LIG    1        4.833   0.098   0.368  0.00  0.00    +0.040 C 
ATOM     21  C   LIG    1        3.653  -0.766  -0.075  0.00  0.00    +0.080 C 
ATOM     22  C   LIG    1        2.376   0.033  -0.058  0.00  0.00    -0.100 A 
ATOM     23  C   LIG    1        1.174  -0.666  -0.068  0.00  0.00    +0.090 A 
ATOM     24  C   LIG    1       -0.031   0.011  -0.060  0.00  0.00    -0.020 A 
ATOM     25  C   LIG    1       -0.041   1.392  -0.043  0.00  0.00    +0.030 A 
ATOM     26  C   LIG    1        1.151   2.087  -0.033  0.00  0.00    +0.040 A 
ATOM     27  F   LIG    1        1.185  -2.017  -0.087  0.00  0.00    -0.140 F 
ATOM     28  C   LIG    1        2.364   1.410  -0.038  0.00  0.00    -0.070 A 
ENDBRANCH  13  18
TORSDOF 1
