REMARK  Name = ZINCpk00000y6xQs.0
REMARK                            x       y       z     vdW  Elec       q    Type
REMARK                         _______ _______ _______ _____ _____    ______ ____
ROOT
ATOM      1  C   LIG    1        2.739   4.606   1.346  0.00  0.00    +0.150 C 
ATOM      2  C   LIG    1        2.380   4.264  -0.124  0.00  0.00    +0.070 C 
ATOM      3  C   LIG    1        1.027   3.535   0.011  0.00  0.00    +0.230 C 
ATOM      4  N   LIG    1        0.436   3.945   1.294  0.00  0.00    -0.620 N 
ATOM      5  C   LIG    1       -0.739   3.513   1.792  0.00  0.00    +0.520 C 
ATOM      6  O   LIG    1       -1.406   2.716   1.166  0.00  0.00    -0.500 OA
ATOM      7  C   LIG    1        1.343   4.909   1.944  0.00  0.00    +0.240 C 
ENDROOT
BRANCH   1   9
ATOM      8  C   LIG    1        4.478   5.758   2.527  0.00  0.00    +0.210 C 
ATOM      9  O   LIG    1        3.585   5.756   1.412  0.00  0.00    -0.370 OA
ENDBRANCH   1   9
BRANCH   5  10
ATOM     10  C   LIG    1       -1.225   4.020   3.125  0.00  0.00    +0.060 C 
BRANCH  10  11
ATOM     11  C   LIG    1       -2.573   3.377   3.455  0.00  0.00    +0.160 C 
BRANCH  11  12
ATOM     12  C   LIG    1       -3.059   3.884   4.788  0.00  0.00    -0.030 A 
ATOM     13  C   LIG    1       -3.748   5.018   5.013  0.00  0.00    +0.150 A 
ATOM     14  N   LIG    1       -3.989   5.104   6.330  0.00  0.00    -0.490 NA
ATOM     15  C   LIG    1       -3.474   4.066   6.929  0.00  0.00    +0.390 A 
ATOM     16  N   LIG    1       -2.889   3.276   6.003  0.00  0.00    -0.460 N 
ATOM     17  C   LIG    1       -2.199   2.008   6.252  0.00  0.00    +0.330 C 
ENDBRANCH  11  12
ENDBRANCH  10  11
ENDBRANCH   5  10
BRANCH   3  18
ATOM     18  C   LIG    1        1.248   2.021   0.001  0.00  0.00    +0.170 C 
BRANCH  18  19
ATOM     19  O   LIG    1       -0.016   1.355   0.009  0.00  0.00    -0.270 OA
BRANCH  19  20
ATOM     20  C   LIG    1        0.002  -0.004   0.002  0.00  0.00    +0.080 A 
ATOM     21  C   LIG    1       -1.187  -0.726   0.009  0.00  0.00    +0.040 A 
ATOM     22  C   LIG    1       -1.117  -2.110   0.001  0.00  0.00    +0.010 A 
ATOM     23  C   LIG    1        0.121  -2.723  -0.014  0.00  0.00    +0.210 A 
ATOM     24  N   LIG    1        1.230  -2.009  -0.021  0.00  0.00    -0.450 NA
ATOM     25  C   LIG    1        1.207  -0.691  -0.019  0.00  0.00    +0.160 A 
ENDBRANCH  19  20
ENDBRANCH  18  19
ENDBRANCH   3  18
TORSDOF 7
