REMARK  Name = ZINCtV00000L1wFp.0
REMARK                            x       y       z     vdW  Elec       q    Type
REMARK                         _______ _______ _______ _____ _____    ______ ____
ROOT
ATOM      1  C   LIG    1        1.045   6.298  -0.060  0.00  0.00    +0.090 A 
ATOM      2  C   LIG    1        2.041   5.707   0.752  0.00  0.00    -0.060 A 
ATOM      3  C   LIG    1        2.945   6.460   1.507  0.00  0.00    +0.050 A 
ATOM      4  C   LIG    1        3.879   5.820   2.268  0.00  0.00    +0.050 A 
ATOM      5  C   LIG    1        3.944   4.430   2.305  0.00  0.00    +0.050 A 
ATOM      6  C   LIG    1        3.076   3.666   1.580  0.00  0.00    +0.050 A 
ATOM      7  C   LIG    1        2.107   4.291   0.790  0.00  0.00    -0.060 A 
ATOM      8  C   LIG    1        1.171   3.567   0.010  0.00  0.00    +0.150 A 
ATOM      9  N   LIG    1        0.289   4.235  -0.714  0.00  0.00    -0.240 NA
ATOM     10  N   LIG    1        0.227   5.514  -0.743  0.00  0.00    -0.270 NA
ENDROOT
BRANCH   8  11
ATOM     11  C   LIG    1        1.184   2.087   0.002  0.00  0.00    -0.050 A 
ATOM     12  C   LIG    1        1.322   1.381   1.197  0.00  0.00    +0.030 A 
ATOM     13  C   LIG    1        1.333   0.001   1.183  0.00  0.00    +0.010 A 
ATOM     14  C   LIG    1        1.208  -0.682  -0.013  0.00  0.00    +0.030 A 
ATOM     15  C   LIG    1        1.070   0.012  -1.202  0.00  0.00    +0.010 A 
ATOM     16  C   LIG    1        1.057   1.391  -1.201  0.00  0.00    +0.050 A 
ENDBRANCH   8  11
BRANCH   1  17
ATOM     17  S   LIG    1        0.897   8.051  -0.162  0.00  0.00    -0.010 S 
BRANCH  17  18
ATOM     18  C   LIG    1       -0.498   8.183  -1.308  0.00  0.00    +0.170 C 
BRANCH  18  24
ATOM     19 CL   LIG    1        0.287  12.497  -4.109  0.00  0.00    -0.060 Cl
ATOM     20  C   LIG    1       -0.486  11.648  -2.808  0.00  0.00    -0.060 A 
ATOM     21  C   LIG    1       -1.392  12.306  -1.995  0.00  0.00    +0.080 A 
ATOM     22  C   LIG    1       -2.009  11.632  -0.957  0.00  0.00    -0.190 A 
ATOM     23  C   LIG    1       -1.726  10.293  -0.737  0.00  0.00    +0.160 A 
ATOM     24  C   LIG    1       -0.813   9.636  -1.550  0.00  0.00    -0.100 A 
ATOM     25  O   LIG    1       -2.336   9.615   0.272  0.00  0.00    -0.320 OA
ATOM     26  C   LIG    1       -2.970  10.399   1.287  0.00  0.00    +0.440 C 
ATOM     27  O   LIG    1       -3.770  11.405   0.654  0.00  0.00    -0.380 OA
ATOM     28  C   LIG    1       -2.988  12.362  -0.072  0.00  0.00    +0.300 C 
ATOM     29  C   LIG    1       -0.197  10.313  -2.584  0.00  0.00    +0.100 A 
ENDBRANCH  18  24
ENDBRANCH  17  18
ENDBRANCH   1  17
TORSDOF 4
