REMARK  Name = ZINCrg000000qMm3.1
REMARK                            x       y       z     vdW  Elec       q    Type
REMARK                         _______ _______ _______ _____ _____    ______ ____
ROOT
ATOM      1  C   LIG    1        1.377  -4.443  -3.055  0.00  0.00    +0.220 A 
ATOM      2  N   LIG    1        1.432  -5.705  -3.429  0.00  0.00    -0.250 NA
ATOM      3  N   LIG    1        1.419  -5.711  -4.833  0.00  0.00    -0.320 N 
ATOM      4  C   LIG    1        1.355  -4.418  -5.221  0.00  0.00    +0.350 A 
ATOM      5  C   LIG    1        1.317  -3.924  -6.644  0.00  0.00    +0.240 C 
ATOM      6  N   LIG    1        1.325  -3.671  -4.152  0.00  0.00    -0.500 NA
ENDROOT
BRANCH   3   7
ATOM      7  C   LIG    1        1.462  -6.830  -5.663  0.00  0.00    +0.460 A 
ATOM      8  N   LIG    1        1.450  -6.828  -6.974  0.00  0.00    -0.260 NA
ATOM      9  N   LIG    1        1.502  -8.036  -7.412  0.00  0.00    -0.190 NA
ATOM     10  C   LIG    1        1.550  -8.871  -6.410  0.00  0.00    +0.100 A 
ATOM     11  N   LIG    1        1.532  -8.133  -5.265  0.00  0.00    -0.550 N 
ATOM     12  H   LIG    1        1.560  -8.466  -4.354  0.00  0.00    +0.450 HD
BRANCH  10  13
ATOM     13  C   LIG    1        1.620 -10.373  -6.504  0.00  0.00    +0.570 C 
ATOM     14  F   LIG    1        0.373 -10.919  -6.180  0.00  0.00    -0.150 F 
ATOM     15  F   LIG    1        2.585 -10.852  -5.611  0.00  0.00    -0.160 F 
ATOM     16  F   LIG    1        1.967 -10.744  -7.807  0.00  0.00    -0.140 F 
ENDBRANCH  10  13
ENDBRANCH   3   7
BRANCH   1  19
ATOM     17  N   LIG    1        1.310  -2.635  -1.405  0.00  0.00    -0.700 N 
ATOM     18  H   LIG    1        1.273  -2.002  -2.139  0.00  0.00    +0.420 HD
ATOM     19  C   LIG    1        1.368  -3.958  -1.659  0.00  0.00    +0.610 C 
ATOM     20  O   LIG    1        1.414  -4.752  -0.739  0.00  0.00    -0.500 OA
BRANCH  17  21
ATOM     21  C   LIG    1        1.300  -2.155  -0.021  0.00  0.00    +0.350 C 
BRANCH  21  25
ATOM     22  C   LIG    1        1.187   2.072   0.002  0.00  0.00    +0.330 A 
ATOM     23  C   LIG    1       -0.017   1.380   0.010  0.00  0.00    -0.040 A 
ATOM     24  C   LIG    1        0.002  -0.004   0.002  0.00  0.00    +0.130 A 
ATOM     25  C   LIG    1        1.231  -0.649  -0.013  0.00  0.00    -0.210 A 
ATOM     26  C   LIG    1        2.389   0.103  -0.020  0.00  0.00    +0.330 A 
ATOM     27  N   LIG    1        2.339   1.421  -0.013  0.00  0.00    -0.540 NA
BRANCH  22  29
ATOM     28  C   LIG    1        2.453   4.082   0.000  0.00  0.00    +0.260 C 
ATOM     29  O   LIG    1        1.182   3.429   0.009  0.00  0.00    -0.310 OA
ENDBRANCH  22  29
ENDBRANCH  21  25
ENDBRANCH  17  21
ENDBRANCH   1  19
TORSDOF 6
