REMARK  Name = ZINCrg000000qMm3.0
REMARK                            x       y       z     vdW  Elec       q    Type
REMARK                         _______ _______ _______ _____ _____    ______ ____
ROOT
ATOM      1  C   LIG    1        5.569   1.162  -0.046  0.00  0.00    +0.220 A 
ATOM      2  N   LIG    1        4.349   1.658  -0.031  0.00  0.00    -0.240 NA
ATOM      3  N   LIG    1        3.469   0.563  -0.029  0.00  0.00    -0.330 N 
ATOM      4  C   LIG    1        4.240  -0.548  -0.037  0.00  0.00    +0.350 A 
ATOM      5  C   LIG    1        3.740  -1.969  -0.032  0.00  0.00    +0.240 C 
ATOM      6  N   LIG    1        5.491  -0.178  -0.053  0.00  0.00    -0.500 NA
ENDROOT
BRANCH   3   7
ATOM      7  C   LIG    1        2.077   0.612  -0.015  0.00  0.00    +0.540 A 
ATOM      8  N   LIG    1        1.267  -0.422  -0.012  0.00  0.00    -0.500 NA
ATOM      9  C   LIG    1        0.002  -0.004   0.002  0.00  0.00    +0.170 A 
ATOM     10  N   LIG    1       -0.016   1.303   0.009  0.00  0.00    -0.220 NA
ATOM     11  N   LIG    1        1.322   1.730  -0.001  0.00  0.00    -0.440 N 
ATOM     12  H   LIG    1        1.640   2.646   0.000  0.00  0.00    +0.460 HD
BRANCH   9  13
ATOM     13  C   LIG    1       -1.213  -0.895   0.009  0.00  0.00    +0.580 C 
ATOM     14  F   LIG    1       -1.376  -1.452   1.282  0.00  0.00    -0.150 F 
ATOM     15  F   LIG    1       -1.047  -1.918  -0.931  0.00  0.00    -0.150 F 
ATOM     16  F   LIG    1       -2.346  -0.141  -0.318  0.00  0.00    -0.150 F 
ENDBRANCH   9  13
ENDBRANCH   3   7
BRANCH   1  19
ATOM     17  N   LIG    1        8.012   1.325  -0.070  0.00  0.00    -0.700 N 
ATOM     18  H   LIG    1        8.051   0.355  -0.076  0.00  0.00    +0.420 HD
ATOM     19  C   LIG    1        6.819   1.952  -0.054  0.00  0.00    +0.610 C 
ATOM     20  O   LIG    1        6.771   3.166  -0.046  0.00  0.00    -0.500 OA
BRANCH  17  21
ATOM     21  C   LIG    1        9.251   2.107  -0.077  0.00  0.00    +0.350 C 
BRANCH  21  25
ATOM     22  C   LIG    1       12.572  -0.511  -0.044  0.00  0.00    +0.330 A 
ATOM     23  C   LIG    1       12.060  -0.110  -1.271  0.00  0.00    -0.040 A 
ATOM     24  C   LIG    1       10.973   0.747  -1.300  0.00  0.00    +0.130 A 
ATOM     25  C   LIG    1       10.434   1.174  -0.095  0.00  0.00    -0.210 A 
ATOM     26  C   LIG    1       10.998   0.739   1.089  0.00  0.00    +0.330 A 
ATOM     27  N   LIG    1       12.030  -0.082   1.085  0.00  0.00    -0.540 NA
BRANCH  22  29
ATOM     28  C   LIG    1       14.116  -1.726   1.291  0.00  0.00    +0.260 C 
ATOM     29  O   LIG    1       13.637  -1.350  -0.002  0.00  0.00    -0.310 OA
ENDBRANCH  22  29
ENDBRANCH  21  25
ENDBRANCH  17  21
ENDBRANCH   1  19
TORSDOF 6
