REMARK  Name = ZINCvU0000000ACm.0
REMARK                            x       y       z     vdW  Elec       q    Type
REMARK                         _______ _______ _______ _____ _____    ______ ____
ROOT
ATOM      1  C   LIG    1       -7.524  -6.170   1.663  0.00  0.00    +0.560 C 
ATOM      2  N   LIG    1       -6.405  -5.463   1.411  0.00  0.00    -0.720 N 
ATOM      3  H   LIG    1       -5.865  -5.131   2.145  0.00  0.00    +0.400 HD
ATOM      4  O   LIG    1       -8.201  -6.585   0.743  0.00  0.00    -0.530 OA
ENDROOT
BRANCH   1  11
ATOM      5  C   LIG    1       -9.055  -7.194   7.028  0.00  0.00    +0.440 A 
ATOM      6  N   LIG    1      -10.155  -7.887   7.252  0.00  0.00    -0.560 NA
ATOM      7  C   LIG    1      -10.918  -8.356   6.274  0.00  0.00    +0.300 A 
ATOM      8  C   LIG    1      -10.615  -8.151   4.963  0.00  0.00    -0.080 A 
ATOM      9  C   LIG    1       -9.455  -7.418   4.639  0.00  0.00    +0.010 A 
ATOM     10  C   LIG    1       -9.084  -7.164   3.313  0.00  0.00    +0.100 A 
ATOM     11  C   LIG    1       -7.929  -6.441   3.060  0.00  0.00    -0.110 A 
ATOM     12  C   LIG    1       -7.143  -5.958   4.119  0.00  0.00    +0.020 A 
ATOM     13  C   LIG    1       -7.493  -6.194   5.412  0.00  0.00    +0.050 A 
ATOM     14  C   LIG    1       -8.653  -6.926   5.700  0.00  0.00    -0.130 A 
BRANCH   5  15
ATOM     15  N   LIG    1       -8.298  -6.731   8.091  0.00  0.00    -0.840 N 
ATOM     16  H   LIG    1       -8.575  -6.916   9.001  0.00  0.00    +0.410 HD
ATOM     17  H   LIG    1       -7.489  -6.222   7.924  0.00  0.00    +0.410 HD
ENDBRANCH   5  15
ENDBRANCH   1  11
BRANCH   2  18
ATOM     18  C   LIG    1       -6.004  -5.194   0.028  0.00  0.00    +0.320 C 
BRANCH  18  19
ATOM     19  C   LIG    1       -4.729  -4.392   0.021  0.00  0.00    -0.110 A 
ATOM     20  C   LIG    1       -3.507  -5.040   0.006  0.00  0.00    +0.030 A 
ATOM     21  C   LIG    1       -2.335  -4.310  -0.001  0.00  0.00    +0.020 A 
ATOM     22  C   LIG    1       -2.385  -2.917   0.008  0.00  0.00    -0.030 A 
ATOM     23  C   LIG    1       -3.619  -2.269   0.029  0.00  0.00    +0.020 A 
ATOM     24  C   LIG    1       -4.784  -3.010   0.029  0.00  0.00    +0.040 A 
BRANCH  22  25
ATOM     25  C   LIG    1       -1.130  -2.127   0.001  0.00  0.00    -0.050 A 
ATOM     26  C   LIG    1       -1.189  -0.747   0.009  0.00  0.00    +0.040 A 
ATOM     27  C   LIG    1        0.002  -0.004   0.002  0.00  0.00    -0.050 A 
ATOM     28  C   LIG    1       -0.017   1.402   0.010  0.00  0.00    +0.020 A 
ATOM     29  C   LIG    1        1.157   2.091   0.002  0.00  0.00    +0.010 A 
ATOM     30  C   LIG    1        2.380   1.425  -0.013  0.00  0.00    +0.010 A 
ATOM     31  C   LIG    1        2.437   0.064  -0.021  0.00  0.00    +0.020 A 
ATOM     32  C   LIG    1        1.247  -0.683  -0.013  0.00  0.00    -0.050 A 
ATOM     33  C   LIG    1        1.273  -2.089  -0.022  0.00  0.00    +0.030 A 
ATOM     34  C   LIG    1        0.109  -2.789  -0.015  0.00  0.00    +0.020 A 
ENDBRANCH  22  25
ENDBRANCH  18  19
ENDBRANCH   2  18
TORSDOF 5
