REMARK  Name = ZINCrD000000BpG1.0
REMARK                            x       y       z     vdW  Elec       q    Type
REMARK                         _______ _______ _______ _____ _____    ______ ____
ROOT
ATOM      1  O   LIG    1        3.048  -3.665  -6.754  0.00  0.00    -0.530 OA
ATOM      2  C   LIG    1        1.893  -3.323  -6.593  0.00  0.00    +0.560 C 
ATOM      3  N   LIG    1        1.519  -2.733  -5.441  0.00  0.00    -0.720 N 
ATOM      4  H   LIG    1        0.597  -2.460  -5.313  0.00  0.00    +0.400 HD
ENDROOT
BRANCH   2   5
ATOM      5  C   LIG    1        0.898  -3.554  -7.662  0.00  0.00    -0.130 A 
ATOM      6  C   LIG    1       -0.430  -3.168  -7.479  0.00  0.00    +0.040 A 
ATOM      7  C   LIG    1       -1.353  -3.383  -8.482  0.00  0.00    +0.030 A 
ATOM      8  C   LIG    1       -0.965  -3.989  -9.664  0.00  0.00    -0.080 A 
ATOM      9  C   LIG    1        0.349  -4.379  -9.851  0.00  0.00    +0.020 A 
ATOM     10  C   LIG    1        1.283  -4.165  -8.857  0.00  0.00    +0.080 A 
BRANCH   8  11
ATOM     11  C   LIG    1       -1.979  -4.225 -10.754  0.00  0.00    +0.340 C 
BRANCH  11  12
ATOM     12  N   LIG    1       -2.598  -5.540 -10.568  0.00  0.00    -0.620 N 
ATOM     13  C   LIG    1       -2.092  -6.785 -11.158  0.00  0.00    +0.260 C 
ATOM     14  C   LIG    1       -2.767  -7.922 -10.357  0.00  0.00    +0.040 C 
ATOM     15  C   LIG    1       -4.057  -7.231  -9.857  0.00  0.00    +0.050 C 
ATOM     16  C   LIG    1       -3.706  -5.760  -9.839  0.00  0.00    +0.520 C 
ATOM     17  O   LIG    1       -4.334  -4.903  -9.253  0.00  0.00    -0.530 OA
ENDBRANCH  11  12
ENDBRANCH   8  11
ENDBRANCH   2   5
BRANCH   3  18
ATOM     18  C   LIG    1        2.504  -2.503  -4.382  0.00  0.00    +0.320 C 
BRANCH  18  19
ATOM     19  C   LIG    1        1.835  -1.835  -3.209  0.00  0.00    -0.140 A 
ATOM     20  C   LIG    1        1.275  -2.602  -2.204  0.00  0.00    +0.080 A 
ATOM     21  C   LIG    1        0.661  -1.992  -1.128  0.00  0.00    +0.000 A 
ATOM     22  C   LIG    1        0.606  -0.607  -1.056  0.00  0.00    +0.110 A 
ATOM     23  C   LIG    1        1.163   0.161  -2.068  0.00  0.00    -0.050 A 
ATOM     24  C   LIG    1        1.781  -0.455  -3.140  0.00  0.00    +0.070 A 
BRANCH  22  25
ATOM     25  O   LIG    1        0.002  -0.004   0.002  0.00  0.00    -0.320 OA
BRANCH  25  26
ATOM     26  C   LIG    1       -0.017   1.425   0.010  0.00  0.00    +0.590 C 
ATOM     27  F   LIG    1       -0.694   1.888  -1.123  0.00  0.00    -0.200 F 
ATOM     28  F   LIG    1        1.295   1.909  -0.000  0.00  0.00    -0.200 F 
ENDBRANCH  25  26
ENDBRANCH  22  25
ENDBRANCH  18  19
ENDBRANCH   3  18
TORSDOF 7
