REMARK  Name = ZINCpe00000VVGuC.0
REMARK                            x       y       z     vdW  Elec       q    Type
REMARK                         _______ _______ _______ _____ _____    ______ ____
ROOT
ATOM      1  C   LIG    1       -0.222  -3.089  -1.600  0.00  0.00    +0.140 C 
ATOM      2  C   LIG    1       -1.503  -3.921  -1.709  0.00  0.00    +0.170 C 
ATOM      3  N   LIG    1       -1.843  -4.104  -3.128  0.00  0.00    -0.530 NA
ATOM      4  C   LIG    1       -2.026  -2.805  -3.792  0.00  0.00    +0.160 C 
ATOM      5  C   LIG    1       -0.739  -1.985  -3.662  0.00  0.00    +0.230 C 
ATOM      6  O   LIG    1       -0.408  -1.843  -2.278  0.00  0.00    -0.370 OA
ENDROOT
BRANCH   1   7
ATOM      7  C   LIG    1        0.092  -2.826  -0.126  0.00  0.00    +0.320 C 
BRANCH   7   9
ATOM      8  C   LIG    1        2.618  -2.694   0.073  0.00  0.00    +0.300 C 
ATOM      9  N   LIG    1        1.316  -2.028  -0.022  0.00  0.00    -0.600 N 
BRANCH   9  10
ATOM     10  C   LIG    1        1.243  -0.640  -0.013  0.00  0.00    +0.350 A 
ATOM     11  C   LIG    1        0.002  -0.004   0.002  0.00  0.00    -0.020 A 
ATOM     12  C   LIG    1       -0.017   1.382   0.010  0.00  0.00    +0.070 A 
ATOM     13  C   LIG    1        1.199   2.051   0.002  0.00  0.00    +0.150 A 
ATOM     14  N   LIG    1        2.327   1.369  -0.013  0.00  0.00    -0.210 NA
ATOM     15  N   LIG    1        2.352   0.086  -0.020  0.00  0.00    -0.310 NA
ENDBRANCH   9  10
ENDBRANCH   7   9
ENDBRANCH   1   7
BRANCH   3  16
ATOM     16  C   LIG    1       -3.037  -4.945  -3.279  0.00  0.00    +0.320 C 
BRANCH  16  17
ATOM     17  C   LIG    1       -3.216  -5.307  -4.731  0.00  0.00    +0.180 A 
ATOM     18  N   LIG    1       -3.901  -4.636  -5.616  0.00  0.00    -0.290 NA
ATOM     19  N   LIG    1       -3.836  -5.231  -6.755  0.00  0.00    -0.290 NA
ATOM     20  C   LIG    1       -3.115  -6.314  -6.644  0.00  0.00    +0.210 A 
ATOM     21  N   LIG    1       -2.701  -6.393  -5.357  0.00  0.00    -0.460 N 
ATOM     22  C   LIG    1       -1.867  -7.440  -4.762  0.00  0.00    +0.340 C 
BRANCH  20  23
ATOM     23  C   LIG    1       -2.802  -7.294  -7.745  0.00  0.00    +0.030 C 
ATOM     24  C   LIG    1       -3.200  -6.906  -9.171  0.00  0.00    +0.070 C 
ATOM     25  C   LIG    1       -3.980  -7.992  -8.427  0.00  0.00    +0.050 C 
ENDBRANCH  20  23
ENDBRANCH  16  17
ENDBRANCH   3  16
TORSDOF 6
