REMARK  Name = ZINCrH000004lcMW.1
REMARK                            x       y       z     vdW  Elec       q    Type
REMARK                         _______ _______ _______ _____ _____    ______ ____
ROOT
ATOM      1  C   LIG    1       -1.074   3.882  -2.468  0.00  0.00    +0.530 C 
ATOM      2  N   LIG    1       -0.854   2.837  -1.647  0.00  0.00    -0.600 N 
ATOM      3  C   LIG    1       -0.798   1.468  -2.177  0.00  0.00    +0.320 C 
ATOM      4  C   LIG    1        0.515   0.819  -1.728  0.00  0.00    +0.000 C 
ATOM      5  C   LIG    1        0.629   0.908  -0.204  0.00  0.00    +0.020 C 
ATOM      6  C   LIG    1        0.645   2.377   0.223  0.00  0.00    +0.040 C 
ATOM      7  C   LIG    1       -0.666   3.044  -0.204  0.00  0.00    +0.320 C 
ATOM      8  O   LIG    1       -1.306   4.979  -2.004  0.00  0.00    -0.490 OA
ENDROOT
BRANCH   7   9
ATOM      9  C   LIG    1       -0.605   4.520   0.090  0.00  0.00    +0.280 A 
ATOM     10  N   LIG    1        0.008   5.402  -0.644  0.00  0.00    -0.410 NA
ATOM     11  C   LIG    1       -0.136   6.635  -0.092  0.00  0.00    +0.060 A 
ATOM     12  C   LIG    1        0.306   7.909  -0.455  0.00  0.00    +0.090 A 
ATOM     13  C   LIG    1       -0.009   8.987   0.324  0.00  0.00    +0.020 A 
ATOM     14  C   LIG    1       -0.766   8.829   1.478  0.00  0.00    -0.020 A 
ATOM     15  C   LIG    1       -1.213   7.580   1.854  0.00  0.00    +0.030 A 
ATOM     16 CL   LIG    1       -1.152  10.214   2.451  0.00  0.00    -0.070 Cl
ATOM     17  C   LIG    1       -0.903   6.474   1.074  0.00  0.00    +0.060 A 
ATOM     18  N   LIG    1       -1.188   5.126   1.160  0.00  0.00    -0.590 N 
ATOM     19  H   LIG    1       -1.708   4.692   1.855  0.00  0.00    +0.420 HD
ENDBRANCH   7   9
BRANCH   1  20
ATOM     20  C   LIG    1       -1.033   3.689  -3.962  0.00  0.00    -0.070 C 
ATOM     21  C   LIG    1        0.225   2.902  -4.342  0.00  0.00    +0.020 C 
ATOM     22  C   LIG    1        1.463   3.716  -3.955  0.00  0.00    +0.210 C 
ATOM     23  O   LIG    1        1.420   4.986  -4.609  0.00  0.00    -0.380 OA
ATOM     24  C   LIG    1        0.289   5.786  -4.256  0.00  0.00    +0.220 C 
ATOM     25  C   LIG    1       -0.996   5.055  -4.654  0.00  0.00    +0.030 C 
BRANCH  20  26
ATOM     26  C   LIG    1       -2.276   2.920  -4.413  0.00  0.00    +0.190 C 
BRANCH  26  28
ATOM     27  C   LIG    1       -3.550   0.939  -3.971  0.00  0.00    +0.180 C 
ATOM     28  O   LIG    1       -2.413   1.734  -3.628  0.00  0.00    -0.370 OA
ENDBRANCH  26  28
ENDBRANCH  20  26
ENDBRANCH   1  20
TORSDOF 4
