REMARK  Name = ZINCrg00000Byi5w.0
REMARK                            x       y       z     vdW  Elec       q    Type
REMARK                         _______ _______ _______ _____ _____    ______ ____
ROOT
ATOM      1  C   LIG    1       -3.951   4.960   0.062  0.00  0.00    +0.570 C 
ATOM      2  N   LIG    1       -5.272   4.691   0.072  0.00  0.00    -0.700 N 
ATOM      3  H   LIG    1       -5.580   3.772   0.070  0.00  0.00    +0.400 HD
ATOM      4  O   LIG    1       -3.565   6.113   0.065  0.00  0.00    -0.520 OA
ENDROOT
BRANCH   1  12
ATOM      5  O   LIG    1        2.223   1.405  -0.011  0.00  0.00    -0.480 OA
ATOM      6  C   LIG    1        1.065   1.776   0.001  0.00  0.00    +0.640 A 
ATOM      7  N   LIG    1       -0.011   0.966   0.007  0.00  0.00    -0.650 N 
ATOM      8  H   LIG    1        0.002  -0.004   0.002  0.00  0.00    +0.450 HD
ATOM      9  C   LIG    1       -1.144   1.772   0.016  0.00  0.00    +0.100 A 
ATOM     10  C   LIG    1       -2.505   1.496   0.032  0.00  0.00    +0.040 A 
ATOM     11  C   LIG    1       -3.417   2.529   0.045  0.00  0.00    +0.080 A 
ATOM     12  C   LIG    1       -2.973   3.854   0.048  0.00  0.00    -0.130 A 
ATOM     13  C   LIG    1       -1.605   4.133   0.037  0.00  0.00    +0.150 A 
ATOM     14  C   LIG    1       -0.693   3.094   0.024  0.00  0.00    +0.030 A 
ATOM     15  O   LIG    1        0.662   3.057   0.011  0.00  0.00    -0.230 OA
ENDBRANCH   1  12
BRANCH   2  16
ATOM     16  C   LIG    1       -6.242   5.789   0.087  0.00  0.00    +0.260 C 
ATOM     17  C   LIG    1       -7.447   5.677  -0.851  0.00  0.00    -0.050 C 
ATOM     18  C   LIG    1       -8.223   6.967  -1.195  0.00  0.00    +0.300 C 
ATOM     19  N   LIG    1       -9.224   7.101  -0.111  0.00  0.00    -0.610 N 
ATOM     20  C   LIG    1       -8.480   6.693   1.148  0.00  0.00    +0.330 C 
ATOM     21  C   LIG    1      -10.507   7.501  -0.215  0.00  0.00    +0.590 C 
ATOM     22  O   LIG    1      -10.962   7.804  -1.301  0.00  0.00    -0.530 OA
ATOM     23  C   LIG    1       -7.626   5.499   0.671  0.00  0.00    -0.060 C 
BRANCH  21  24
ATOM     24  C   LIG    1      -11.361   7.573   0.993  0.00  0.00    +0.080 A 
ATOM     25  C   LIG    1      -12.684   7.993   0.879  0.00  0.00    +0.040 A 
ATOM     26  C   LIG    1      -13.473   8.049   2.018  0.00  0.00    +0.060 A 
ATOM     27  C   LIG    1      -12.907   7.694   3.232  0.00  0.00    -0.010 A 
ATOM     28  C   LIG    1      -11.582   7.291   3.272  0.00  0.00    +0.270 A 
ATOM     29  N   LIG    1      -10.857   7.241   2.175  0.00  0.00    -0.460 NA
ENDBRANCH  21  24
ENDBRANCH   2  16
TORSDOF 3
