REMARK  Name = ZINCrD00000F5LvQ.0
REMARK                            x       y       z     vdW  Elec       q    Type
REMARK                         _______ _______ _______ _____ _____    ______ ____
ROOT
ATOM      1  C   LIG    1        0.112   2.319   2.269  0.00  0.00    +0.550 C 
ATOM      2  N   LIG    1       -0.522   2.041   1.112  0.00  0.00    -0.550 N 
ATOM      3  C   LIG    1        0.146   2.261  -0.177  0.00  0.00    +0.280 C 
ATOM      4  C   LIG    1       -0.855   2.950  -1.114  0.00  0.00    +0.040 C 
ATOM      5  C   LIG    1       -2.036   2.009  -1.351  0.00  0.00    +0.090 C 
ATOM      6  C   LIG    1       -2.587   1.513  -0.041  0.00  0.00    -0.060 A 
ATOM      7  C   LIG    1       -3.893   1.015  -0.000  0.00  0.00    -0.120 A 
ATOM      8  C   LIG    1       -4.423   0.547   1.202  0.00  0.00    +0.020 A 
ATOM      9  C   LIG    1       -3.660   0.575   2.351  0.00  0.00    +0.030 A 
ATOM     10  C   LIG    1       -2.369   1.068   2.312  0.00  0.00    +0.050 A 
ATOM     11  C   LIG    1       -1.832   1.539   1.119  0.00  0.00    +0.150 A 
ATOM     12  O   LIG    1       -0.435   2.094   3.331  0.00  0.00    -0.520 OA
ENDROOT
BRANCH   7  13
ATOM     13  C   LIG    1       -4.711   0.985  -1.231  0.00  0.00    +0.570 C 
ATOM     14  N   LIG    1       -5.396  -0.129  -1.558  0.00  0.00    -0.550 N 
ATOM     15  C   LIG    1       -5.246  -1.371  -0.781  0.00  0.00    +0.270 C 
ATOM     16  C   LIG    1       -5.182  -2.538  -1.771  0.00  0.00    +0.250 C 
ATOM     17  O   LIG    1       -6.369  -2.536  -2.567  0.00  0.00    -0.300 OA
ATOM     18  C   LIG    1       -6.743  -1.364  -3.144  0.00  0.00    +0.130 A 
ATOM     19  C   LIG    1       -7.605  -1.378  -4.230  0.00  0.00    -0.010 A 
ATOM     20  C   LIG    1       -7.998  -0.189  -4.819  0.00  0.00    +0.120 A 
ATOM     21  C   LIG    1       -7.532   1.019  -4.328  0.00  0.00    -0.020 A 
ATOM     22  C   LIG    1       -6.671   1.041  -3.247  0.00  0.00    +0.090 A 
ATOM     23  F   LIG    1       -8.839  -0.206  -5.876  0.00  0.00    -0.130 F 
ATOM     24  C   LIG    1       -6.274  -0.147  -2.655  0.00  0.00    +0.070 A 
ATOM     25  O   LIG    1       -4.766   1.965  -1.949  0.00  0.00    -0.500 OA
ENDBRANCH   7  13
BRANCH   1  27
ATOM     26  C   LIG    1        2.049   3.267   3.381  0.00  0.00    +0.160 C 
ATOM     27  C   LIG    1        1.466   2.894   2.245  0.00  0.00    -0.100 C 
ENDBRANCH   1  27
TORSDOF 2
