REMARK  Name = ZINCrH000004swH4.1
REMARK                            x       y       z     vdW  Elec       q    Type
REMARK                         _______ _______ _______ _____ _____    ______ ____
ROOT
ATOM      1  N   LIG    1       -5.540   2.564   1.574  0.00  0.00    -0.730 N 
ATOM      2  H   LIG    1       -5.459   1.597   1.575  0.00  0.00    +0.400 HD
ATOM      3  C   LIG    1       -4.441   3.332   1.432  0.00  0.00    +0.710 C 
ATOM      4  N   LIG    1       -3.230   2.756   1.294  0.00  0.00    -0.670 N 
ATOM      5  H   LIG    1       -3.156   1.791   1.230  0.00  0.00    +0.410 HD
ATOM      6  O   LIG    1       -4.542   4.543   1.430  0.00  0.00    -0.560 OA
ENDROOT
BRANCH   4   7
ATOM      7  C   LIG    1       -2.077   3.552   1.240  0.00  0.00    +0.200 A 
ATOM      8  C   LIG    1       -2.120   4.797   0.632  0.00  0.00    +0.040 A 
ATOM      9  C   LIG    1       -0.982   5.581   0.580  0.00  0.00    +0.050 A 
ATOM     10  C   LIG    1        0.201   5.128   1.133  0.00  0.00    +0.020 A 
ATOM     11  C   LIG    1        0.251   3.889   1.748  0.00  0.00    -0.050 A 
ATOM     12 CL   LIG    1        1.737   3.328   2.449  0.00  0.00    -0.060 Cl
ATOM     13  C   LIG    1       -0.885   3.094   1.799  0.00  0.00    +0.070 A 
BRANCH  13  14
ATOM     14  N   LIG    1       -0.835   1.838   2.415  0.00  0.00    -0.500 N 
ATOM     15  C   LIG    1       -0.540   1.966   3.849  0.00  0.00    +0.200 C 
ATOM     16  C   LIG    1        0.142   0.965   1.752  0.00  0.00    +0.190 C 
ENDBRANCH  13  14
ENDBRANCH   4   7
BRANCH   1  17
ATOM     17  C   LIG    1       -6.856   3.190   1.724  0.00  0.00    +0.440 C 
BRANCH  17  21
ATOM     18  C   LIG    1       -9.094   5.670  -2.006  0.00  0.00    +0.190 C 
ATOM     19  C   LIG    1       -8.391   4.580  -1.239  0.00  0.00    +0.290 A 
ATOM     20  N   LIG    1       -8.018   4.640   0.013  0.00  0.00    -0.520 NA
ATOM     21  C   LIG    1       -7.423   3.500   0.363  0.00  0.00    +0.220 A 
ATOM     22  N   LIG    1       -7.418   2.691  -0.664  0.00  0.00    -0.300 NA
ATOM     23  N   LIG    1       -8.043   3.373  -1.720  0.00  0.00    -0.480 N 
ATOM     24  H   LIG    1       -8.195   3.040  -2.619  0.00  0.00    +0.440 HD
ENDBRANCH  17  21
BRANCH  17  25
ATOM     25  C   LIG    1       -7.779   2.247   2.451  0.00  0.00    -0.100 A 
ATOM     26  C   LIG    1       -7.753   0.895   2.165  0.00  0.00    +0.020 A 
ATOM     27  C   LIG    1       -8.598   0.030   2.835  0.00  0.00    +0.010 A 
ATOM     28  C   LIG    1       -9.475   0.518   3.785  0.00  0.00    +0.010 A 
ATOM     29  C   LIG    1       -9.505   1.871   4.068  0.00  0.00    +0.010 A 
ATOM     30  C   LIG    1       -8.658   2.735   3.401  0.00  0.00    +0.040 A 
ENDBRANCH  17  25
ENDBRANCH   1  17
TORSDOF 5
