REMARK  Name = ZINCrH000004swH4.0
REMARK                            x       y       z     vdW  Elec       q    Type
REMARK                         _______ _______ _______ _____ _____    ______ ____
ROOT
ATOM      1  N   LIG    1       -5.482   2.827   1.503  0.00  0.00    -0.730 N 
ATOM      2  H   LIG    1       -5.456   1.858   1.475  0.00  0.00    +0.410 HD
ATOM      3  C   LIG    1       -4.339   3.535   1.411  0.00  0.00    +0.710 C 
ATOM      4  N   LIG    1       -3.160   2.896   1.279  0.00  0.00    -0.670 N 
ATOM      5  H   LIG    1       -3.139   1.930   1.186  0.00  0.00    +0.420 HD
ATOM      6  O   LIG    1       -4.371   4.750   1.446  0.00  0.00    -0.570 OA
ENDROOT
BRANCH   4   7
ATOM      7  C   LIG    1       -1.963   3.626   1.277  0.00  0.00    +0.200 A 
ATOM      8  C   LIG    1       -1.921   4.890   0.708  0.00  0.00    +0.040 A 
ATOM      9  C   LIG    1       -0.740   5.609   0.707  0.00  0.00    +0.050 A 
ATOM     10  C   LIG    1        0.402   5.071   1.270  0.00  0.00    +0.020 A 
ATOM     11  C   LIG    1        0.369   3.813   1.845  0.00  0.00    -0.050 A 
ATOM     12 CL   LIG    1        1.803   3.146   2.558  0.00  0.00    -0.050 Cl
ATOM     13  C   LIG    1       -0.811   3.083   1.846  0.00  0.00    +0.070 A 
BRANCH  13  14
ATOM     14  N   LIG    1       -0.847   1.807   2.421  0.00  0.00    -0.500 N 
ATOM     15  C   LIG    1       -0.578   1.873   3.864  0.00  0.00    +0.210 C 
ATOM     16  C   LIG    1        0.095   0.901   1.751  0.00  0.00    +0.200 C 
ENDBRANCH  13  14
ENDBRANCH   4   7
BRANCH   1  17
ATOM     17  C   LIG    1       -6.764   3.522   1.646  0.00  0.00    +0.420 C 
BRANCH  17  22
ATOM     18  C   LIG    1      -10.586   1.654  -1.078  0.00  0.00    +0.200 C 
ATOM     19  C   LIG    1       -9.511   1.842  -0.040  0.00  0.00    +0.190 A 
ATOM     20  N   LIG    1       -9.226   1.024   0.936  0.00  0.00    -0.290 NA
ATOM     21  N   LIG    1       -8.252   1.499   1.629  0.00  0.00    -0.260 NA
ATOM     22  C   LIG    1       -7.872   2.643   1.127  0.00  0.00    +0.160 A 
ATOM     23  N   LIG    1       -8.663   2.895   0.057  0.00  0.00    -0.570 N 
ATOM     24  H   LIG    1       -8.629   3.672  -0.524  0.00  0.00    +0.430 HD
ENDBRANCH  17  22
BRANCH  17  25
ATOM     25  C   LIG    1       -7.008   3.831   3.101  0.00  0.00    -0.100 A 
ATOM     26  C   LIG    1       -6.683   2.900   4.070  0.00  0.00    +0.040 A 
ATOM     27  C   LIG    1       -6.903   3.186   5.404  0.00  0.00    +0.000 A 
ATOM     28  C   LIG    1       -7.455   4.399   5.769  0.00  0.00    +0.010 A 
ATOM     29  C   LIG    1       -7.785   5.329   4.800  0.00  0.00    +0.000 A 
ATOM     30  C   LIG    1       -7.561   5.044   3.466  0.00  0.00    +0.020 A 
ENDBRANCH  17  25
ENDBRANCH   1  17
TORSDOF 5
