REMARK  Name = ZINCkj000005eU9j.0
REMARK                            x       y       z     vdW  Elec       q    Type
REMARK                         _______ _______ _______ _____ _____    ______ ____
ROOT
ATOM      1  C   LIG    1        2.047   1.015   3.781  0.00  0.00    +0.200 C 
ATOM      2  C   LIG    1        1.442   1.612   5.054  0.00  0.00    +0.100 C 
ATOM      3  C   LIG    1        1.487   3.139   4.967  0.00  0.00    +0.040 C 
ATOM      4  C   LIG    1        2.935   3.586   4.750  0.00  0.00    +0.070 C 
ATOM      5  C   LIG    1        3.486   2.916   3.488  0.00  0.00    +0.260 C 
ATOM      6  N   LIG    1        3.439   1.458   3.644  0.00  0.00    -0.370 N 
ATOM      7  H   LIG    1        3.958   1.192   4.468  0.00  0.00    +0.430 HD
ENDROOT
BRANCH   1   8
ATOM      8  C   LIG    1        1.254   1.476   2.585  0.00  0.00    +0.470 C 
ATOM      9  O   LIG    1        1.806   2.059   1.683  0.00  0.00    -0.490 OA
BRANCH   8  10
ATOM     10  O   LIG    1       -0.066   1.237   2.522  0.00  0.00    -0.320 OA
BRANCH  10  12
ATOM     11  C   LIG    1       -0.169   1.048   0.097  0.00  0.00    +0.040 C 
ATOM     12  C   LIG    1       -0.765   1.709   1.341  0.00  0.00    +0.120 C 
ATOM     13  C   LIG    1       -2.248   1.348   1.448  0.00  0.00    +0.080 C 
ATOM     14  C   LIG    1       -0.617   3.228   1.233  0.00  0.00    +0.040 C 
ENDBRANCH  10  12
ENDBRANCH   8  10
ENDBRANCH   1   8
BRANCH   6  15
ATOM     15  C   LIG    1        4.039   0.823   2.463  0.00  0.00    +0.280 C 
BRANCH  15  16
ATOM     16  C   LIG    1        5.524   1.184   2.389  0.00  0.00    -0.010 C 
ATOM     17  C   LIG    1        6.330   0.437   3.475  0.00  0.00    +0.260 C 
ATOM     18  N   LIG    1        7.617   0.109   2.852  0.00  0.00    -0.730 N 
ATOM     19  H   LIG    1        8.414  -0.146   3.342  0.00  0.00    +0.420 HD
ATOM     20  C   LIG    1        7.550   0.207   1.512  0.00  0.00    +0.520 C 
ATOM     21  O   LIG    1        8.469  -0.017   0.753  0.00  0.00    -0.510 OA
ATOM     22  C   LIG    1        6.162   0.636   1.091  0.00  0.00    +0.100 C 
ENDBRANCH  15  16
ENDBRANCH   6  15
TORSDOF 5
