REMARK  Name = ZINCkj000005eU9j.1
REMARK                            x       y       z     vdW  Elec       q    Type
REMARK                         _______ _______ _______ _____ _____    ______ ____
ROOT
ATOM      1  C   LIG    1        3.374   4.689   1.653  0.00  0.00    +0.200 C 
ATOM      2  C   LIG    1        4.681   4.675   0.858  0.00  0.00    +0.080 C 
ATOM      3  C   LIG    1        5.566   3.531   1.360  0.00  0.00    +0.060 C 
ATOM      4  C   LIG    1        4.798   2.212   1.237  0.00  0.00    +0.060 C 
ATOM      5  C   LIG    1        3.486   2.317   2.018  0.00  0.00    +0.260 C 
ATOM      6  N   LIG    1        2.674   3.412   1.473  0.00  0.00    -0.370 N 
ATOM      7  H   LIG    1        2.515   3.253   0.489  0.00  0.00    +0.430 HD
ENDROOT
BRANCH   1   8
ATOM      8  C   LIG    1        2.500   5.814   1.162  0.00  0.00    +0.460 C 
ATOM      9  O   LIG    1        1.697   5.615   0.281  0.00  0.00    -0.480 OA
BRANCH   8  10
ATOM     10  O   LIG    1        2.614   7.037   1.702  0.00  0.00    -0.330 OA
BRANCH  10  12
ATOM     11  C   LIG    1        0.281   7.663   1.393  0.00  0.00    +0.050 C 
ATOM     12  C   LIG    1        1.740   8.072   1.180  0.00  0.00    +0.120 C 
ATOM     13  C   LIG    1        2.005   8.258  -0.315  0.00  0.00    +0.040 C 
ATOM     14  C   LIG    1        2.012   9.387   1.913  0.00  0.00    +0.080 C 
ENDBRANCH  10  12
ENDBRANCH   8  10
ENDBRANCH   1   8
BRANCH   6  15
ATOM     15  C   LIG    1        1.384   3.459   2.174  0.00  0.00    +0.270 C 
BRANCH  15  16
ATOM     16  C   LIG    1        0.557   2.226   1.804  0.00  0.00    -0.010 C 
ATOM     17  C   LIG    1        1.071   0.972   2.545  0.00  0.00    +0.260 C 
ATOM     18  N   LIG    1       -0.127   0.187   2.865  0.00  0.00    -0.730 N 
ATOM     19  H   LIG    1       -0.117  -0.750   3.115  0.00  0.00    +0.420 HD
ATOM     20  C   LIG    1       -1.240   0.934   2.768  0.00  0.00    +0.520 C 
ATOM     21  O   LIG    1       -2.365   0.537   2.987  0.00  0.00    -0.500 OA
ATOM     22  C   LIG    1       -0.886   2.344   2.348  0.00  0.00    +0.090 C 
ENDBRANCH  15  16
ENDBRANCH   6  15
TORSDOF 5
