REMARK  Name = ZINCrH000004nNQy.0
REMARK                            x       y       z     vdW  Elec       q    Type
REMARK                         _______ _______ _______ _____ _____    ______ ____
ROOT
ATOM      1  N   LIG    1       -2.428   3.686  -1.878  0.00  0.00    -0.690 N 
ATOM      2  H   LIG    1       -2.693   3.056  -2.566  0.00  0.00    +0.410 HD
ATOM      3  C   LIG    1       -1.408   3.389  -1.048  0.00  0.00    +0.700 C 
ATOM      4  N   LIG    1       -0.824   2.176  -1.107  0.00  0.00    -0.710 N 
ATOM      5  H   LIG    1       -1.088   1.543  -1.793  0.00  0.00    +0.400 HD
ATOM      6  O   LIG    1       -1.015   4.215  -0.248  0.00  0.00    -0.550 OA
ENDROOT
BRANCH   1   9
ATOM      7  C   LIG    1       -4.283   6.744  -2.736  0.00  0.00    -0.680 A 
ATOM      8  C   LIG    1       -3.615   5.543  -2.869  0.00  0.00    +0.130 A 
ATOM      9  C   LIG    1       -3.106   4.904  -1.745  0.00  0.00    +0.140 A 
ATOM     10  C   LIG    1       -3.276   5.473  -0.490  0.00  0.00    +0.120 A 
ATOM     11  C   LIG    1       -3.940   6.677  -0.362  0.00  0.00    +0.000 A 
ATOM     12  C   LIG    1       -4.446   7.312  -1.483  0.00  0.00    +0.170 A 
ATOM     13  F   LIG    1       -5.101   8.487  -1.356  0.00  0.00    -0.120 F 
BRANCH   7  15
ATOM     14  C   LIG    1       -6.727   7.527  -3.922  0.00  0.00    -0.250 C 
ATOM     15  S   LIG    1       -4.929   7.554  -4.161  0.00  0.00    +2.500 S 
ATOM     16  O   LIG    1       -4.557   6.711  -5.242  0.00  0.00    -0.930 OA
ATOM     17  O   LIG    1       -4.433   8.882  -4.064  0.00  0.00    -0.920 OA
ENDBRANCH   7  15
ENDBRANCH   1   9
BRANCH   4  18
ATOM     18  C   LIG    1        0.210   1.813  -0.134  0.00  0.00    +0.210 C 
ATOM     19  C   LIG    1        0.338   0.297   0.092  0.00  0.00    +0.050 C 
ATOM     20  C   LIG    1       -0.722   0.452   1.196  0.00  0.00    +0.020 C 
ATOM     21  C   LIG    1       -0.258   1.912   1.328  0.00  0.00    +0.050 C 
BRANCH  18  22
ATOM     22  C   LIG    1        1.526   2.498  -0.394  0.00  0.00    -0.170 A 
ATOM     23  C   LIG    1        1.890   3.606   0.352  0.00  0.00    +0.170 A 
ATOM     24  C   LIG    1        3.102   4.232   0.115  0.00  0.00    -0.030 A 
ATOM     25  C   LIG    1        3.944   3.757  -0.873  0.00  0.00    +0.090 A 
ATOM     26  C   LIG    1        3.580   2.654  -1.621  0.00  0.00    -0.030 A 
ATOM     27  F   LIG    1        1.065   4.073   1.314  0.00  0.00    -0.110 F 
ATOM     28  C   LIG    1        2.371   2.024  -1.383  0.00  0.00    +0.140 A 
ATOM     29  F   LIG    1        2.014   0.946  -2.116  0.00  0.00    -0.130 F 
ENDBRANCH  18  22
ENDBRANCH   4  18
TORSDOF 4
