REMARK  Name = ZINCvU0000000JKs.0
REMARK                            x       y       z     vdW  Elec       q    Type
REMARK                         _______ _______ _______ _____ _____    ______ ____
ROOT
ATOM      1  O   LIG    1        3.041   0.617  -0.147  0.00  0.00    -0.320 OA
ENDROOT
BRANCH   1   2
ATOM      2  C   LIG    1        3.047   1.957  -0.293  0.00  0.00    +0.550 C 
ATOM      3  O   LIG    1        4.102   2.558  -0.338  0.00  0.00    -0.510 OA
BRANCH   2   7
ATOM      4  C   LIG    1       -1.929   3.057  -0.525  0.00  0.00    +0.130 C 
ATOM      5  C   LIG    1       -0.425   3.158  -0.499  0.00  0.00    +0.010 A 
ATOM      6  C   LIG    1        0.423   2.124  -0.364  0.00  0.00    +0.030 A 
ATOM      7  C   LIG    1        1.777   2.691  -0.398  0.00  0.00    -0.220 A 
ATOM      8  C   LIG    1        1.615   4.052  -0.550  0.00  0.00    +0.130 A 
ATOM      9  C   LIG    1        2.723   5.069  -0.638  0.00  0.00    +0.150 C 
ATOM     10  N   LIG    1        0.294   4.315  -0.605  0.00  0.00    -0.390 N 
BRANCH  10  11
ATOM     11  C   LIG    1       -0.263   5.592  -0.756  0.00  0.00    +0.110 A 
ATOM     12  C   LIG    1       -0.100   6.544   0.241  0.00  0.00    +0.020 A 
ATOM     13  C   LIG    1       -0.645   7.804   0.088  0.00  0.00    +0.020 A 
ATOM     14  C   LIG    1       -1.362   8.114  -1.053  0.00  0.00    +0.020 A 
ATOM     15  C   LIG    1       -1.531   7.166  -2.046  0.00  0.00    +0.020 A 
ATOM     16  C   LIG    1       -0.983   5.906  -1.901  0.00  0.00    +0.020 A 
ENDBRANCH  10  11
ENDBRANCH   2   7
ENDBRANCH   1   2
BRANCH   1  17
ATOM     17  C   LIG    1        4.332  -0.042  -0.050  0.00  0.00    +0.210 C 
BRANCH  17  18
ATOM     18  C   LIG    1        4.806  -0.423  -1.428  0.00  0.00    -0.110 A 
ATOM     19  C   LIG    1        3.911  -0.931  -2.351  0.00  0.00    +0.040 A 
ATOM     20  C   LIG    1        4.345  -1.278  -3.617  0.00  0.00    +0.010 A 
ATOM     21  C   LIG    1        5.676  -1.124  -3.957  0.00  0.00    +0.020 A 
ATOM     22  C   LIG    1        6.572  -0.621  -3.032  0.00  0.00    +0.010 A 
ATOM     23  C   LIG    1        6.137  -0.271  -1.768  0.00  0.00    +0.040 A 
ENDBRANCH  17  18
BRANCH  17  24
ATOM     24  C   LIG    1        4.201  -1.281   0.798  0.00  0.00    +0.410 C 
ATOM     25  O   LIG    1        3.113  -1.793   0.959  0.00  0.00    -0.420 OA
BRANCH  24  26
ATOM     26  C   LIG    1        5.392  -1.870   1.429  0.00  0.00    -0.160 A 
ATOM     27  C   LIG    1        6.628  -1.222   1.339  0.00  0.00    +0.050 A 
ATOM     28  C   LIG    1        7.739  -1.778   1.938  0.00  0.00    +0.000 A 
ATOM     29  C   LIG    1        7.636  -2.979   2.618  0.00  0.00    +0.050 A 
ATOM     30  C   LIG    1        6.417  -3.628   2.707  0.00  0.00    +0.000 A 
ATOM     31  C   LIG    1        5.296  -3.083   2.118  0.00  0.00    +0.080 A 
ENDBRANCH  24  26
ENDBRANCH  17  24
ENDBRANCH   1  17
TORSDOF 7
