REMARK  Name = ZINCtV00000L6jzB.0
REMARK                            x       y       z     vdW  Elec       q    Type
REMARK                         _______ _______ _______ _____ _____    ______ ____
ROOT
ATOM      1  O   LIG    1        0.937  -1.617  -1.241  0.00  0.00    -0.400 OA
ATOM      2  C   LIG    1        1.071  -0.617  -0.560  0.00  0.00    +0.540 A 
ATOM      3  O   LIG    1        0.002  -0.004   0.002  0.00  0.00    -0.270 OA
ATOM      4  C   LIG    1       -0.016   1.351   0.009  0.00  0.00    +0.150 A 
ATOM      5  C   LIG    1       -1.225   2.033   0.030  0.00  0.00    +0.050 A 
ATOM      6  C   LIG    1       -1.242   3.412   0.043  0.00  0.00    +0.100 A 
ATOM      7  C   LIG    1       -0.057   4.133   0.042  0.00  0.00    -0.060 A 
ATOM      8  C   LIG    1        1.155   3.474   0.021  0.00  0.00    +0.100 A 
ATOM      9 CL   LIG    1       -0.099   5.868   0.068  0.00  0.00    -0.050 Cl
ATOM     10  C   LIG    1        1.185   2.082   0.002  0.00  0.00    -0.120 A 
ATOM     11  C   LIG    1        2.457   1.342  -0.032  0.00  0.00    +0.080 A 
ATOM     12  C   LIG    1        3.700   1.935   0.206  0.00  0.00    +0.010 A 
ATOM     13  C   LIG    1        4.837   1.184   0.158  0.00  0.00    +0.220 A 
ATOM     14  N   LIG    1        4.819  -0.161  -0.123  0.00  0.00    -0.390 N 
ATOM     15  C   LIG    1        5.812  -1.101  -0.224  0.00  0.00    +0.010 A 
ATOM     16  C   LIG    1        7.192  -1.023  -0.071  0.00  0.00    +0.050 A 
ATOM     17  C   LIG    1        7.908  -2.196  -0.248  0.00  0.00    +0.020 A 
ATOM     18  C   LIG    1        7.290  -3.394  -0.563  0.00  0.00    +0.020 A 
ATOM     19  C   LIG    1        5.930  -3.498  -0.719  0.00  0.00    +0.080 A 
ATOM     20  C   LIG    1        5.178  -2.327  -0.545  0.00  0.00    +0.090 A 
ATOM     21  N   LIG    1        3.861  -2.089  -0.621  0.00  0.00    -0.460 NA
ATOM     22  C   LIG    1        3.626  -0.811  -0.372  0.00  0.00    +0.330 A 
ATOM     23  C   LIG    1        2.392  -0.037  -0.323  0.00  0.00    -0.170 A 
ENDROOT
BRANCH  13  24
ATOM     24  C   LIG    1        6.135   1.840   0.416  0.00  0.00    -0.090 A 
ATOM     25  C   LIG    1        7.093   1.923  -0.597  0.00  0.00    +0.040 A 
ATOM     26  C   LIG    1        8.301   2.541  -0.351  0.00  0.00    +0.010 A 
ATOM     27  C   LIG    1        8.569   3.070   0.900  0.00  0.00    +0.040 A 
ATOM     28  C   LIG    1        7.626   2.987   1.909  0.00  0.00    +0.010 A 
ATOM     29  C   LIG    1        6.412   2.376   1.675  0.00  0.00    +0.050 A 
ENDBRANCH  13  24
TORSDOF 1
