REMARK  Name = ZINCrH000004oFgL.0
REMARK                            x       y       z     vdW  Elec       q    Type
REMARK                         _______ _______ _______ _____ _____    ______ ____
ROOT
ATOM      1  N   LIG    1       -1.087  -0.838   0.298  0.00  0.00    -0.630 N 
ATOM      2  H   LIG    1       -1.967  -0.433   0.341  0.00  0.00    +0.420 HD
ATOM      3  C   LIG    1       -0.964  -2.175   0.185  0.00  0.00    +0.570 C 
ATOM      4  O   LIG    1        0.141  -2.683   0.130  0.00  0.00    -0.430 OA
ENDROOT
BRANCH   1  12
ATOM      5  C   LIG    1        5.062   3.645   0.758  0.00  0.00    +0.030 C 
ATOM      6  C   LIG    1        4.101   2.465   0.921  0.00  0.00    -0.010 C 
ATOM      7  C   LIG    1        4.516   1.332  -0.022  0.00  0.00    +0.030 C 
ATOM      8  C   LIG    1        3.723   0.070   0.320  0.00  0.00    +0.140 C 
ATOM      9  C   LIG    1        2.243   0.420   0.366  0.00  0.00    +0.100 A 
ATOM     10  C   LIG    1        1.799   1.684   0.477  0.00  0.00    -0.230 A 
ATOM     11  S   LIG    1        0.041   1.664   0.495  0.00  0.00    +0.130 S 
ATOM     12  C   LIG    1        0.048  -0.039   0.352  0.00  0.00    +0.260 A 
ATOM     13  N   LIG    1        1.264  -0.475   0.302  0.00  0.00    -0.460 NA
ATOM     14  C   LIG    1        2.677   2.909   0.570  0.00  0.00    +0.130 C 
ENDBRANCH   1  12
BRANCH   3  15
ATOM     15  C   LIG    1       -2.162  -3.018   0.127  0.00  0.00    -0.160 A 
ATOM     16  C   LIG    1       -2.170  -4.372  -0.064  0.00  0.00    -0.610 A 
ATOM     17  C   LIG    1       -3.434  -4.912  -0.070  0.00  0.00    +0.070 A 
ATOM     18  C   LIG    1       -4.428  -4.032   0.098  0.00  0.00    -0.050 A 
ATOM     19  S   LIG    1       -3.818  -2.450   0.284  0.00  0.00    +0.260 S 
BRANCH  16  20
ATOM     20  S   LIG    1       -0.706  -5.330  -0.274  0.00  0.00    +2.700 S 
ATOM     21  O   LIG    1        0.141  -5.013   0.822  0.00  0.00    -0.920 OA
ATOM     22  O   LIG    1       -0.314  -5.170  -1.631  0.00  0.00    -0.940 OA
BRANCH  20  23
ATOM     23  N   LIG    1       -1.131  -6.920  -0.094  0.00  0.00    -1.000 NA
ATOM     24  C   LIG    1       -1.221  -7.524   1.243  0.00  0.00    +0.290 C 
ATOM     25  C   LIG    1       -2.607  -8.169   1.394  0.00  0.00    +0.010 C 
ATOM     26  C   LIG    1       -2.833  -9.153   0.244  0.00  0.00    +0.020 C 
ATOM     27  C   LIG    1       -2.796  -8.401  -1.088  0.00  0.00    -0.000 C 
ATOM     28  C   LIG    1       -1.418  -7.756  -1.267  0.00  0.00    +0.290 C 
ENDBRANCH  20  23
ENDBRANCH  16  20
ENDBRANCH   3  15
TORSDOF 4
