REMARK  Name = ZINCvU00000009m7.1
REMARK                            x       y       z     vdW  Elec       q    Type
REMARK                         _______ _______ _______ _____ _____    ______ ____
ROOT
ATOM      1  S   LIG    1        3.288   9.398  -0.439  0.00  0.00    +0.110 S 
ENDROOT
BRANCH   1   5
ATOM      2  C   LIG    1        2.333   5.275  -0.096  0.00  0.00    +0.300 A 
ATOM      3  N   LIG    1        1.267   6.013  -0.093  0.00  0.00    -0.330 NA
ATOM      4  N   LIG    1        1.481   7.369  -0.200  0.00  0.00    -0.260 NA
ATOM      5  C   LIG    1        2.722   7.735  -0.291  0.00  0.00    -0.010 A 
ATOM      6  S   LIG    1        3.752   6.309  -0.236  0.00  0.00    +0.110 S 
BRANCH   2   7
ATOM      7  N   LIG    1        2.353   3.888   0.001  0.00  0.00    -0.620 N 
ATOM      8  H   LIG    1        3.199   3.420   0.076  0.00  0.00    +0.430 HD
BRANCH   7  12
ATOM      9  C   LIG    1       -1.219   1.749  -0.027  0.00  0.00    -0.090 A 
ATOM     10  C   LIG    1       -1.129   2.950  -0.706  0.00  0.00    +0.040 A 
ATOM     11  C   LIG    1        0.053   3.663  -0.697  0.00  0.00    +0.020 A 
ATOM     12  C   LIG    1        1.155   3.170  -0.010  0.00  0.00    +0.150 A 
ATOM     13  C   LIG    1        1.063   1.960   0.666  0.00  0.00    -0.010 A 
ATOM     14  C   LIG    1       -0.122   1.252   0.653  0.00  0.00    +0.040 A 
BRANCH   9  16
ATOM     15  C   LIG    1       -2.281  -0.403  -0.653  0.00  0.00    +0.030 C 
ATOM     16  C   LIG    1       -2.513   0.977  -0.033  0.00  0.00    +0.020 C 
ATOM     17  C   LIG    1       -3.017   0.813   1.402  0.00  0.00    +0.030 C 
ENDBRANCH   9  16
ENDBRANCH   7  12
ENDBRANCH   2   7
ENDBRANCH   1   5
BRANCH   1  18
ATOM     18  C   LIG    1        1.747  10.355  -0.427  0.00  0.00    +0.130 C 
BRANCH  18  19
ATOM     19  C   LIG    1        2.067  11.823  -0.548  0.00  0.00    +0.540 C 
ATOM     20  N   LIG    1        1.072  12.731  -0.561  0.00  0.00    -0.610 N 
ATOM     21  H   LIG    1        0.149  12.440  -0.492  0.00  0.00    +0.430 HD
ATOM     22  O   LIG    1        3.221  12.187  -0.633  0.00  0.00    -0.440 OA
BRANCH  20  23
ATOM     23  C   LIG    1        1.366  14.081  -0.672  0.00  0.00    +0.380 A 
ATOM     24  N   LIG    1        2.562  14.608  -0.772  0.00  0.00    -0.260 NA
ATOM     25  N   LIG    1        2.461  15.888  -0.858  0.00  0.00    -0.250 NA
ATOM     26  C   LIG    1        1.195  16.227  -0.816  0.00  0.00    +0.210 A 
ATOM     27  O   LIG    1        0.476  15.090  -0.703  0.00  0.00    -0.230 OA
BRANCH  26  28
ATOM     28  C   LIG    1        0.655  17.601  -0.885  0.00  0.00    -0.020 A 
ATOM     29  C   LIG    1       -0.723  17.816  -0.834  0.00  0.00    +0.040 A 
ATOM     30  C   LIG    1       -1.221  19.102  -0.894  0.00  0.00    +0.010 A 
ATOM     31  C   LIG    1       -0.357  20.176  -1.014  0.00  0.00    +0.040 A 
ATOM     32  C   LIG    1        1.010  19.970  -1.071  0.00  0.00    +0.020 A 
ATOM     33  C   LIG    1        1.521  18.690  -1.007  0.00  0.00    +0.070 A 
ENDBRANCH  26  28
ENDBRANCH  20  23
ENDBRANCH  18  19
ENDBRANCH   1  18
TORSDOF 8
