REMARK  Name = ZINCvU0000000Dax.0
REMARK                            x       y       z     vdW  Elec       q    Type
REMARK                         _______ _______ _______ _____ _____    ______ ____
ROOT
ATOM      1  N   LIG    1       -0.016   1.344   0.009  0.00  0.00    -0.640 N 
ATOM      2  H   LIG    1        0.817   1.840   0.004  0.00  0.00    +0.420 HD
ATOM      3  C   LIG    1        0.002  -0.004   0.002  0.00  0.00    +0.550 C 
ATOM      4  O   LIG    1       -1.043  -0.626   0.009  0.00  0.00    -0.440 OA
ENDROOT
BRANCH   3   5
ATOM      5  C   LIG    1        1.289  -0.724  -0.014  0.00  0.00    -0.170 A 
ATOM      6  C   LIG    1        2.492  -0.013  -0.028  0.00  0.00    +0.080 A 
ATOM      7  C   LIG    1        3.691  -0.692  -0.037  0.00  0.00    -0.020 A 
ATOM      8  C   LIG    1        3.710  -2.077  -0.045  0.00  0.00    +0.100 A 
ATOM      9  C   LIG    1        2.529  -2.792  -0.038  0.00  0.00    -0.080 A 
ATOM     10  C   LIG    1        1.313  -2.126  -0.022  0.00  0.00    +0.190 A 
BRANCH  10  11
ATOM     11  O   LIG    1        0.152  -2.827  -0.015  0.00  0.00    -0.270 OA
BRANCH  11  12
ATOM     12  C   LIG    1        0.254  -4.252  -0.023  0.00  0.00    +0.350 C 
BRANCH  12  13
ATOM     13  C   LIG    1       -1.127  -4.856  -0.013  0.00  0.00    +0.170 A 
ATOM     14  N   LIG    1       -1.841  -5.158  -1.056  0.00  0.00    -0.360 NA
ATOM     15  O   LIG    1       -2.906  -5.627  -0.713  0.00  0.00    +0.090 OA
ATOM     16  C   LIG    1       -2.974  -5.669   0.621  0.00  0.00    +0.190 A 
ATOM     17  C   LIG    1       -4.127  -6.181   1.446  0.00  0.00    +0.260 C 
ATOM     18  N   LIG    1       -1.843  -5.185   1.076  0.00  0.00    -0.470 NA
ENDBRANCH  12  13
ENDBRANCH  11  12
ENDBRANCH  10  11
ENDBRANCH   3   5
BRANCH   1  22
ATOM     19  C   LIG    1       -3.153   3.558   0.036  0.00  0.00    -0.230 A 
ATOM     20  C   LIG    1       -3.446   2.256   0.031  0.00  0.00    +0.260 A 
ATOM     21  N   LIG    1       -2.395   1.457   0.016  0.00  0.00    -0.470 NA
ATOM     22  C   LIG    1       -1.228   2.022   0.019  0.00  0.00    +0.270 A 
ATOM     23  S   LIG    1       -1.399   3.723   0.029  0.00  0.00    +0.120 S 
BRANCH  19  24
ATOM     24  C   LIG    1       -4.148   4.689   0.048  0.00  0.00    +0.190 C 
BRANCH  24  29
ATOM     25  C   LIG    1       -5.393   6.109   5.510  0.00  0.00    +0.100 C 
ATOM     26  C   LIG    1       -5.068   5.738   4.086  0.00  0.00    -0.080 A 
ATOM     27  C   LIG    1       -4.021   6.358   3.432  0.00  0.00    +0.020 A 
ATOM     28  C   LIG    1       -3.723   6.018   2.125  0.00  0.00    +0.030 A 
ATOM     29  C   LIG    1       -4.473   5.058   1.472  0.00  0.00    -0.080 A 
ATOM     30  C   LIG    1       -5.524   4.441   2.124  0.00  0.00    +0.030 A 
ATOM     31  C   LIG    1       -5.819   4.777   3.433  0.00  0.00    -0.040 A 
ATOM     32 CL   LIG    1       -7.135   3.997   4.254  0.00  0.00    -0.070 Cl
ENDBRANCH  24  29
ENDBRANCH  19  24
ENDBRANCH   1  22
TORSDOF 7
