REMARK  Name = ZINCqH0000051a38.0
REMARK                            x       y       z     vdW  Elec       q    Type
REMARK                         _______ _______ _______ _____ _____    ______ ____
ROOT
ATOM      1  O   LIG    1        0.002  -0.004   0.002  0.00  0.00    -0.480 OA
ATOM      2  C   LIG    1       -0.014   1.209   0.009  0.00  0.00    +0.520 C 
ATOM      3  N   LIG    1        1.143   1.898   0.001  0.00  0.00    -0.620 N 
ATOM      4  H   LIG    1        1.130   2.868   0.007  0.00  0.00    +0.430 HD
ENDROOT
BRANCH   3   5
ATOM      5  C   LIG    1        2.356   1.220  -0.014  0.00  0.00    +0.270 A 
ATOM      6  N   LIG    1        3.527   1.778  -0.027  0.00  0.00    -0.500 NA
ATOM      7  C   LIG    1        4.578   0.970  -0.036  0.00  0.00    +0.130 A 
ATOM      8  C   LIG    1        4.295  -0.345  -0.041  0.00  0.00    -0.110 A 
ATOM      9  S   LIG    1        2.543  -0.531  -0.026  0.00  0.00    +0.220 S 
BRANCH   7  10
ATOM     10  C   LIG    1        5.970   1.482  -0.047  0.00  0.00    -0.030 A 
ATOM     11  C   LIG    1        7.042   0.591  -0.056  0.00  0.00    +0.070 A 
ATOM     12  C   LIG    1        8.336   1.071  -0.070  0.00  0.00    -0.010 A 
ATOM     13  C   LIG    1        8.570   2.437  -0.065  0.00  0.00    +0.100 A 
ATOM     14  C   LIG    1        7.508   3.326  -0.050  0.00  0.00    -0.020 A 
ATOM     15  F   LIG    1        9.838   2.902  -0.074  0.00  0.00    -0.140 F 
ATOM     16  C   LIG    1        6.211   2.855  -0.041  0.00  0.00    +0.080 A 
ENDBRANCH   7  10
ENDBRANCH   3   5
BRANCH   2  17
ATOM     17  C   LIG    1       -1.330   1.944   0.019  0.00  0.00    +0.280 C 
BRANCH  17  18
ATOM     18  O   LIG    1       -2.403   1.001   0.019  0.00  0.00    -0.330 OA
BRANCH  18  19
ATOM     19  C   LIG    1       -3.657   1.500   0.028  0.00  0.00    +0.510 C 
ATOM     20  O   LIG    1       -3.833   2.704   0.035  0.00  0.00    -0.510 OA
BRANCH  19  21
ATOM     21  C   LIG    1       -4.766   0.624   0.028  0.00  0.00    -0.060 C 
ATOM     22  C   LIG    1       -6.027   1.126   0.037  0.00  0.00    +0.210 C 
BRANCH  22  23
ATOM     23  C   LIG    1       -7.138   0.249   0.037  0.00  0.00    -0.030 A 
ATOM     24  C   LIG    1       -8.467   0.619   0.051  0.00  0.00    +0.020 A 
ATOM     25  C   LIG    1       -9.213  -0.569   0.043  0.00  0.00    -0.060 A 
ATOM     26  C   LIG    1       -8.332  -1.594   0.034  0.00  0.00    +0.210 A 
ATOM     27  O   LIG    1       -7.086  -1.100   0.030  0.00  0.00    -0.160 OA
ENDBRANCH  22  23
ENDBRANCH  19  21
ENDBRANCH  18  19
ENDBRANCH  17  18
ENDBRANCH   2  17
TORSDOF 7
