REMARK  Name = ZINCtV00000L6jEp.0
REMARK                            x       y       z     vdW  Elec       q    Type
REMARK                         _______ _______ _______ _____ _____    ______ ____
ROOT
ATOM      1  C   LIG    1        3.283  -2.171   0.307  0.00  0.00    +0.510 C 
ATOM      2  N   LIG    1        2.249  -1.331   0.512  0.00  0.00    -0.620 N 
ATOM      3  H   LIG    1        1.340  -1.670   0.509  0.00  0.00    +0.430 HD
ATOM      4  O   LIG    1        4.419  -1.747   0.310  0.00  0.00    -0.470 OA
ENDROOT
BRANCH   2   5
ATOM      5  C   LIG    1        2.485   0.021   0.727  0.00  0.00    +0.280 A 
ATOM      6  N   LIG    1        1.571   0.918   0.935  0.00  0.00    -0.500 NA
ATOM      7  C   LIG    1        1.982   2.164   1.121  0.00  0.00    +0.120 A 
ATOM      8  C   LIG    1        3.314   2.346   1.071  0.00  0.00    -0.100 A 
ATOM      9  S   LIG    1        4.071   0.785   0.760  0.00  0.00    +0.220 S 
BRANCH   7  10
ATOM     10  C   LIG    1        1.038   3.283   1.362  0.00  0.00    -0.000 A 
ATOM     11  C   LIG    1        1.521   4.575   1.557  0.00  0.00    +0.050 A 
ATOM     12  C   LIG    1        0.639   5.614   1.775  0.00  0.00    +0.050 A 
ATOM     13  C   LIG    1       -0.723   5.372   1.812  0.00  0.00    -0.030 A 
ATOM     14  C   LIG    1       -1.209   4.088   1.624  0.00  0.00    -0.030 A 
ATOM     15 CL   LIG    1       -2.919   3.792   1.671  0.00  0.00    -0.040 Cl
ATOM     16 CL   LIG    1       -1.827   6.682   2.094  0.00  0.00    -0.040 Cl
ATOM     17  C   LIG    1       -0.334   3.043   1.399  0.00  0.00    +0.080 A 
ENDBRANCH   7  10
ENDBRANCH   2   5
BRANCH   1  19
ATOM     18  C   LIG    1        2.778  -4.332   1.414  0.00  0.00    +0.120 C 
ATOM     19  C   LIG    1        3.027  -3.638   0.073  0.00  0.00    +0.020 C 
BRANCH  19  20
ATOM     20  S   LIG    1        4.470  -4.382  -0.735  0.00  0.00    -0.020 S 
BRANCH  20  21
ATOM     21  C   LIG    1        4.444  -3.657  -2.340  0.00  0.00    -0.090 A 
ATOM     22  C   LIG    1        3.380  -2.849  -2.720  0.00  0.00    -0.010 A 
ATOM     23  C   LIG    1        3.359  -2.280  -3.980  0.00  0.00    +0.050 A 
ATOM     24  C   LIG    1        4.399  -2.514  -4.867  0.00  0.00    +0.050 A 
ATOM     25  O   LIG    1        4.359  -1.947  -6.105  0.00  0.00    -0.310 OA
ATOM     26  C   LIG    1        5.592  -1.899  -6.831  0.00  0.00    +0.230 C 
ATOM     27  C   LIG    1        6.264  -3.275  -6.729  0.00  0.00    +0.230 C 
ATOM     28  O   LIG    1        6.498  -3.557  -5.345  0.00  0.00    -0.300 OA
ATOM     29  C   LIG    1        5.467  -3.321  -4.489  0.00  0.00    +0.070 A 
ATOM     30  C   LIG    1        5.489  -3.888  -3.224  0.00  0.00    +0.050 A 
ENDBRANCH  20  21
ENDBRANCH  19  20
ENDBRANCH   1  19
TORSDOF 5
