REMARK  Name = ZINCpk00000eadre.0
REMARK                            x       y       z     vdW  Elec       q    Type
REMARK                         _______ _______ _______ _____ _____    ______ ____
ROOT
ATOM      1  C   LIG    1        2.840   2.048  -2.002  0.00  0.00    +0.530 C 
ATOM      2  N   LIG    1        2.141   1.312  -1.116  0.00  0.00    -0.610 N 
ATOM      3  C   LIG    1        1.423   1.950  -0.001  0.00  0.00    +0.280 C 
ATOM      4  C   LIG    1       -0.017   1.425   0.010  0.00  0.00    +0.190 C 
ATOM      5  O   LIG    1        0.002  -0.004   0.002  0.00  0.00    -0.370 OA
ATOM      6  C   LIG    1        0.600  -0.575  -1.165  0.00  0.00    +0.140 C 
ATOM      7  C   LIG    1        0.508  -2.100  -1.091  0.00  0.00    +0.070 C 
ATOM      8  C   LIG    1        2.071  -0.153  -1.236  0.00  0.00    +0.260 C 
ATOM      9  O   LIG    1        2.885   3.255  -1.887  0.00  0.00    -0.530 OA
ENDROOT
BRANCH   1  12
ATOM     10  N   LIG    1        5.635   1.659  -4.316  0.00  0.00    -0.610 N 
ATOM     11  C   LIG    1        4.420   2.387  -3.930  0.00  0.00    +0.310 C 
ATOM     12  C   LIG    1        3.567   1.372  -3.137  0.00  0.00    +0.000 C 
ATOM     13  C   LIG    1        4.646   0.402  -2.603  0.00  0.00    +0.070 C 
ATOM     14  C   LIG    1        5.790   0.543  -3.583  0.00  0.00    +0.520 C 
ATOM     15  O   LIG    1        6.712  -0.236  -3.691  0.00  0.00    -0.530 OA
BRANCH  10  16
ATOM     16  C   LIG    1        6.560   2.094  -5.365  0.00  0.00    +0.320 C 
BRANCH  16  17
ATOM     17  C   LIG    1        6.127   1.499  -6.706  0.00  0.00    +0.150 C 
BRANCH  17  19
ATOM     18  C   LIG    1        4.357   1.543  -8.322  0.00  0.00    +0.200 C 
ATOM     19  O   LIG    1        4.856   2.036  -7.077  0.00  0.00    -0.390 OA
ENDBRANCH  17  19
ENDBRANCH  16  17
ENDBRANCH  10  16
ENDBRANCH   1  12
BRANCH   4  20
ATOM     20  C   LIG    1       -0.721   1.912   1.250  0.00  0.00    -0.090 A 
ATOM     21  C   LIG    1       -0.516   1.272   2.458  0.00  0.00    +0.040 A 
ATOM     22  C   LIG    1       -1.158   1.721   3.597  0.00  0.00    +0.000 A 
ATOM     23  C   LIG    1       -2.012   2.805   3.526  0.00  0.00    +0.010 A 
ATOM     24  C   LIG    1       -2.221   3.443   2.317  0.00  0.00    +0.010 A 
ATOM     25  C   LIG    1       -1.575   2.997   1.180  0.00  0.00    +0.020 A 
ENDBRANCH   4  20
TORSDOF 5
