REMARK  Name = ZINCvU0000000HI4.0
REMARK                            x       y       z     vdW  Elec       q    Type
REMARK                         _______ _______ _______ _____ _____    ______ ____
ROOT
ATOM      1  C   LIG    1       -2.513   0.977   0.019  0.00  0.00    +0.370 C 
ATOM      2  C   LIG    1       -3.074   0.914   1.401  0.00  0.00    -0.230 A 
ATOM      3  C   LIG    1       -4.295   1.527   1.384  0.00  0.00    +0.090 A 
ATOM      4  C   LIG    1       -4.559   1.992   0.012  0.00  0.00    +0.570 C 
ATOM      5  O   LIG    1       -5.564   2.576  -0.344  0.00  0.00    -0.450 OA
ATOM      6  O   LIG    1       -5.065   1.646   2.484  0.00  0.00    -0.180 OA
ATOM      7  C   LIG    1       -4.752   0.945   3.598  0.00  0.00    +0.160 A 
ATOM      8  C   LIG    1       -5.678   0.879   4.638  0.00  0.00    +0.030 A 
ATOM      9  C   LIG    1       -5.383   0.179   5.786  0.00  0.00    +0.130 A 
ATOM     10  C   LIG    1       -4.164  -0.471   5.929  0.00  0.00    -0.120 A 
ATOM     11  C   LIG    1       -3.233  -0.423   4.914  0.00  0.00    +0.160 A 
ATOM     12 BR   LIG    1       -3.782  -1.423   7.517  0.00  0.00    -0.020 Br
ATOM     13  C   LIG    1       -3.523   0.281   3.746  0.00  0.00    -0.210 A 
ATOM     14  C   LIG    1       -2.537   0.334   2.636  0.00  0.00    +0.460 A 
ATOM     15  O   LIG    1       -1.391  -0.066   2.742  0.00  0.00    -0.410 OA
ATOM     16  N   LIG    1       -3.523   1.676  -0.792  0.00  0.00    -0.500 N 
ENDROOT
BRANCH   1  20
ATOM     17  C   LIG    1        1.155   3.169   0.008  0.00  0.00    +0.140 A 
ATOM     18  C   LIG    1        1.175   1.782   0.000  0.00  0.00    -0.010 A 
ATOM     19  C   LIG    1       -0.013   1.076   0.008  0.00  0.00    +0.110 A 
ATOM     20  C   LIG    1       -1.220   1.750   0.017  0.00  0.00    -0.130 A 
ATOM     21  C   LIG    1       -1.242   3.133   0.031  0.00  0.00    +0.050 A 
ATOM     22  C   LIG    1       -0.057   3.844   0.023  0.00  0.00    -0.080 A 
BRANCH  17  23
ATOM     23  O   LIG    1        2.322   3.866   0.000  0.00  0.00    -0.310 OA
BRANCH  23  24
ATOM     24  C   LIG    1        2.225   5.292   0.009  0.00  0.00    +0.230 C 
BRANCH  24  26
ATOM     25  C   LIG    1        3.885   6.889  -0.801  0.00  0.00    +0.040 C 
ATOM     26  C   LIG    1        3.609   5.889  -0.002  0.00  0.00    -0.040 C 
ENDBRANCH  24  26
ENDBRANCH  23  24
ENDBRANCH  17  23
ENDBRANCH   1  20
BRANCH  16  27
ATOM     27  C   LIG    1       -3.427   1.961  -2.147  0.00  0.00    +0.270 A 
ATOM     28  N   LIG    1       -2.418   1.652  -2.901  0.00  0.00    -0.490 NA
ATOM     29  C   LIG    1       -2.495   1.996  -4.173  0.00  0.00    +0.250 A 
ATOM     30  C   LIG    1       -3.619   2.634  -4.508  0.00  0.00    -0.100 A 
ATOM     31  S   LIG    1       -4.618   2.775  -3.064  0.00  0.00    +0.210 S 
ENDBRANCH  16  27
TORSDOF 5
