REMARK  Name = ZINCpe00000gMmF3.0
REMARK                            x       y       z     vdW  Elec       q    Type
REMARK                         _______ _______ _______ _____ _____    ______ ____
ROOT
ATOM      1  C   LIG    1       -0.042   3.705   0.022  0.00  0.00    -0.010 A 
ATOM      2  C   LIG    1       -1.234   3.009   0.036  0.00  0.00    +0.020 A 
ATOM      3  C   LIG    1       -1.193   1.600   0.017  0.00  0.00    +0.520 A 
ATOM      4  N   LIG    1       -0.011   0.966   0.007  0.00  0.00    -0.600 N 
ATOM      5  H   LIG    1        0.002  -0.004   0.002  0.00  0.00    +0.420 HD
ATOM      6  C   LIG    1        1.175   1.644  -0.000  0.00  0.00    +0.170 A 
ATOM      7  C   LIG    1        2.435   0.817   0.013  0.00  0.00    +0.100 C 
ATOM      8  C   LIG    1        3.628   1.628  -0.488  0.00  0.00    +0.300 C 
ATOM      9  N   LIG    1        3.608   2.928   0.203  0.00  0.00    -0.620 N 
ATOM     10  C   LIG    1        4.606   3.301   1.029  0.00  0.00    +0.530 C 
ATOM     11  O   LIG    1        4.564   4.378   1.585  0.00  0.00    -0.520 OA
ATOM     12  C   LIG    1        2.456   3.801  -0.046  0.00  0.00    +0.380 C 
ATOM     13  O   LIG    1       -2.231   0.959   0.013  0.00  0.00    -0.530 OA
ATOM     14  C   LIG    1        1.184   2.992  -0.006  0.00  0.00    -0.180 A 
ENDROOT
BRANCH   1  15
ATOM     15  C   LIG    1       -0.042   5.189   0.038  0.00  0.00    +0.500 C 
ATOM     16  O   LIG    1       -1.094   5.795   0.062  0.00  0.00    -0.480 OA
BRANCH  15  18
ATOM     17  C   LIG    1        1.047   7.312   0.041  0.00  0.00    +0.280 C 
ATOM     18  O   LIG    1        1.123   5.862   0.024  0.00  0.00    -0.340 OA
ENDBRANCH  15  18
ENDBRANCH   1  15
BRANCH  10  19
ATOM     19  C   LIG    1        5.776   2.379   1.261  0.00  0.00    +0.140 C 
BRANCH  19  20
ATOM     20  C   LIG    1        6.744   3.027   2.217  0.00  0.00    +0.120 A 
ATOM     21  N   LIG    1        7.718   3.780   1.747  0.00  0.00    -0.450 NA
ATOM     22  C   LIG    1        8.586   4.371   2.546  0.00  0.00    +0.270 A 
ATOM     23  C   LIG    1        8.510   4.210   3.916  0.00  0.00    +0.010 A 
ATOM     24  C   LIG    1        7.502   3.421   4.450  0.00  0.00    +0.040 A 
ATOM     25  C   LIG    1        6.604   2.820   3.579  0.00  0.00    +0.060 A 
ATOM     26  F   LIG    1        5.607   2.042   4.054  0.00  0.00    -0.130 F 
ENDBRANCH  19  20
ENDBRANCH  10  19
TORSDOF 4
