REMARK  Name = ZINCrH00000No4RK.0
REMARK                            x       y       z     vdW  Elec       q    Type
REMARK                         _______ _______ _______ _____ _____    ______ ____
ROOT
ATOM      1  O   LIG    1       -4.847   5.329   0.079  0.00  0.00    -0.540 OA
ATOM      2  C   LIG    1       -3.798   5.946   0.071  0.00  0.00    +0.550 C 
ATOM      3  N   LIG    1       -3.808   7.293   0.079  0.00  0.00    -0.720 N 
ATOM      4  H   LIG    1       -2.972   7.785   0.073  0.00  0.00    +0.400 HD
ENDROOT
BRANCH   2   5
ATOM      5  C   LIG    1       -2.525   5.224   0.055  0.00  0.00    -0.070 C 
ATOM      6  C   LIG    1       -2.514   3.875   0.048  0.00  0.00    +0.130 C 
BRANCH   6   7
ATOM      7  C   LIG    1       -1.235   3.150   0.031  0.00  0.00    -0.100 A 
ATOM      8  C   LIG    1       -0.027   3.855   0.023  0.00  0.00    +0.100 A 
ATOM      9  C   LIG    1        1.169   3.167   0.007  0.00  0.00    -0.110 A 
ATOM     10  C   LIG    1        1.177   1.782   0.000  0.00  0.00    +0.100 A 
ATOM     11  C   LIG    1       -0.013   1.076   0.008  0.00  0.00    +0.000 A 
ATOM     12 BR   LIG    1        2.803   4.119  -0.004  0.00  0.00    -0.030 Br
ATOM     13  C   LIG    1       -1.220   1.749   0.017  0.00  0.00    +0.140 A 
ATOM     14  F   LIG    1       -2.381   1.058   0.019  0.00  0.00    -0.120 F 
ENDBRANCH   6   7
ENDBRANCH   2   5
BRANCH   3  15
ATOM     15  C   LIG    1       -5.083   8.016   0.095  0.00  0.00    +0.320 C 
BRANCH  15  16
ATOM     16  C   LIG    1       -4.819   9.500   0.101  0.00  0.00    -0.110 A 
ATOM     17  C   LIG    1       -4.692  10.175   1.300  0.00  0.00    +0.030 A 
ATOM     18  C   LIG    1       -4.444  11.535   1.305  0.00  0.00    +0.030 A 
ATOM     19  C   LIG    1       -4.336  12.222   0.110  0.00  0.00    -0.070 A 
ATOM     20  C   LIG    1       -4.468  11.548  -1.089  0.00  0.00    +0.000 A 
ATOM     21  C   LIG    1       -4.710  10.187  -1.094  0.00  0.00    +0.020 A 
BRANCH  19  22
ATOM     22  C   LIG    1       -4.072  13.706   0.116  0.00  0.00    +0.230 C 
BRANCH  22  23
ATOM     23  N   LIG    1       -5.351  14.430   0.132  0.00  0.00    -0.530 NA
ATOM     24  C   LIG    1       -6.092  14.217  -1.119  0.00  0.00    +0.140 C 
ATOM     25  C   LIG    1       -7.440  14.939  -1.036  0.00  0.00    +0.220 C 
ATOM     26  O   LIG    1       -7.217  16.326  -0.768  0.00  0.00    -0.390 OA
ATOM     27  C   LIG    1       -6.498  16.569   0.444  0.00  0.00    +0.220 C 
ATOM     28  C   LIG    1       -5.140  15.864   0.376  0.00  0.00    +0.150 C 
ENDBRANCH  22  23
ENDBRANCH  19  22
ENDBRANCH  15  16
ENDBRANCH   3  15
TORSDOF 6
