REMARK  Name = ZINCrg000000npBC.0
REMARK                            x       y       z     vdW  Elec       q    Type
REMARK                         _______ _______ _______ _____ _____    ______ ____
ROOT
ATOM      1  N   LIG    1       -5.358   1.071   2.973  0.00  0.00    -0.710 N 
ATOM      2  H   LIG    1       -6.248   1.206   3.334  0.00  0.00    +0.420 HD
ATOM      3  C   LIG    1       -4.565   2.131   2.721  0.00  0.00    +0.490 C 
ATOM      4  O   LIG    1       -3.452   1.962   2.270  0.00  0.00    -0.530 OA
ENDROOT
BRANCH   1   5
ATOM      5  C   LIG    1       -4.875  -0.285   2.703  0.00  0.00    +0.270 C 
BRANCH   5   6
ATOM      6  C   LIG    1       -5.942  -1.299   3.122  0.00  0.00    +0.130 C 
BRANCH   6   7
ATOM      7  N   LIG    1       -7.227  -0.939   2.509  0.00  0.00    -0.530 NA
ATOM      8  C   LIG    1       -8.273  -1.907   2.870  0.00  0.00    +0.150 C 
ATOM      9  C   LIG    1       -9.605  -1.461   2.260  0.00  0.00    +0.220 C 
ATOM     10  O   LIG    1       -9.456  -1.329   0.844  0.00  0.00    -0.380 OA
ATOM     11  C   LIG    1       -8.445  -0.393   0.458  0.00  0.00    +0.230 C 
ATOM     12  C   LIG    1       -7.102  -0.828   1.048  0.00  0.00    +0.150 C 
ENDBRANCH   6   7
BRANCH   6  14
ATOM     13  C   LIG    1       -4.738  -1.642   5.284  0.00  0.00    +0.030 C 
ATOM     14  C   LIG    1       -6.083  -1.291   4.645  0.00  0.00    -0.010 C 
ATOM     15  C   LIG    1       -6.521   0.100   5.110  0.00  0.00    +0.030 C 
ENDBRANCH   6  14
ENDBRANCH   5   6
ENDBRANCH   1   5
BRANCH   3  16
ATOM     16  C   LIG    1       -5.062   3.527   2.998  0.00  0.00    +0.340 C 
BRANCH  16  17
ATOM     17  N   LIG    1       -4.021   4.495   2.642  0.00  0.00    -0.530 N 
ATOM     18  C   LIG    1       -3.977   5.003   1.383  0.00  0.00    +0.590 A 
ATOM     19  N   LIG    1       -3.091   5.868   0.992  0.00  0.00    -0.520 NA
ATOM     20  C   LIG    1       -2.128   6.327   1.831  0.00  0.00    +0.140 A 
ATOM     21  C   LIG    1       -1.175   7.258   1.411  0.00  0.00    +0.070 A 
ATOM     22  C   LIG    1       -0.215   7.698   2.294  0.00  0.00    +0.040 A 
ATOM     23  C   LIG    1       -0.182   7.227   3.602  0.00  0.00    +0.080 A 
ATOM     24  C   LIG    1       -1.113   6.307   4.039  0.00  0.00    +0.070 A 
ATOM     25  F   LIG    1        0.770   7.672   4.451  0.00  0.00    -0.130 F 
ATOM     26  C   LIG    1       -2.092   5.850   3.160  0.00  0.00    -0.170 A 
ATOM     27  C   LIG    1       -3.110   4.871   3.569  0.00  0.00    +0.560 A 
ATOM     28  O   LIG    1       -3.135   4.421   4.700  0.00  0.00    -0.500 OA
ENDBRANCH  16  17
ENDBRANCH   3  16
TORSDOF 6
