REMARK  Name = ZINCrH000004lZmk.0
REMARK                            x       y       z     vdW  Elec       q    Type
REMARK                         _______ _______ _______ _____ _____    ______ ____
ROOT
ATOM      1  C   LIG    1      -10.416  -0.144   0.523  0.00  0.00    +0.130 A 
ATOM      2  C   LIG    1       -9.082   0.196   0.414  0.00  0.00    +0.030 A 
ATOM      3  C   LIG    1       -8.116  -0.807   0.288  0.00  0.00    -0.090 A 
ATOM      4  C   LIG    1       -8.504  -2.149   0.284  0.00  0.00    +0.050 A 
ATOM      5  C   LIG    1       -9.837  -2.482   0.400  0.00  0.00    -0.020 A 
ATOM      6 CL   LIG    1      -10.317  -4.150   0.395  0.00  0.00    -0.030 Cl
ATOM      7  C   LIG    1      -10.797  -1.485   0.519  0.00  0.00    +0.100 A 
ENDROOT
BRANCH   3   8
ATOM      8  C   LIG    1       -6.690  -0.449   0.165  0.00  0.00    +0.560 C 
ATOM      9  N   LIG    1       -5.759  -1.417   0.049  0.00  0.00    -0.670 N 
ATOM     10  H   LIG    1       -6.032  -2.345  -0.030  0.00  0.00    +0.410 HD
ATOM     11  O   LIG    1       -6.354   0.720   0.168  0.00  0.00    -0.500 OA
BRANCH   9  12
ATOM     12  C   LIG    1       -4.399  -1.084   0.044  0.00  0.00    +0.150 A 
ATOM     13  C   LIG    1       -3.505  -1.829  -0.714  0.00  0.00    +0.010 A 
ATOM     14  C   LIG    1       -2.164  -1.501  -0.719  0.00  0.00    +0.070 A 
ATOM     15  C   LIG    1       -1.709  -0.425   0.034  0.00  0.00    -0.110 A 
ATOM     16  C   LIG    1       -2.603   0.316   0.797  0.00  0.00    +0.030 A 
ATOM     17  C   LIG    1       -3.944  -0.009   0.797  0.00  0.00    +0.040 A 
BRANCH  15  18
ATOM     18  S   LIG    1        0.003  -0.006   0.028  0.00  0.00    -0.090 S 
BRANCH  18  19
ATOM     19  C   LIG    1        0.076   1.428   1.136  0.00  0.00    +0.430 C 
ATOM     20  F   LIG    1       -0.383   1.060   2.405  0.00  0.00    -0.180 F 
ATOM     21  F   LIG    1       -0.730   2.452   0.628  0.00  0.00    -0.180 F 
ENDBRANCH  18  19
ENDBRANCH  15  18
ENDBRANCH   9  12
ENDBRANCH   3   8
BRANCH   1  23
ATOM     22  C   LIG    1      -10.897   2.182   0.637  0.00  0.00    +0.250 C 
ATOM     23  O   LIG    1      -11.358   0.830   0.640  0.00  0.00    -0.300 OA
ENDBRANCH   1  23
BRANCH   7  24
ATOM     24  O   LIG    1      -12.109  -1.817   0.632  0.00  0.00    -0.290 OA
BRANCH  24  25
ATOM     25  C   LIG    1      -12.617  -2.013   1.954  0.00  0.00    +0.220 C 
BRANCH  25  26
ATOM     26  C   LIG    1      -14.078  -2.373   1.882  0.00  0.00    +0.520 C 
ATOM     27  O   LIG    1      -14.631  -2.454   0.805  0.00  0.00    -0.510 OA
ATOM     28  N   LIG    1      -14.771  -2.605   3.014  0.00  0.00    -0.850 N 
ATOM     29  H   LIG    1      -15.712  -2.837   2.968  0.00  0.00    +0.410 HD
ATOM     30  H   LIG    1      -14.329  -2.541   3.875  0.00  0.00    +0.400 HD
ENDBRANCH  25  26
ENDBRANCH  24  25
ENDBRANCH   7  24
TORSDOF 8
