REMARK  Name = ZINCpk00000ea00x.0
REMARK                            x       y       z     vdW  Elec       q    Type
REMARK                         _______ _______ _______ _____ _____    ______ ____
ROOT
ATOM      1  N   LIG    1       -2.023   0.642   1.328  0.00  0.00    -0.710 N 
ATOM      2  H   LIG    1       -2.069  -0.209   0.865  0.00  0.00    +0.410 HD
ATOM      3  C   LIG    1       -3.088   1.091   2.021  0.00  0.00    +0.500 C 
ATOM      4  O   LIG    1       -3.030   2.155   2.600  0.00  0.00    -0.510 OA
ENDROOT
BRANCH   1   5
ATOM      5  C   LIG    1       -0.795   1.439   1.274  0.00  0.00    +0.290 C 
BRANCH   5   6
ATOM      6  C   LIG    1        0.050   1.142   2.486  0.00  0.00    +0.450 C 
ATOM      7  O   LIG    1       -0.334   0.346   3.310  0.00  0.00    -0.500 OA
BRANCH   6   9
ATOM      8  C   LIG    1        1.990   1.427   3.841  0.00  0.00    +0.270 C 
ATOM      9  O   LIG    1        1.229   1.762   2.650  0.00  0.00    -0.360 OA
ENDBRANCH   6   9
ENDBRANCH   5   6
BRANCH   5  10
ATOM     10  C   LIG    1       -0.013   1.086   0.008  0.00  0.00    +0.060 C 
BRANCH  10  11
ATOM     11  C   LIG    1       -0.827   1.488  -1.223  0.00  0.00    -0.010 C 
ATOM     12  C   LIG    1       -0.111   1.008  -2.487  0.00  0.00    +0.020 C 
ATOM     13  C   LIG    1       -0.925   1.411  -3.719  0.00  0.00    +0.000 C 
ATOM     14  C   LIG    1       -1.068   2.933  -3.760  0.00  0.00    +0.000 C 
ATOM     15  C   LIG    1       -1.785   3.413  -2.496  0.00  0.00    +0.000 C 
ATOM     16  C   LIG    1       -0.970   3.011  -1.265  0.00  0.00    +0.010 C 
ENDBRANCH  10  11
ENDBRANCH   5  10
ENDBRANCH   1   5
BRANCH   3  17
ATOM     17  C   LIG    1       -4.351   0.271   2.076  0.00  0.00    +0.330 C 
BRANCH  17  18
ATOM     18  N   LIG    1       -5.353   0.970   2.885  0.00  0.00    -0.440 N 
ATOM     19  C   LIG    1       -5.411   0.734   4.218  0.00  0.00    +0.320 A 
ATOM     20  C   LIG    1       -6.319   1.367   4.994  0.00  0.00    -0.140 A 
ATOM     21  C   LIG    1       -7.223   2.276   4.400  0.00  0.00    +0.370 A 
ATOM     22  C   LIG    1       -7.143   2.499   3.002  0.00  0.00    -0.030 A 
ATOM     23  O   LIG    1       -8.058   2.858   5.078  0.00  0.00    -0.530 OA
ATOM     24  C   LIG    1       -6.207   1.837   2.281  0.00  0.00    +0.110 A 
ATOM     25  C   LIG    1       -6.111   2.066   0.794  0.00  0.00    +0.140 C 
BRANCH  22  26
ATOM     26  O   LIG    1       -7.996   3.367   2.393  0.00  0.00    -0.470 OA
ATOM     27  H   LIG    1       -8.625   3.787   2.994  0.00  0.00    +0.410 HD
ENDBRANCH  22  26
ENDBRANCH  17  18
ENDBRANCH   3  17
TORSDOF 8
