REMARK  Name = ZINCtV000002yJhN.0
REMARK                            x       y       z     vdW  Elec       q    Type
REMARK                         _______ _______ _______ _____ _____    ______ ____
ROOT
ATOM      1  C   LIG    1        0.079  -4.517   1.654  0.00  0.00    +0.180 A 
ATOM      2  N   LIG    1        0.063  -4.219   0.386  0.00  0.00    -0.250 NA
ATOM      3  N   LIG    1        0.045  -2.943   0.233  0.00  0.00    -0.290 NA
ATOM      4  C   LIG    1        0.047  -2.353   1.406  0.00  0.00    +0.160 A 
ATOM      5  N   LIG    1        0.075  -3.339   2.349  0.00  0.00    -0.450 N 
ENDROOT
BRANCH   1   6
ATOM      6  C   LIG    1        0.103  -5.903   2.245  0.00  0.00    +0.330 C 
BRANCH   6   7
ATOM      7  O   LIG    1        1.458  -6.323   2.420  0.00  0.00    -0.310 OA
BRANCH   7  11
ATOM      8  C   LIG    1        2.064 -10.077   4.019  0.00  0.00    -0.120 A 
ATOM      9  C   LIG    1        3.147  -9.289   3.679  0.00  0.00    +0.050 A 
ATOM     10  C   LIG    1        2.947  -8.031   3.143  0.00  0.00    -0.010 A 
ATOM     11  C   LIG    1        1.657  -7.559   2.947  0.00  0.00    +0.120 A 
ATOM     12  C   LIG    1        0.572  -8.350   3.294  0.00  0.00    -0.070 A 
ATOM     13  C   LIG    1        0.777  -9.609   3.825  0.00  0.00    +0.050 A 
BRANCH   8  15
ATOM     14  C   LIG    1        2.365 -11.346   6.128  0.00  0.00    +0.020 C 
ATOM     15  C   LIG    1        2.285 -11.448   4.604  0.00  0.00    +0.060 C 
ENDBRANCH   8  15
ENDBRANCH   7  11
ENDBRANCH   6   7
ENDBRANCH   1   6
BRANCH   4  16
ATOM     16  S   LIG    1        0.026  -0.617   1.705  0.00  0.00    +0.030 S 
BRANCH  16  17
ATOM     17  C   LIG    1        0.002  -0.004   0.002  0.00  0.00    +0.170 C 
BRANCH  17  18
ATOM     18  C   LIG    1       -0.018   1.503   0.010  0.00  0.00    -0.090 A 
ATOM     19  C   LIG    1       -1.225   2.177   0.020  0.00  0.00    +0.090 A 
ATOM     20  C   LIG    1       -1.245   3.559   0.032  0.00  0.00    +0.000 A 
ATOM     21  C   LIG    1       -0.056   4.269   0.025  0.00  0.00    +0.120 A 
ATOM     22  C   LIG    1        1.153   3.593   0.010  0.00  0.00    +0.000 A 
ATOM     23  F   LIG    1       -0.075   5.620   0.032  0.00  0.00    -0.130 F 
ATOM     24  C   LIG    1        1.171   2.211   0.003  0.00  0.00    +0.010 A 
ATOM     25 CL   LIG    1        2.686   1.363  -0.016  0.00  0.00    -0.040 Cl
ENDBRANCH  17  18
ENDBRANCH  16  17
ENDBRANCH   4  16
BRANCH   5  26
ATOM     26  C   LIG    1        0.094  -3.171   3.804  0.00  0.00    +0.300 C 
BRANCH  26  27
ATOM     27  C   LIG    1       -1.342  -3.134   4.332  0.00  0.00    -0.030 C 
ATOM     28  C   LIG    1       -2.053  -1.892   3.790  0.00  0.00    +0.030 C 
ATOM     29  C   LIG    1       -1.323  -3.083   5.861  0.00  0.00    +0.040 C 
ENDBRANCH  26  27
ENDBRANCH   5  26
TORSDOF 9
