REMARK  Name = ZINCkj000005k9Qm.0
REMARK                            x       y       z     vdW  Elec       q    Type
REMARK                         _______ _______ _______ _____ _____    ______ ____
ROOT
ATOM      1  N   LIG    1        2.401   1.157  -0.015  0.00  0.00    -0.660 NA
ATOM      2  H   LIG    1        3.224   1.671  -0.020  0.00  0.00    +0.430 HD
ENDROOT
BRANCH   1   6
ATOM      3  C   LIG    1       -2.518   1.020   0.019  0.00  0.00    +0.200 C 
ATOM      4  C   LIG    1       -1.209   1.766   0.017  0.00  0.00    +0.250 C 
ATOM      5  C   LIG    1       -0.013   1.076   0.008  0.00  0.00    -0.100 C 
ATOM      6  C   LIG    1        1.178   1.806   0.001  0.00  0.00    +0.520 C 
ATOM      7  N   LIG    1        1.120   3.134   0.008  0.00  0.00    -0.580 NA
ATOM      8  C   LIG    1       -0.049   3.758   0.023  0.00  0.00    +0.670 C 
ATOM      9  N   LIG    1       -1.193   3.091   0.030  0.00  0.00    -0.580 NA
ATOM     10  H   LIG    1       -2.031   3.579   0.041  0.00  0.00    +0.440 HD
BRANCH   8  11
ATOM     11  N   LIG    1       -0.074   5.142   0.031  0.00  0.00    -0.790 NA
ATOM     12  H   LIG    1       -0.923   5.611   0.042  0.00  0.00    +0.430 HD
ATOM     13  H   LIG    1        0.756   5.642   0.026  0.00  0.00    +0.440 HD
ENDBRANCH   8  11
ENDBRANCH   1   6
BRANCH   1  14
ATOM     14  C   LIG    1        2.453  -0.308  -0.024  0.00  0.00    +0.350 C 
BRANCH  14  15
ATOM     15  C   LIG    1        3.890  -0.759  -0.041  0.00  0.00    -0.150 A 
ATOM     16  C   LIG    1        4.536  -0.965  -1.245  0.00  0.00    +0.100 A 
ATOM     17  C   LIG    1        5.856  -1.376  -1.260  0.00  0.00    +0.000 A 
ATOM     18  C   LIG    1        6.527  -1.589  -0.071  0.00  0.00    +0.150 A 
ATOM     19  C   LIG    1        5.880  -1.388   1.134  0.00  0.00    -0.660 A 
ATOM     20  C   LIG    1        4.561  -0.974   1.149  0.00  0.00    +0.150 A 
BRANCH  19  21
ATOM     21  S   LIG    1        6.735  -1.660   2.650  0.00  0.00    +2.500 S 
ATOM     22  O   LIG    1        6.071  -0.819   3.583  0.00  0.00    -0.930 OA
ATOM     23  O   LIG    1        8.103  -1.455   2.322  0.00  0.00    -0.930 OA
ATOM     24  C   LIG    1        6.428  -3.406   3.035  0.00  0.00    -0.250 C 
ENDBRANCH  19  21
ENDBRANCH  14  15
ENDBRANCH   1  14
TORSDOF 5
