REMARK  Name = ZINCrD000000AlET.2
REMARK                            x       y       z     vdW  Elec       q    Type
REMARK                         _______ _______ _______ _____ _____    ______ ____
ROOT
ATOM      1  N   LIG    1        5.769  -0.774  -3.104  0.00  0.00    -0.520 NA
ATOM      2  C   LIG    1        5.626  -2.124  -2.544  0.00  0.00    +0.180 C 
ATOM      3  C   LIG    1        7.004  -2.783  -2.441  0.00  0.00    +0.040 C 
ATOM      4  C   LIG    1        7.637  -2.851  -3.834  0.00  0.00    +0.030 C 
ATOM      5  C   LIG    1        7.729  -1.438  -4.414  0.00  0.00    +0.010 C 
ATOM      6  C   LIG    1        6.331  -0.818  -4.460  0.00  0.00    +0.220 C 
ENDROOT
BRANCH   5   7
ATOM      7  C   LIG    1        8.298  -1.502  -5.808  0.00  0.00    +0.520 C 
ATOM      8  N   LIG    1        9.526  -2.018  -6.012  0.00  0.00    -0.670 N 
ATOM      9  H   LIG    1       10.071  -2.286  -5.255  0.00  0.00    +0.410 HD
ATOM     10  O   LIG    1        7.650  -1.090  -6.747  0.00  0.00    -0.520 OA
BRANCH   8  11
ATOM     11  C   LIG    1       10.015  -2.167  -7.314  0.00  0.00    +0.140 A 
ATOM     12  C   LIG    1       10.828  -3.247  -7.633  0.00  0.00    -0.030 A 
ATOM     13  C   LIG    1       11.305  -3.395  -8.921  0.00  0.00    +0.030 A 
ATOM     14  C   LIG    1       10.982  -2.463  -9.890  0.00  0.00    -0.010 A 
ATOM     15  C   LIG    1       10.177  -1.383  -9.575  0.00  0.00    +0.030 A 
ATOM     16  C   LIG    1        9.693  -1.233  -8.290  0.00  0.00    +0.020 A 
ENDBRANCH   8  11
ENDBRANCH   5   7
BRANCH   1  17
ATOM     17  C   LIG    1        4.485  -0.060  -3.089  0.00  0.00    +0.220 C 
BRANCH  17  19
ATOM     18  O   LIG    1        4.763  -0.196  -0.749  0.00  0.00    -0.520 OA
ATOM     19  C   LIG    1        4.063   0.186  -1.663  0.00  0.00    +0.520 C 
ATOM     20  N   LIG    1        2.908   0.830  -1.403  0.00  0.00    -0.730 N 
ATOM     21  H   LIG    1        2.349   1.136  -2.134  0.00  0.00    +0.400 HD
BRANCH  20  22
ATOM     22  C   LIG    1        2.498   1.069  -0.017  0.00  0.00    +0.320 C 
BRANCH  22  23
ATOM     23  C   LIG    1        1.182   1.802  -0.002  0.00  0.00    -0.100 A 
ATOM     24  C   LIG    1        1.160   3.184  -0.003  0.00  0.00    +0.030 A 
ATOM     25  C   LIG    1       -0.048   3.857   0.012  0.00  0.00    +0.030 A 
ATOM     26  C   LIG    1       -1.234   3.148   0.027  0.00  0.00    +0.040 A 
ATOM     27  C   LIG    1       -1.213   1.764   0.021  0.00  0.00    -0.040 A 
ATOM     28 CL   LIG    1       -2.703   0.873   0.033  0.00  0.00    -0.060 Cl
ATOM     29  C   LIG    1       -0.004   1.092   0.013  0.00  0.00    +0.050 A 
ENDBRANCH  22  23
ENDBRANCH  20  22
ENDBRANCH  17  19
ENDBRANCH   1  17
TORSDOF 6
