REMARK  Name = ZINCvU0000000Gsb.0
REMARK                            x       y       z     vdW  Elec       q    Type
REMARK                         _______ _______ _______ _____ _____    ______ ____
ROOT
ATOM      1  N   LIG    1       -2.774   1.740  -1.587  0.00  0.00    -0.530 NA
ATOM      2  C   LIG    1       -3.526   2.890  -2.107  0.00  0.00    +0.210 C 
ATOM      3  C   LIG    1       -3.906   2.631  -3.567  0.00  0.00    +0.210 C 
ATOM      4  N   LIG    1       -4.706   1.401  -3.651  0.00  0.00    -0.480 N 
ATOM      5  C   LIG    1       -3.954   0.250  -3.131  0.00  0.00    +0.210 C 
ATOM      6  C   LIG    1       -3.574   0.510  -1.671  0.00  0.00    +0.190 C 
ENDROOT
BRANCH   4   7
ATOM      7  C   LIG    1       -5.128   1.171  -4.948  0.00  0.00    +0.410 A 
ATOM      8  C   LIG    1       -6.494   1.319  -5.297  0.00  0.00    -0.150 A 
ATOM      9  C   LIG    1       -7.638   1.712  -4.484  0.00  0.00    -0.010 A 
ATOM     10  C   LIG    1       -8.793   1.757  -5.145  0.00  0.00    -0.020 A 
ATOM     11  S   LIG    1       -8.580   1.327  -6.831  0.00  0.00    +0.180 S 
ATOM     12  C   LIG    1       -6.853   1.077  -6.624  0.00  0.00    +0.090 A 
ATOM     13  N   LIG    1       -5.905   0.711  -7.497  0.00  0.00    -0.490 NA
ATOM     14  C   LIG    1       -4.653   0.582  -7.125  0.00  0.00    +0.530 A 
ATOM     15  N   LIG    1       -4.263   0.805  -5.883  0.00  0.00    -0.550 NA
BRANCH   9  16
ATOM     16  C   LIG    1       -7.526   2.029  -3.040  0.00  0.00    -0.030 A 
ATOM     17  C   LIG    1       -6.993   1.090  -2.157  0.00  0.00    +0.060 A 
ATOM     18  C   LIG    1       -6.886   1.393  -0.815  0.00  0.00    +0.000 A 
ATOM     19  C   LIG    1       -7.317   2.620  -0.344  0.00  0.00    +0.010 A 
ATOM     20  C   LIG    1       -7.851   3.553  -1.214  0.00  0.00    +0.000 A 
ATOM     21  C   LIG    1       -7.958   3.264  -2.559  0.00  0.00    +0.020 A 
ENDBRANCH   9  16
ENDBRANCH   4   7
BRANCH   1  22
ATOM     22  C   LIG    1       -2.325   1.983  -0.210  0.00  0.00    +0.240 C 
BRANCH  22  29
ATOM     23  C   LIG    1       -1.509   4.354  -0.217  0.00  0.00    +0.140 A 
ATOM     24  C   LIG    1       -0.483   5.287  -0.229  0.00  0.00    -0.060 A 
ATOM     25  C   LIG    1        0.833   4.865  -0.234  0.00  0.00    +0.070 A 
ATOM     26  C   LIG    1        1.127   3.514  -0.227  0.00  0.00    -0.070 A 
ATOM     27  C   LIG    1        0.104   2.581  -0.215  0.00  0.00    +0.090 A 
ATOM     28 CL   LIG    1        2.781   2.986  -0.234  0.00  0.00    -0.070 Cl
ATOM     29  C   LIG    1       -1.212   2.999  -0.216  0.00  0.00    -0.100 A 
BRANCH  23  31
ATOM     30  C   LIG    1       -3.037   6.173  -0.102  0.00  0.00    +0.240 C 
ATOM     31  O   LIG    1       -2.804   4.767  -0.212  0.00  0.00    -0.310 OA
ENDBRANCH  23  31
ENDBRANCH  22  29
ENDBRANCH   1  22
TORSDOF 5
