REMARK  Name = ZINCrD000000gTsj.0
REMARK                            x       y       z     vdW  Elec       q    Type
REMARK                         _______ _______ _______ _____ _____    ______ ____
ROOT
ATOM      1  N   LIG    1       -1.273   2.085  -0.007  0.00  0.00    -1.060 N 
ATOM      2  H   LIG    1       -2.008   1.808  -0.577  0.00  0.00    +0.430 HD
ENDROOT
BRANCH   1   3
ATOM      3  C   LIG    1       -0.017   1.483  -0.143  0.00  0.00    +0.090 A 
ATOM      4  C   LIG    1        0.793   1.801  -1.225  0.00  0.00    +0.070 A 
ATOM      5  C   LIG    1        2.030   1.202  -1.362  0.00  0.00    -0.040 A 
ATOM      6  C   LIG    1        2.464   0.283  -0.416  0.00  0.00    +0.220 A 
ATOM      7  C   LIG    1        1.655  -0.035   0.666  0.00  0.00    -0.010 A 
ATOM      8  C   LIG    1        0.418   0.564   0.803  0.00  0.00    +0.070 A 
BRANCH   6   9
ATOM      9  N   LIG    1        3.718  -0.324  -0.555  0.00  0.00    -0.930 N 
ATOM     10  C   LIG    1        4.542  -0.878   0.530  0.00  0.00    +0.260 C 
ATOM     11  C   LIG    1        5.412  -2.034  -0.006  0.00  0.00    +0.090 C 
ATOM     12  C   LIG    1        5.996  -1.485  -1.340  0.00  0.00    -0.290 C 
ATOM     13  S   LIG    1        4.557  -0.546  -1.982  0.00  0.00    +2.560 S 
ATOM     14  O   LIG    1        4.935   0.760  -2.397  0.00  0.00    -0.940 OA
ATOM     15  O   LIG    1        3.719  -1.369  -2.781  0.00  0.00    -0.940 OA
ENDBRANCH   6   9
ENDBRANCH   1   3
BRANCH   1  16
ATOM     16  S   LIG    1       -1.506   3.271   1.126  0.00  0.00    +2.690 S 
ATOM     17  O   LIG    1       -0.991   2.763   2.349  0.00  0.00    -0.950 OA
ATOM     18  O   LIG    1       -2.847   3.715   0.972  0.00  0.00    -0.950 OA
BRANCH  16  22
ATOM     19  C   LIG    1        1.137   6.761  -0.024  0.00  0.00    -0.010 A 
ATOM     20  C   LIG    1       -0.176   6.718  -0.452  0.00  0.00    -0.010 A 
ATOM     21  C   LIG    1       -0.984   5.652  -0.101  0.00  0.00    +0.120 A 
ATOM     22  C   LIG    1       -0.477   4.629   0.678  0.00  0.00    -0.680 A 
ATOM     23  C   LIG    1        0.835   4.675   1.111  0.00  0.00    +0.130 A 
ATOM     24  C   LIG    1        1.644   5.738   0.756  0.00  0.00    +0.000 A 
BRANCH  19  26
ATOM     25  C   LIG    1        1.410   9.221   0.133  0.00  0.00    +0.040 C 
ATOM     26  C   LIG    1        2.017   7.924  -0.406  0.00  0.00    -0.040 C 
ATOM     27  C   LIG    1        2.122   8.004  -1.930  0.00  0.00    +0.040 C 
ATOM     28  C   LIG    1        3.411   7.726   0.193  0.00  0.00    +0.030 C 
ENDBRANCH  19  26
ENDBRANCH  16  22
ENDBRANCH   1  16
TORSDOF 5
