REMARK  Name = ZINCqH0000007V7c.0
REMARK                            x       y       z     vdW  Elec       q    Type
REMARK                         _______ _______ _______ _____ _____    ______ ____
ROOT
ATOM      1  C   LIG    1       -1.317   2.083   0.019  0.00  0.00    +0.580 C 
ATOM      2  N   LIG    1       -1.353   3.430   0.027  0.00  0.00    -0.700 N 
ATOM      3  H   LIG    1       -0.527   3.938   0.026  0.00  0.00    +0.410 HD
ATOM      4  O   LIG    1       -2.353   1.447   0.021  0.00  0.00    -0.530 OA
ENDROOT
BRANCH   1   7
ATOM      5  C   LIG    1        2.303   1.535  -0.012  0.00  0.00    +0.370 A 
ATOM      6  N   LIG    1        1.113   2.092   0.003  0.00  0.00    -0.540 NA
ATOM      7  C   LIG    1       -0.017   1.378   0.010  0.00  0.00    +0.090 A 
ATOM      8  C   LIG    1        0.002  -0.004   0.002  0.00  0.00    +0.040 A 
ATOM      9  C   LIG    1        1.246  -0.662  -0.013  0.00  0.00    -0.010 A 
ATOM     10  C   LIG    1        1.348  -2.060  -0.021  0.00  0.00    +0.030 A 
ATOM     11  C   LIG    1        2.581  -2.643  -0.036  0.00  0.00    +0.040 A 
ATOM     12  C   LIG    1        3.738  -1.869  -0.043  0.00  0.00    +0.010 A 
ATOM     13  C   LIG    1        3.674  -0.507  -0.035  0.00  0.00    +0.070 A 
ATOM     14  C   LIG    1        2.425   0.126  -0.020  0.00  0.00    -0.100 A 
BRANCH   5  16
ATOM     15  C   LIG    1        3.217   3.726  -0.008  0.00  0.00    +0.260 C 
ATOM     16  O   LIG    1        3.414   2.311  -0.018  0.00  0.00    -0.300 OA
ENDBRANCH   5  16
ENDBRANCH   1   7
BRANCH   2  17
ATOM     17  C   LIG    1       -2.641   4.128   0.037  0.00  0.00    +0.350 C 
BRANCH  17  18
ATOM     18  C   LIG    1       -2.406   5.617   0.044  0.00  0.00    +0.140 A 
ATOM     19  N   LIG    1       -2.207   6.226   1.188  0.00  0.00    -0.450 NA
ATOM     20  C   LIG    1       -1.990   7.544   1.244  0.00  0.00    +0.130 A 
ATOM     21  C   LIG    1       -1.772   8.191   2.473  0.00  0.00    +0.050 A 
ATOM     22  C   LIG    1       -1.558   9.535   2.500  0.00  0.00    +0.030 A 
ATOM     23  C   LIG    1       -1.550  10.285   1.326  0.00  0.00    +0.020 A 
ATOM     24  C   LIG    1       -1.758   9.694   0.117  0.00  0.00    +0.030 A 
ATOM     25  C   LIG    1       -1.981   8.309   0.052  0.00  0.00    -0.100 A 
ATOM     26  C   LIG    1       -2.199   7.659  -1.178  0.00  0.00    +0.090 A 
ATOM     27  C   LIG    1       -2.410   6.310  -1.165  0.00  0.00    -0.020 A 
ENDBRANCH  17  18
ENDBRANCH   2  17
TORSDOF 4
