REMARK  Name = ZINCpe00000MCyQ3.0
REMARK                            x       y       z     vdW  Elec       q    Type
REMARK                         _______ _______ _______ _____ _____    ______ ____
ROOT
ATOM      1  C   LIG    1        0.867   5.979  -2.974  0.00  0.00    +0.300 C 
ATOM      2  C   LIG    1        0.790   7.504  -2.755  0.00  0.00    +0.040 C 
ATOM      3  C   LIG    1        1.378   7.678  -1.329  0.00  0.00    +0.040 C 
ATOM      4  C   LIG    1        0.854   6.405  -0.620  0.00  0.00    +0.250 C 
ATOM      5  N   LIG    1        0.914   5.349  -1.646  0.00  0.00    -0.610 N 
ATOM      6  C   LIG    1        1.004   4.026  -1.407  0.00  0.00    +0.520 C 
ATOM      7  O   LIG    1        1.047   3.244  -2.334  0.00  0.00    -0.520 OA
ENDROOT
BRANCH   1  11
ATOM      8  C   LIG    1       -2.188   4.409  -6.624  0.00  0.00    +0.360 C 
ATOM      9  N   LIG    1       -1.681   4.826  -5.315  0.00  0.00    -0.370 N 
ATOM     10  C   LIG    1       -0.416   5.207  -5.038  0.00  0.00    +0.240 A 
ATOM     11  C   LIG    1       -0.355   5.509  -3.720  0.00  0.00    -0.240 A 
ATOM     12  C   LIG    1       -1.629   5.314  -3.175  0.00  0.00    +0.240 A 
ATOM     13  N   LIG    1       -2.424   4.905  -4.130  0.00  0.00    -0.290 NA
ENDBRANCH   1  11
BRANCH   6  14
ATOM     14  C   LIG    1        1.050   3.517   0.010  0.00  0.00    +0.370 C 
BRANCH  14  15
ATOM     15  N   LIG    1        1.147   2.055   0.002  0.00  0.00    -0.440 N 
ATOM     16  N   LIG    1       -0.015   1.279   0.009  0.00  0.00    +0.090 NA
ATOM     17  N   LIG    1        0.002  -0.004   0.002  0.00  0.00    -0.200 NA
ATOM     18  C   LIG    1        1.162  -0.706  -0.013  0.00  0.00    +0.060 A 
ATOM     19  C   LIG    1        1.166  -2.103  -0.021  0.00  0.00    +0.080 A 
ATOM     20  C   LIG    1        2.363  -2.783  -0.037  0.00  0.00    +0.060 A 
ATOM     21  C   LIG    1        3.570  -2.098  -0.045  0.00  0.00    +0.040 A 
ATOM     22  C   LIG    1        3.593  -0.720  -0.037  0.00  0.00    +0.100 A 
ATOM     23  C   LIG    1        2.392  -0.013  -0.021  0.00  0.00    -0.150 A 
ATOM     24  C   LIG    1        2.362   1.458  -0.012  0.00  0.00    +0.540 A 
ATOM     25  O   LIG    1        3.388   2.112  -0.018  0.00  0.00    -0.500 OA
ENDBRANCH  14  15
ENDBRANCH   6  14
TORSDOF 3
