REMARK  Name = ZINCrg00001JduYn.1
REMARK                            x       y       z     vdW  Elec       q    Type
REMARK                         _______ _______ _______ _____ _____    ______ ____
ROOT
ATOM      1  C   LIG    1       -1.529   9.851   5.581  0.00  0.00    -0.170 A 
ATOM      2  C   LIG    1       -2.519  10.494   4.861  0.00  0.00    +0.010 A 
ATOM      3  C   LIG    1       -2.696  10.212   3.522  0.00  0.00    +0.060 A 
ATOM      4  C   LIG    1       -1.873   9.276   2.894  0.00  0.00    -0.030 A 
ATOM      5  C   LIG    1       -0.879   8.627   3.628  0.00  0.00    +0.090 A 
ATOM      6  C   LIG    1       -0.710   8.921   4.965  0.00  0.00    +0.020 A 
ENDROOT
BRANCH   4   7
ATOM      7  C   LIG    1       -2.056   8.969   1.460  0.00  0.00    +0.550 C 
ATOM      8  N   LIG    1       -1.260   8.064   0.857  0.00  0.00    -1.110 NA
ATOM      9  O   LIG    1       -2.926   9.532   0.824  0.00  0.00    -0.620 OA
BRANCH   8  10
ATOM     10  S   LIG    1       -1.466   7.720  -0.750  0.00  0.00    +2.680 S 
ATOM     11  O   LIG    1       -2.732   7.085  -0.865  0.00  0.00    -1.020 OA
ATOM     12  O   LIG    1       -1.121   8.901  -1.460  0.00  0.00    -1.010 OA
BRANCH  10  13
ATOM     13  C   LIG    1       -0.261   6.509  -1.182  0.00  0.00    -0.760 A 
ATOM     14  C   LIG    1       -0.514   5.241  -1.581  0.00  0.00    +0.350 A 
ATOM     15  N   LIG    1        0.670   4.638  -1.814  0.00  0.00    -0.370 N 
ATOM     16  N   LIG    1        1.685   5.569  -1.558  0.00  0.00    -0.310 NA
ATOM     17  C   LIG    1        0.862   3.256  -2.261  0.00  0.00    +0.360 C 
ATOM     18  C   LIG    1        1.126   6.690  -1.179  0.00  0.00    +0.160 A 
ATOM     19  C   LIG    1        1.851   7.957  -0.805  0.00  0.00    +0.160 C 
ENDBRANCH  10  13
ENDBRANCH   8  10
ENDBRANCH   4   7
BRANCH   1  20
ATOM     20  C   LIG    1       -1.343  10.163   7.044  0.00  0.00    +0.310 C 
BRANCH  20  21
ATOM     21  N   LIG    1       -2.175   9.258   7.848  0.00  0.00    -0.380 N 
ATOM     22  C   LIG    1       -3.593   9.523   7.572  0.00  0.00    +0.320 C 
ATOM     23  H   LIG    1       -1.959   8.302   7.610  0.00  0.00    +0.430 HD
BRANCH  21  24
ATOM     24  C   LIG    1       -1.904   9.481   9.274  0.00  0.00    +0.220 C 
BRANCH  24  25
ATOM     25  C   LIG    1       -0.467   9.062   9.592  0.00  0.00    +0.200 C 
BRANCH  25  27
ATOM     26  C   LIG    1        1.288   8.997  11.369  0.00  0.00    +0.040 C 
ATOM     27  C   LIG    1       -0.184   9.298  11.077  0.00  0.00    +0.010 C 
ENDBRANCH  25  27
BRANCH  25  28
ATOM     28  O   LIG    1       -0.298   7.675   9.289  0.00  0.00    -0.550 OA
ATOM     29  H   LIG    1       -0.883   7.089   9.789  0.00  0.00    +0.390 HD
ENDBRANCH  25  28
ENDBRANCH  24  25
ENDBRANCH  21  24
ENDBRANCH  20  21
ENDBRANCH   1  20
TORSDOF 9
