REMARK  Name = ZINCrg00001JduYN.0
REMARK                            x       y       z     vdW  Elec       q    Type
REMARK                         _______ _______ _______ _____ _____    ______ ____
ROOT
ATOM      1  C   LIG    1       -0.092   4.161  -4.971  0.00  0.00    +0.070 C 
ATOM      2  C   LIG    1       -0.184   2.653  -5.245  0.00  0.00    +0.310 C 
ATOM      3  N   LIG    1       -0.455   2.462  -3.812  0.00  0.00    -0.640 N 
ATOM      4  C   LIG    1       -0.272   1.475  -2.913  0.00  0.00    +0.530 C 
ATOM      5  O   LIG    1        0.319   0.465  -3.233  0.00  0.00    -0.510 OA
ATOM      6  C   LIG    1       -1.021   3.820  -3.794  0.00  0.00    +0.310 C 
ENDROOT
BRANCH   1  15
ATOM      7  C   LIG    1        0.958   9.138  -9.417  0.00  0.00    +0.030 C 
ATOM      8  C   LIG    1        0.531   8.226  -8.265  0.00  0.00    -0.020 C 
ATOM      9  C   LIG    1        1.587   7.137  -8.056  0.00  0.00    +0.050 C 
ATOM     10  C   LIG    1        1.285   6.370  -6.763  0.00  0.00    +0.290 C 
ATOM     11  N   LIG    1       -0.118   5.958  -6.779  0.00  0.00    -0.460 N 
ATOM     12  C   LIG    1       -1.071   6.479  -7.592  0.00  0.00    +0.190 A 
ATOM     13  N   LIG    1       -2.186   5.870  -7.325  0.00  0.00    -0.290 NA
ATOM     14  N   LIG    1       -1.987   4.996  -6.398  0.00  0.00    -0.280 NA
ATOM     15  C   LIG    1       -0.732   5.021  -6.029  0.00  0.00    +0.180 A 
ATOM     16  C   LIG    1       -0.815   7.571  -8.601  0.00  0.00    +0.170 C 
ENDBRANCH   1  15
BRANCH   4  17
ATOM     17  C   LIG    1       -0.802   1.625  -1.510  0.00  0.00    +0.180 C 
ATOM     18  C   LIG    1       -0.144   0.585  -0.602  0.00  0.00    +0.050 C 
ATOM     19  C   LIG    1       -0.681   0.738   0.822  0.00  0.00    +0.030 C 
ATOM     20  C   LIG    1       -2.197   0.528   0.821  0.00  0.00    +0.000 C 
ATOM     21  C   LIG    1       -2.855   1.568  -0.087  0.00  0.00    +0.020 C 
ATOM     22  C   LIG    1       -2.317   1.415  -1.512  0.00  0.00    +0.060 C 
BRANCH  17  23
ATOM     23  N   LIG    1       -0.496   2.970  -1.014  0.00  0.00    -1.110 NA
ATOM     24  H   LIG    1       -1.214   3.601  -0.851  0.00  0.00    +0.420 HD
BRANCH  23  25
ATOM     25  S   LIG    1        1.075   3.411  -0.734  0.00  0.00    +2.600 S 
ATOM     26  O   LIG    1        1.540   2.465   0.219  0.00  0.00    -0.940 OA
ATOM     27  O   LIG    1        1.000   4.794  -0.416  0.00  0.00    -0.950 OA
ATOM     28  C   LIG    1        1.905   3.169  -2.329  0.00  0.00    -0.300 C 
ENDBRANCH  23  25
ENDBRANCH  17  23
ENDBRANCH   4  17
TORSDOF 4
