REMARK  Name = ZINCah0000002gGq.1
REMARK                            x       y       z     vdW  Elec       q    Type
REMARK                         _______ _______ _______ _____ _____    ______ ____
ROOT
ATOM      1 BR   LIG    1        3.924   5.384  -0.008  0.00  0.00    +0.030 Br
ATOM      2  C   LIG    1        2.725   3.921  -0.004  0.00  0.00    +0.080 A 
ATOM      3  C   LIG    1        3.220   2.625  -0.015  0.00  0.00    +0.310 A 
ATOM      4  N   LIG    1        2.395   1.594  -0.013  0.00  0.00    -0.420 NA
ATOM      5  C   LIG    1        1.088   1.797   0.001  0.00  0.00    +0.200 A 
ATOM      6  N   LIG    1       -0.011   0.966   0.007  0.00  0.00    -0.580 N 
ATOM      7  H   LIG    1        0.002  -0.004   0.002  0.00  0.00    +0.440 HD
ATOM      8  C   LIG    1       -1.118   1.756   0.016  0.00  0.00    +0.560 A 
ATOM      9  N   LIG    1       -0.772   3.011   0.026  0.00  0.00    -0.470 NA
ATOM     10  C   LIG    1        0.580   3.111   0.013  0.00  0.00    +0.220 A 
ATOM     11  N   LIG    1        1.424   4.141   0.010  0.00  0.00    -0.370 NA
ENDROOT
TORSDOF 0
