REMARK  Name = ZINCah0000002gGq.0
REMARK                            x       y       z     vdW  Elec       q    Type
REMARK                         _______ _______ _______ _____ _____    ______ ____
ROOT
ATOM      1 BR   LIG    1       -1.625   7.098   0.055  0.00  0.00    +0.030 Br
ATOM      2  C   LIG    1       -0.703   5.446   0.038  0.00  0.00    +0.100 A 
ATOM      3  C   LIG    1        0.684   5.431   0.025  0.00  0.00    +0.300 A 
ATOM      4  N   LIG    1        1.341   4.287   0.012  0.00  0.00    -0.380 NA
ATOM      5  C   LIG    1        0.669   3.139   0.013  0.00  0.00    +0.220 A 
ATOM      6  N   LIG    1        1.044   1.836   0.002  0.00  0.00    -0.480 NA
ATOM      7  C   LIG    1       -0.013   1.076   0.008  0.00  0.00    +0.560 A 
ATOM      8  N   LIG    1       -1.138   1.839   0.017  0.00  0.00    -0.580 N 
ATOM      9  H   LIG    1       -2.052   1.515   0.019  0.00  0.00    +0.440 HD
ATOM     10  C   LIG    1       -0.740   3.158   0.026  0.00  0.00    +0.200 A 
ATOM     11  N   LIG    1       -1.385   4.314   0.038  0.00  0.00    -0.410 NA
ENDROOT
TORSDOF 0
