REMARK  Name = ZINCnE000001T8vj.0
REMARK                            x       y       z     vdW  Elec       q    Type
REMARK                         _______ _______ _______ _____ _____    ______ ____
ROOT
ATOM      1  S   LIG    1       -6.741  -0.959   0.947  0.00  0.00    +2.570 S 
ATOM      2  O   LIG    1       -7.524   0.069   1.539  0.00  0.00    -1.010 OA
ATOM      3  O   LIG    1       -6.598  -2.225   1.576  0.00  0.00    -1.010 OA
ENDROOT
BRANCH   1   6
ATOM      4  O   LIG    1       -9.325  -2.009   0.603  0.00  0.00    -0.590 OA
ATOM      5  C   LIG    1       -8.767  -1.800  -0.459  0.00  0.00    +0.580 C 
ATOM      6  N   LIG    1       -7.518  -1.296  -0.476  0.00  0.00    -1.130 NA
BRANCH   5   7
ATOM      7  C   LIG    1       -9.454  -2.098  -1.718  0.00  0.00    -0.150 A 
ATOM      8  C   LIG    1      -10.717  -2.610  -1.831  0.00  0.00    -0.090 A 
ATOM      9  C   LIG    1      -11.115  -2.792  -3.135  0.00  0.00    +0.020 A 
ATOM     10  C   LIG    1      -10.212  -2.441  -4.058  0.00  0.00    -0.120 A 
ATOM     11 BR   LIG    1      -11.807  -3.028  -0.343  0.00  0.00    -0.020 Br
ATOM     12  S   LIG    1       -8.790  -1.847  -3.327  0.00  0.00    +0.270 S 
ENDBRANCH   5   7
ENDBRANCH   1   6
BRANCH   1  13
ATOM     13  C   LIG    1       -5.124  -0.314   0.439  0.00  0.00    -0.320 C 
BRANCH  13  14
ATOM     14  C   LIG    1       -4.302   0.038   1.681  0.00  0.00    -0.030 C 
ATOM     15  C   LIG    1       -3.011  -0.748   1.920  0.00  0.00    +0.030 C 
ATOM     16  C   LIG    1       -2.945   0.711   1.462  0.00  0.00    -0.020 C 
BRANCH  16  17
ATOM     17  C   LIG    1       -2.514   0.980   0.019  0.00  0.00    +0.110 C 
BRANCH  17  18
ATOM     18  C   LIG    1       -1.219   1.751   0.017  0.00  0.00    -0.070 A 
ATOM     19  C   LIG    1       -0.013   1.076   0.008  0.00  0.00    +0.010 A 
ATOM     20  C   LIG    1        1.175   1.783   0.000  0.00  0.00    +0.000 A 
ATOM     21  C   LIG    1        1.156   3.165   0.008  0.00  0.00    -0.010 A 
ATOM     22  C   LIG    1       -0.050   3.840   0.023  0.00  0.00    +0.000 A 
ATOM     23  C   LIG    1       -1.238   3.133   0.029  0.00  0.00    +0.000 A 
ENDBRANCH  17  18
ENDBRANCH  16  17
ENDBRANCH  13  14
ENDBRANCH   1  13
TORSDOF 6
