REMARK  Name = ZINCpk00000e9CUi.0
REMARK                            x       y       z     vdW  Elec       q    Type
REMARK                         _______ _______ _______ _____ _____    ______ ____
ROOT
ATOM      1  N   LIG    1       -0.678   3.544  -5.037  0.00  0.00    -0.530 NA
ATOM      2  C   LIG    1        0.736   3.616  -4.648  0.00  0.00    +0.170 C 
ATOM      3  C   LIG    1        1.612   3.177  -5.824  0.00  0.00    +0.050 C 
ATOM      4  C   LIG    1        1.345   4.093  -7.022  0.00  0.00    +0.010 C 
ATOM      5  C   LIG    1       -0.143   4.037  -7.376  0.00  0.00    +0.260 C 
ATOM      6  C   LIG    1       -0.968   4.450  -6.155  0.00  0.00    +0.190 C 
ENDROOT
BRANCH   5   7
ATOM      7  N   LIG    1       -0.417   4.954  -8.485  0.00  0.00    -0.700 N 
ATOM      8  H   LIG    1       -0.729   5.854  -8.304  0.00  0.00    +0.420 HD
BRANCH   7   9
ATOM      9  C   LIG    1       -0.233   4.538  -9.784  0.00  0.00    +0.490 A 
ATOM     10  C   LIG    1        0.211   3.258 -10.057  0.00  0.00    -0.150 A 
ATOM     11  C   LIG    1        0.386   2.872 -11.384  0.00  0.00    +0.270 A 
ATOM     12  N   LIG    1        0.132   3.716 -12.363  0.00  0.00    -0.510 NA
ATOM     13  C   LIG    1       -0.298   4.958 -12.114  0.00  0.00    +0.490 A 
ATOM     14  N   LIG    1       -0.616   5.973 -12.910  0.00  0.00    -0.540 NA
ATOM     15  C   LIG    1       -1.008   7.010 -12.180  0.00  0.00    +0.490 A 
ATOM     16  N   LIG    1       -0.942   6.702 -10.908  0.00  0.00    -0.360 NA
ATOM     17  C   LIG    1        0.868   1.480 -11.702  0.00  0.00    +0.160 C 
ATOM     18  N   LIG    1       -0.489   5.379 -10.828  0.00  0.00    -0.370 N 
ENDBRANCH   7   9
ENDBRANCH   5   7
BRANCH   1  19
ATOM     19  C   LIG    1       -1.554   3.824  -3.891  0.00  0.00    +0.330 C 
BRANCH  19  22
ATOM     20  C   LIG    1       -0.742   1.585  -1.213  0.00  0.00    +0.180 A 
ATOM     21  N   LIG    1       -0.523   2.712  -1.847  0.00  0.00    -0.480 NA
ATOM     22  C   LIG    1       -1.403   2.732  -2.864  0.00  0.00    +0.170 A 
ATOM     23  N   LIG    1       -2.098   1.637  -2.798  0.00  0.00    -0.360 NA
ATOM     24  O   LIG    1       -1.730   0.961  -1.860  0.00  0.00    +0.080 OA
BRANCH  20  26
ATOM     25  C   LIG    1       -0.729   1.579   1.267  0.00  0.00    +0.050 C 
ATOM     26  C   LIG    1       -0.013   1.086   0.008  0.00  0.00    +0.180 C 
ENDBRANCH  20  26
ENDBRANCH  19  22
ENDBRANCH   1  19
TORSDOF 5
