REMARK  Name = ZINC9u0000000C3K.0
REMARK                            x       y       z     vdW  Elec       q    Type
REMARK                         _______ _______ _______ _____ _____    ______ ____
ROOT
ATOM      1  C   LIG    1       -0.718   1.572   1.248  0.00  0.00    +0.000 A 
ATOM      2  N   LIG    1       -0.908   2.810   1.572  0.00  0.00    -0.250 NA
ATOM      3  N   LIG    1       -1.527   3.021   2.653  0.00  0.00    -0.220 NA
ATOM      4  C   LIG    1       -1.894   1.974   3.322  0.00  0.00    -0.060 A 
ATOM      5 BR   LIG    1       -2.824   1.986   4.968  0.00  0.00    +0.090 Br
ATOM      6  S   LIG    1       -1.396   0.578   2.466  0.00  0.00    +0.240 S 
ENDROOT
BRANCH   1   8
ATOM      7  C   LIG    1        1.423   1.615  -0.003  0.00  0.00    +0.060 C 
ATOM      8  C   LIG    1       -0.013   1.086   0.008  0.00  0.00    +0.080 C 
ATOM      9  C   LIG    1       -0.753   1.593  -1.232  0.00  0.00    +0.060 C 
ENDBRANCH   1   8
TORSDOF 1
