REMARK  Name = ZINCpk00000AKmrW.0
REMARK                            x       y       z     vdW  Elec       q    Type
REMARK                         _______ _______ _______ _____ _____    ______ ____
ROOT
ATOM      1  C   LIG    1        1.875  -0.270  -6.475  0.00  0.00    +0.010 A 
ATOM      2  C   LIG    1        2.944   0.473  -5.973  0.00  0.00    +0.030 A 
ATOM      3  C   LIG    1        2.832   1.116  -4.761  0.00  0.00    +0.100 A 
ATOM      4  C   LIG    1        1.643   1.025  -4.030  0.00  0.00    -0.150 A 
ATOM      5  C   LIG    1        1.232   1.596  -2.735  0.00  0.00    +0.570 C 
ATOM      6  N   LIG    1       -0.024   1.222  -2.437  0.00  0.00    -0.600 N 
ATOM      7  C   LIG    1       -0.537   0.382  -3.524  0.00  0.00    +0.350 C 
ATOM      8  O   LIG    1        1.931   2.302  -2.034  0.00  0.00    -0.510 OA
ATOM      9  C   LIG    1        0.575   0.279  -4.538  0.00  0.00    -0.080 A 
ATOM     10  C   LIG    1        0.687  -0.362  -5.746  0.00  0.00    +0.070 A 
ENDROOT
BRANCH   6  11
ATOM     11  C   LIG    1       -0.761   1.597  -1.228  0.00  0.00    +0.290 C 
ATOM     12  C   LIG    1       -0.013   1.086   0.008  0.00  0.00    +0.060 C 
ATOM     13  C   LIG    1       -0.737   1.584   1.263  0.00  0.00    +0.100 C 
ATOM     14  C   LIG    1       -0.857   3.084   1.202  0.00  0.00    +0.520 C 
ATOM     15  N   LIG    1       -0.921   3.732   0.029  0.00  0.00    -0.670 N 
ATOM     16  H   LIG    1       -1.003   4.699   0.035  0.00  0.00    +0.420 HD
ATOM     17  O   LIG    1       -0.893   3.718   2.235  0.00  0.00    -0.500 OA
ATOM     18  C   LIG    1       -0.875   3.097  -1.151  0.00  0.00    +0.510 C 
ATOM     19  O   LIG    1       -0.927   3.742  -2.176  0.00  0.00    -0.480 OA
ENDBRANCH   6  11
BRANCH   1  22
ATOM     20  C   LIG    1        1.269  -2.226  -9.453  0.00  0.00    +0.090 A 
ATOM     21  N   LIG    1        1.024  -1.678  -8.297  0.00  0.00    -0.400 NA
ATOM     22  C   LIG    1        2.000  -0.960  -7.780  0.00  0.00    +0.100 A 
ATOM     23  C   LIG    1        3.136  -0.904  -8.532  0.00  0.00    -0.050 A 
ATOM     24  S   LIG    1        2.904  -1.816  -9.960  0.00  0.00    +0.280 S 
BRANCH  20  26
ATOM     25  N   LIG    1       -0.374  -3.684 -10.782  0.00  0.00    -0.350 NA
ATOM     26  C   LIG    1        0.353  -3.039 -10.194  0.00  0.00    +0.280 C 
ENDBRANCH  20  26
ENDBRANCH   1  22
TORSDOF 3
