REMARK  Name = ZINCrg00000aibik.0
REMARK                            x       y       z     vdW  Elec       q    Type
REMARK                         _______ _______ _______ _____ _____    ______ ____
ROOT
ATOM      1  C   LIG    1        2.043   6.665  -6.690  0.00  0.00    +0.580 C 
ATOM      2  N   LIG    1        1.618   5.407  -6.921  0.00  0.00    -0.590 N 
ATOM      3  C   LIG    1        2.057   4.675  -8.116  0.00  0.00    +0.290 C 
ATOM      4  C   LIG    1        0.822   4.168  -8.866  0.00  0.00    +0.050 C 
ATOM      5  C   LIG    1       -0.048   3.347  -7.911  0.00  0.00    +0.040 C 
ATOM      6  C   LIG    1       -0.515   4.234  -6.754  0.00  0.00    +0.250 C 
ATOM      7  C   LIG    1        0.705   4.742  -5.981  0.00  0.00    +0.300 C 
ATOM      8  O   LIG    1        2.850   7.181  -7.439  0.00  0.00    -0.490 OA
ENDROOT
BRANCH   1  13
ATOM      9  C   LIG    1        0.769   9.466  -4.540  0.00  0.00    +0.230 A 
ATOM     10  C   LIG    1        0.574   8.801  -3.347  0.00  0.00    -0.190 A 
ATOM     11  C   LIG    1        0.870   7.427  -3.276  0.00  0.00    +0.510 A 
ATOM     12  O   LIG    1        1.335   6.779  -4.357  0.00  0.00    -0.260 OA
ATOM     13  C   LIG    1        1.530   7.418  -5.526  0.00  0.00    +0.100 A 
ATOM     14  O   LIG    1        0.704   6.824  -2.230  0.00  0.00    -0.460 OA
ATOM     15  C   LIG    1        1.266   8.743  -5.651  0.00  0.00    +0.020 A 
BRANCH   9  16
ATOM     16  O   LIG    1        0.495  10.788  -4.645  0.00  0.00    -0.290 OA
BRANCH  16  18
ATOM     17  C   LIG    1       -0.248  12.921  -3.784  0.00  0.00    +0.080 C 
ATOM     18  C   LIG    1        0.002  11.444  -3.474  0.00  0.00    +0.210 C 
ENDBRANCH  16  18
ENDBRANCH   9  16
ENDBRANCH   1  13
BRANCH   6  19
ATOM     19  N   LIG    1       -1.373   3.455  -5.857  0.00  0.00    -0.290 N 
ATOM     20  C   LIG    1       -0.951   2.666  -4.843  0.00  0.00    +0.140 A 
ATOM     21  C   LIG    1       -2.066   2.140  -4.285  0.00  0.00    -0.010 A 
ATOM     22  N   LIG    1       -3.103   2.634  -4.970  0.00  0.00    -0.240 NA
ATOM     23  N   LIG    1       -2.659   3.410  -5.895  0.00  0.00    -0.080 NA
BRANCH  21  24
ATOM     24  C   LIG    1       -2.127   1.190  -3.117  0.00  0.00    +0.100 C 
BRANCH  24  25
ATOM     25  C   LIG    1       -3.029   1.777  -2.029  0.00  0.00    +0.210 C 
ATOM     26  C   LIG    1       -2.993   0.874  -0.794  0.00  0.00    +0.010 C 
BRANCH  25  27
ATOM     27  O   LIG    1       -4.369   1.864  -2.516  0.00  0.00    -0.550 OA
ATOM     28  H   LIG    1       -4.750   1.014  -2.773  0.00  0.00    +0.370 HD
ENDBRANCH  25  27
ENDBRANCH  24  25
ENDBRANCH  21  24
ENDBRANCH   6  19
TORSDOF 7
