REMARK  Name = ZINCrH000004r0Lr.0
REMARK                            x       y       z     vdW  Elec       q    Type
REMARK                         _______ _______ _______ _____ _____    ______ ____
ROOT
ATOM      1  C   LIG    1        7.609   3.715  -1.971  0.00  0.00    +0.550 C 
ATOM      2  N   LIG    1        6.926   2.577  -1.736  0.00  0.00    -0.720 N 
ATOM      3  H   LIG    1        6.381   2.185  -2.436  0.00  0.00    +0.400 HD
ATOM      4  O   LIG    1        8.293   4.206  -1.094  0.00  0.00    -0.500 OA
ENDROOT
BRANCH   1  10
ATOM      5  C   LIG    1        5.602   3.981  -6.529  0.00  0.00    +0.100 C 
ATOM      6  C   LIG    1        6.564   4.498  -5.490  0.00  0.00    -0.090 A 
ATOM      7  C   LIG    1        7.372   5.586  -5.780  0.00  0.00    +0.060 A 
ATOM      8  C   LIG    1        8.257   6.069  -4.837  0.00  0.00    +0.020 A 
ATOM      9  C   LIG    1        8.343   5.466  -3.590  0.00  0.00    +0.180 A 
ATOM     10  C   LIG    1        7.527   4.365  -3.294  0.00  0.00    -0.130 A 
ATOM     11  C   LIG    1        6.640   3.884  -4.259  0.00  0.00    +0.060 A 
BRANCH   9  12
ATOM     12  N   LIG    1        9.239   5.953  -2.636  0.00  0.00    -0.410 N 
ATOM     13  C   LIG    1        9.268   7.229  -2.148  0.00  0.00    +0.140 A 
ATOM     14  C   LIG    1       10.266   7.312  -1.245  0.00  0.00    -0.050 A 
ATOM     15  C   LIG    1       10.883   6.046  -1.178  0.00  0.00    -0.070 A 
ATOM     16  C   LIG    1       10.235   5.234  -2.038  0.00  0.00    +0.200 A 
ENDBRANCH   9  12
ENDBRANCH   1  10
BRANCH   2  17
ATOM     17  C   LIG    1        7.008   1.932  -0.423  0.00  0.00    +0.330 C 
BRANCH  17  18
ATOM     18  C   LIG    1        6.159   0.687  -0.422  0.00  0.00    -0.040 A 
ATOM     19  C   LIG    1        6.696  -0.539  -0.794  0.00  0.00    -0.040 A 
ATOM     20  C   LIG    1        5.891  -1.661  -0.782  0.00  0.00    +0.290 A 
ATOM     21  N   LIG    1        4.624  -1.581  -0.423  0.00  0.00    -0.510 NA
ATOM     22  C   LIG    1        4.076  -0.431  -0.062  0.00  0.00    +0.310 A 
ATOM     23  C   LIG    1        4.826   0.740  -0.056  0.00  0.00    -0.030 A 
BRANCH  22  24
ATOM     24  N   LIG    1        2.737  -0.393   0.309  0.00  0.00    -0.470 N 
ATOM     25  C   LIG    1        1.972   0.525  -0.562  0.00  0.00    +0.200 C 
ATOM     26  C   LIG    1        0.567  -0.116  -0.676  0.00  0.00    +0.030 C 
ATOM     27  C   LIG    1        0.915  -1.627  -0.721  0.00  0.00    +0.010 C 
ATOM     28  C   LIG    1        2.127  -1.733   0.227  0.00  0.00    +0.210 C 
ENDBRANCH  22  24
ENDBRANCH  17  18
ENDBRANCH   2  17
TORSDOF 5
