REMARK  Name = ZINCqH0000032wup.0
REMARK                            x       y       z     vdW  Elec       q    Type
REMARK                         _______ _______ _______ _____ _____    ______ ____
ROOT
ATOM      1  C   LIG    1       -0.241   3.746   2.737  0.00  0.00    +0.570 C 
ATOM      2  N   LIG    1       -1.306   3.130   2.187  0.00  0.00    -0.600 N 
ATOM      3  C   LIG    1       -2.427   3.927   1.678  0.00  0.00    +0.330 C 
ATOM      4  C   LIG    1       -2.294   4.049   0.173  0.00  0.00    -0.150 A 
ATOM      5  C   LIG    1       -2.109   5.278  -0.419  0.00  0.00    +0.030 A 
ATOM      6  C   LIG    1       -2.083   5.377  -1.800  0.00  0.00    +0.020 A 
ATOM      7  C   LIG    1       -2.242   4.245  -2.577  0.00  0.00    +0.030 A 
ATOM      8  C   LIG    1       -2.407   3.008  -1.983  0.00  0.00    +0.000 A 
ATOM      9  C   LIG    1       -2.416   2.902  -0.599  0.00  0.00    +0.110 A 
ATOM     10  O   LIG    1       -2.532   1.688  -0.006  0.00  0.00    -0.320 OA
ATOM     11  C   LIG    1       -1.358   1.201   0.654  0.00  0.00    +0.240 C 
ATOM     12  C   LIG    1       -1.341   1.669   2.102  0.00  0.00    +0.210 C 
ATOM     13  C   LIG    1       -0.103   1.100   2.798  0.00  0.00    +0.070 C 
ATOM     14  O   LIG    1        0.746   3.103   3.036  0.00  0.00    -0.510 OA
ENDROOT
BRANCH   1  21
ATOM     15  C   LIG    1        0.811   8.115   5.217  0.00  0.00    +0.080 A 
ATOM     16  N   LIG    1        0.381   9.263   4.786  0.00  0.00    -0.310 NA
ATOM     17  O   LIG    1       -0.272   9.184   3.771  0.00  0.00    +0.090 OA
ATOM     18  C   LIG    1       -0.400   7.923   3.324  0.00  0.00    +0.230 A 
ATOM     19  N   LIG    1       -1.000   7.353   2.292  0.00  0.00    -0.460 NA
ATOM     20  C   LIG    1       -0.957   6.053   2.098  0.00  0.00    +0.350 A 
ATOM     21  C   LIG    1       -0.274   5.203   2.977  0.00  0.00    -0.210 A 
ATOM     22  C   LIG    1        0.373   5.755   4.088  0.00  0.00    +0.220 A 
ATOM     23  C   LIG    1        0.310   7.130   4.253  0.00  0.00    -0.220 A 
BRANCH  15  25
ATOM     24  C   LIG    1        2.974   8.605   6.327  0.00  0.00    +0.040 C 
ATOM     25  C   LIG    1        1.647   7.853   6.443  0.00  0.00    +0.080 C 
ATOM     26  C   LIG    1        0.895   8.335   7.686  0.00  0.00    +0.040 C 
ENDBRANCH  15  25
ENDBRANCH   1  21
TORSDOF 2
