REMARK  Name = ZINCpe00000gNmsp.0
REMARK                            x       y       z     vdW  Elec       q    Type
REMARK                         _______ _______ _______ _____ _____    ______ ____
ROOT
ATOM      1  N   LIG    1       -4.168   0.474  -3.871  0.00  0.00    -0.680 NA
ATOM      2  H   LIG    1       -4.688  -0.291  -3.582  0.00  0.00    +0.420 HD
ENDROOT
BRANCH   1   7
ATOM      3  N   LIG    1       -6.119   1.676  -4.726  0.00  0.00    -0.370 N 
ATOM      4  N   LIG    1       -6.276   2.970  -5.253  0.00  0.00    -0.090 NA
ATOM      5  N   LIG    1       -5.112   3.522  -5.239  0.00  0.00    -0.010 NA
ATOM      6  N   LIG    1       -4.239   2.715  -4.754  0.00  0.00    -0.370 NA
ATOM      7  C   LIG    1       -4.801   1.574  -4.422  0.00  0.00    +0.510 C 
BRANCH   3  11
ATOM      8  C   LIG    1       -9.071  -1.221  -4.203  0.00  0.00    +0.020 A 
ATOM      9  C   LIG    1       -9.132  -0.361  -5.284  0.00  0.00    +0.050 A 
ATOM     10  C   LIG    1       -8.156   0.600  -5.459  0.00  0.00    +0.040 A 
ATOM     11  C   LIG    1       -7.112   0.702  -4.550  0.00  0.00    +0.140 A 
ATOM     12  C   LIG    1       -7.050  -0.168  -3.469  0.00  0.00    +0.000 A 
ATOM     13  C   LIG    1       -8.032  -1.123  -3.296  0.00  0.00    +0.050 A 
ENDBRANCH   3  11
ENDBRANCH   1   7
BRANCH   1  14
ATOM     14  C   LIG    1       -2.710   0.466  -3.724  0.00  0.00    +0.300 C 
BRANCH  14  15
ATOM     15  C   LIG    1       -2.279  -0.799  -2.980  0.00  0.00    +0.180 C 
BRANCH  15  16
ATOM     16  N   LIG    1       -2.983  -0.874  -1.693  0.00  0.00    -0.530 NA
ATOM     17  C   LIG    1       -2.495   0.157  -0.765  0.00  0.00    +0.160 C 
ATOM     18  C   LIG    1       -3.294   0.082   0.539  0.00  0.00    +0.220 C 
ATOM     19  O   LIG    1       -3.183  -1.235   1.085  0.00  0.00    -0.380 OA
ATOM     20  C   LIG    1       -3.651  -2.263   0.208  0.00  0.00    +0.220 C 
ATOM     21  C   LIG    1       -2.855  -2.212  -1.099  0.00  0.00    +0.150 C 
ENDBRANCH  15  16
BRANCH  15  22
ATOM     22  C   LIG    1       -0.770  -0.757  -2.734  0.00  0.00    -0.050 C 
ATOM     23  C   LIG    1       -0.011  -0.529  -4.061  0.00  0.00    +0.010 C 
ATOM     24  C   LIG    1        0.864  -1.792  -4.215  0.00  0.00    +0.190 C 
ATOM     25  O   LIG    1        1.030  -2.295  -2.872  0.00  0.00    -0.370 OA
ATOM     26  C   LIG    1       -0.263  -2.132  -2.244  0.00  0.00    +0.200 C 
ENDBRANCH  15  22
ENDBRANCH  14  15
ENDBRANCH   1  14
TORSDOF 6
