REMARK  Name = ZINCpk00000y6uZi.0
REMARK                            x       y       z     vdW  Elec       q    Type
REMARK                         _______ _______ _______ _____ _____    ______ ____
ROOT
ATOM      1  O   LIG    1       -0.706  -0.454   2.101  0.00  0.00    -0.520 OA
ATOM      2  C   LIG    1       -1.091   0.697   2.171  0.00  0.00    +0.570 C 
ATOM      3  N   LIG    1       -0.974   1.513   1.105  0.00  0.00    -0.580 N 
ATOM      4  C   LIG    1       -1.593   2.846   1.110  0.00  0.00    +0.290 C 
ATOM      5  C   LIG    1       -2.476   2.988  -0.134  0.00  0.00    +0.020 C 
ATOM      6  C   LIG    1       -1.643   2.687  -1.382  0.00  0.00    +0.060 C 
ATOM      7  C   LIG    1       -1.127   1.247  -1.318  0.00  0.00    +0.110 C 
ATOM      8  C   LIG    1       -0.229   1.085  -0.087  0.00  0.00    +0.280 C 
ENDROOT
BRANCH   2   9
ATOM      9  C   LIG    1       -1.689   1.202   3.430  0.00  0.00    +0.120 A 
ATOM     10  N   LIG    1       -1.929   2.493   3.556  0.00  0.00    -0.440 NA
ATOM     11  C   LIG    1       -2.466   2.992   4.669  0.00  0.00    +0.120 A 
ATOM     12  C   LIG    1       -2.720   4.371   4.797  0.00  0.00    +0.050 A 
ATOM     13  C   LIG    1       -3.267   4.853   5.945  0.00  0.00    +0.030 A 
ATOM     14  C   LIG    1       -3.585   4.002   7.003  0.00  0.00    +0.020 A 
ATOM     15  C   LIG    1       -3.356   2.663   6.917  0.00  0.00    +0.030 A 
ATOM     16  C   LIG    1       -2.791   2.128   5.748  0.00  0.00    -0.090 A 
ATOM     17  C   LIG    1       -2.539   0.749   5.623  0.00  0.00    +0.090 A 
ATOM     18  C   LIG    1       -1.992   0.296   4.457  0.00  0.00    +0.020 A 
ENDBRANCH   2   9
BRANCH   7  19
ATOM     19  O   LIG    1       -2.233   0.347  -1.223  0.00  0.00    -0.540 OA
ATOM     20  H   LIG    1       -1.979  -0.584  -1.176  0.00  0.00    +0.380 HD
ENDBRANCH   7  19
BRANCH   7  21
ATOM     21  C   LIG    1       -0.322   0.937  -2.581  0.00  0.00    +0.320 C 
BRANCH  21  22
ATOM     22  N   LIG    1        0.175  -0.440  -2.517  0.00  0.00    -0.300 N 
ATOM     23  C   LIG    1       -0.028  -1.400  -3.449  0.00  0.00    +0.140 A 
ATOM     24  C   LIG    1        0.601  -2.508  -2.991  0.00  0.00    +0.140 A 
ATOM     25  N   LIG    1        1.151  -2.176  -1.818  0.00  0.00    -0.260 NA
ATOM     26  N   LIG    1        0.885  -0.942  -1.568  0.00  0.00    -0.080 NA
ENDBRANCH  21  22
ENDBRANCH   7  21
TORSDOF 4
