REMARK  Name = ZINCrD0000075WtW.0
REMARK                            x       y       z     vdW  Elec       q    Type
REMARK                         _______ _______ _______ _____ _____    ______ ____
ROOT
ATOM      1  N   LIG    1       -3.901   5.026   0.736  0.00  0.00    -0.740 N 
ATOM      2  H   LIG    1       -3.224   5.523   0.250  0.00  0.00    +0.390 HD
ATOM      3  C   LIG    1       -3.883   3.679   0.728  0.00  0.00    +0.710 C 
ATOM      4  N   LIG    1       -2.924   3.021   0.046  0.00  0.00    -0.740 N 
ATOM      5  H   LIG    1       -2.247   3.518  -0.439  0.00  0.00    +0.390 HD
ATOM      6  O   LIG    1       -4.731   3.056   1.337  0.00  0.00    -0.590 OA
ENDROOT
BRANCH   1  11
ATOM      7  O   LIG    1       -2.293   8.663   2.304  0.00  0.00    -0.550 OA
ATOM      8  C   LIG    1       -3.149   7.825   2.113  0.00  0.00    +0.520 C 
ATOM      9  C   LIG    1       -3.142   6.593   2.970  0.00  0.00    +0.070 C 
ATOM     10  C   LIG    1       -4.511   5.913   2.940  0.00  0.00    +0.030 C 
ATOM     11  C   LIG    1       -4.943   5.740   1.477  0.00  0.00    +0.280 C 
ATOM     12  C   LIG    1       -5.148   7.128   0.870  0.00  0.00    +0.130 C 
ATOM     13  C   LIG    1       -6.534   7.719   1.163  0.00  0.00    +0.040 C 
ATOM     14  C   LIG    1       -6.532   8.234  -0.286  0.00  0.00    +0.020 C 
ATOM     15  C   LIG    1       -5.555   7.090  -0.609  0.00  0.00    +0.040 C 
ATOM     16  N   LIG    1       -4.051   8.046   1.152  0.00  0.00    -0.700 N 
ATOM     17  H   LIG    1       -3.972   8.852   0.618  0.00  0.00    +0.400 HD
ENDBRANCH   1  11
BRANCH   4  18
ATOM     18  C   LIG    1       -2.904   1.556   0.038  0.00  0.00    +0.250 C 
ATOM     19  C   LIG    1       -2.188   1.063  -1.221  0.00  0.00    +0.020 C 
ATOM     20  C   LIG    1       -0.753   1.593  -1.232  0.00  0.00    +0.020 C 
ATOM     21  C   LIG    1       -0.013   1.086   0.008  0.00  0.00    +0.030 C 
ATOM     22  C   LIG    1       -0.729   1.579   1.267  0.00  0.00    +0.010 C 
ATOM     23  C   LIG    1       -2.164   1.050   1.278  0.00  0.00    +0.010 C 
BRANCH  21  24
ATOM     24  C   LIG    1        1.401   1.607  -0.003  0.00  0.00    -0.090 A 
ATOM     25  C   LIG    1        1.635   2.970  -0.003  0.00  0.00    +0.040 A 
ATOM     26  C   LIG    1        2.931   3.450  -0.008  0.00  0.00    -0.020 A 
ATOM     27  C   LIG    1        3.996   2.565  -0.023  0.00  0.00    +0.090 A 
ATOM     28  C   LIG    1        3.760   1.200  -0.028  0.00  0.00    -0.010 A 
ATOM     29  F   LIG    1        5.263   3.032  -0.033  0.00  0.00    -0.140 F 
ATOM     30  C   LIG    1        2.463   0.723  -0.018  0.00  0.00    +0.040 A 
ENDBRANCH  21  24
ENDBRANCH   4  18
TORSDOF 3
