REMARK  Name = ZINCnE000001IQKQ.0
REMARK                            x       y       z     vdW  Elec       q    Type
REMARK                         _______ _______ _______ _____ _____    ______ ____
ROOT
ATOM      1  C   LIG    1       -0.013   1.086   0.008  0.00  0.00    +0.290 C 
ATOM      2  N   LIG    1       -0.698   1.558   1.213  0.00  0.00    -0.600 N 
ATOM      3  C   LIG    1       -2.030   1.765   1.194  0.00  0.00    +0.540 C 
ATOM      4  O   LIG    1       -2.598   2.156   2.192  0.00  0.00    -0.510 OA
ENDROOT
BRANCH   3   5
ATOM      5  C   LIG    1       -2.814   1.510  -0.068  0.00  0.00    +0.090 C 
ATOM      6  S   LIG    1       -2.877   3.028  -1.061  0.00  0.00    -0.180 S 
ATOM      7  C   LIG    1       -4.195   2.625  -2.248  0.00  0.00    +0.120 C 
ATOM      8  C   LIG    1       -5.501   2.468  -1.477  0.00  0.00    +0.140 C 
ATOM      9  C   LIG    1       -5.357   1.502  -0.321  0.00  0.00    -0.160 A 
ATOM     10  S   LIG    1       -6.758   0.728   0.432  0.00  0.00    +0.090 S 
ATOM     11  C   LIG    1       -5.725  -0.123   1.573  0.00  0.00    -0.040 A 
ATOM     12  C   LIG    1       -4.460   0.196   1.344  0.00  0.00    +0.040 A 
ATOM     13  C   LIG    1       -4.236   1.091   0.290  0.00  0.00    -0.090 A 
ENDBRANCH   3   5
BRANCH   2  14
ATOM     14  C   LIG    1        0.063   1.806   2.440  0.00  0.00    +0.330 C 
BRANCH  14  15
ATOM     15  C   LIG    1        0.539   3.236   2.455  0.00  0.00    -0.130 A 
ATOM     16  C   LIG    1        1.768   3.558   1.908  0.00  0.00    -0.010 A 
ATOM     17  C   LIG    1        2.208   4.866   1.914  0.00  0.00    +0.030 A 
ATOM     18  C   LIG    1        1.415   5.863   2.485  0.00  0.00    -0.120 A 
ATOM     19  C   LIG    1        0.177   5.529   3.041  0.00  0.00    +0.030 A 
ATOM     20  C   LIG    1       -0.252   4.219   3.023  0.00  0.00    +0.010 A 
BRANCH  18  21
ATOM     21  C   LIG    1        1.881   7.263   2.501  0.00  0.00    +0.520 C 
ATOM     22  O   LIG    1        2.964   7.552   2.014  0.00  0.00    -0.690 OA
ATOM     23  O   LIG    1        1.183   8.134   3.002  0.00  0.00    -0.690 OA
ENDBRANCH  18  21
ENDBRANCH  14  15
ENDBRANCH   2  14
TORSDOF 4
