REMARK  Name = ZINCpe000000TXpQ.0
REMARK                            x       y       z     vdW  Elec       q    Type
REMARK                         _______ _______ _______ _____ _____    ______ ____
ROOT
ATOM      1  C   LIG    1        3.711  -0.563  -0.037  0.00  0.00    +0.570 C 
ATOM      2  N   LIG    1        3.795  -1.908  -0.045  0.00  0.00    -0.730 N 
ATOM      3  H   LIG    1        2.987  -2.445  -0.041  0.00  0.00    +0.400 HD
ATOM      4  O   LIG    1        4.724   0.109  -0.043  0.00  0.00    -0.510 OA
ENDROOT
BRANCH   1  11
ATOM      5  C   LIG    1        2.288   1.493  -0.012  0.00  0.00    +0.380 A 
ATOM      6  N   LIG    1        1.102   2.077   0.003  0.00  0.00    -0.550 NA
ATOM      7  C   LIG    1       -0.017   1.379   0.010  0.00  0.00    +0.200 A 
ATOM      8  C   LIG    1        0.002  -0.004   0.002  0.00  0.00    -0.070 A 
ATOM      9  C   LIG    1        1.216  -0.668  -0.013  0.00  0.00    +0.140 A 
ATOM     10  C   LIG    1       -1.339   2.101   0.020  0.00  0.00    +0.140 C 
ATOM     11  C   LIG    1        2.390   0.093  -0.020  0.00  0.00    -0.220 A 
BRANCH   5  12
ATOM     12  O   LIG    1        3.411   2.250  -0.019  0.00  0.00    -0.270 OA
BRANCH  12  14
ATOM     13  C   LIG    1        4.608   4.349  -0.020  0.00  0.00    +0.070 C 
ATOM     14  C   LIG    1        3.238   3.668  -0.010  0.00  0.00    +0.200 C 
ENDBRANCH  12  14
ENDBRANCH   5  12
ENDBRANCH   1  11
BRANCH   2  15
ATOM     15  C   LIG    1        5.107  -2.560  -0.062  0.00  0.00    +0.280 C 
BRANCH  15  16
ATOM     16  C   LIG    1        4.921  -4.079  -0.069  0.00  0.00    +0.010 C 
ATOM     17  C   LIG    1        4.292  -4.556   1.266  0.00  0.00    +0.040 C 
ATOM     18  C   LIG    1        4.748  -6.035   1.353  0.00  0.00    +0.040 C 
ATOM     19  C   LIG    1        6.185  -6.023   0.786  0.00  0.00    +0.060 C 
ATOM     20  C   LIG    1        6.282  -4.787  -0.112  0.00  0.00    +0.120 C 
ATOM     21  N   LIG    1        7.357  -3.893   0.323  0.00  0.00    -0.720 N 
ATOM     22  H   LIG    1        7.441  -3.460   1.186  0.00  0.00    +0.440 HD
ATOM     23  C   LIG    1        8.208  -3.793  -0.719  0.00  0.00    +0.700 C 
ATOM     24  N   LIG    1        7.810  -4.516  -1.774  0.00  0.00    -0.680 N 
ATOM     25  H   LIG    1        8.294  -4.568  -2.613  0.00  0.00    +0.430 HD
ATOM     26  O   LIG    1        9.221  -3.123  -0.702  0.00  0.00    -0.530 OA
ATOM     27  C   LIG    1        6.652  -5.164  -1.524  0.00  0.00    +0.540 C 
ATOM     28  O   LIG    1        6.040  -5.894  -2.274  0.00  0.00    -0.460 OA
ENDBRANCH  15  16
ENDBRANCH   2  15
TORSDOF 5
