REMARK  Name = ZINCpk00000e9gos.0
REMARK                            x       y       z     vdW  Elec       q    Type
REMARK                         _______ _______ _______ _____ _____    ______ ____
ROOT
ATOM      1  N   LIG    1        0.002  -0.004   0.002  0.00  0.00    -0.540 N 
ATOM      2  C   LIG    1        1.286  -0.411  -0.012  0.00  0.00    +0.680 A 
ATOM      3  N   LIG    1        2.101   0.661  -0.014  0.00  0.00    -0.540 N 
ATOM      4  C   LIG    1        1.315   1.810  -0.001  0.00  0.00    +0.080 A 
ATOM      5  C   LIG    1        1.610   3.165   0.004  0.00  0.00    +0.050 A 
ATOM      6  C   LIG    1        0.586   4.092   0.018  0.00  0.00    +0.030 A 
ATOM      7  C   LIG    1       -0.734   3.674   0.029  0.00  0.00    +0.030 A 
ATOM      8  C   LIG    1       -1.038   2.326   0.029  0.00  0.00    +0.020 A 
ATOM      9  O   LIG    1        1.653  -1.571  -0.022  0.00  0.00    -0.540 OA
ATOM     10  C   LIG    1       -0.017   1.389   0.010  0.00  0.00    +0.100 A 
ENDROOT
BRANCH   1  11
ATOM     11  C   LIG    1       -1.174  -0.877   0.008  0.00  0.00    +0.320 C 
BRANCH  11  13
ATOM     12  C   LIG    1       -2.825  -2.086  -1.426  0.00  0.00    +0.030 C 
ATOM     13  C   LIG    1       -1.597  -1.174  -1.432  0.00  0.00    +0.000 C 
ENDBRANCH  11  13
ENDBRANCH   1  11
BRANCH   3  14
ATOM     14  C   LIG    1        3.565   0.624  -0.028  0.00  0.00    +0.510 C 
BRANCH  14  15
ATOM     15  C   LIG    1        4.054   0.617  -1.454  0.00  0.00    +0.160 A 
ATOM     16  N   LIG    1        4.328   1.668  -2.186  0.00  0.00    -0.430 NA
ATOM     17  C   LIG    1        4.731   1.181  -3.382  0.00  0.00    +0.260 A 
ATOM     18  N   LIG    1        4.670  -0.123  -3.308  0.00  0.00    -0.360 NA
ATOM     19  O   LIG    1        4.284  -0.461  -2.209  0.00  0.00    +0.100 OA
BRANCH  17  20
ATOM     20  C   LIG    1        5.157   1.978  -4.559  0.00  0.00    +0.040 A 
ATOM     21  C   LIG    1        5.559   1.498  -5.772  0.00  0.00    +0.200 A 
ATOM     22  N   LIG    1        5.846   2.582  -6.526  0.00  0.00    -0.290 N 
ATOM     23  N   LIG    1        5.633   3.638  -5.823  0.00  0.00    -0.070 NA
ATOM     24  C   LIG    1        6.319   2.559  -7.912  0.00  0.00    +0.390 C 
ATOM     25  N   LIG    1        5.217   3.320  -4.648  0.00  0.00    -0.220 NA
ENDBRANCH  17  20
ENDBRANCH  14  15
ENDBRANCH   3  14
TORSDOF 5
