REMARK  Name = ZINCpk00000RWC3i.0
REMARK                            x       y       z     vdW  Elec       q    Type
REMARK                         _______ _______ _______ _____ _____    ______ ____
ROOT
ATOM      1  N   LIG    1        0.714  -2.824   1.935  0.00  0.00    -0.700 N 
ATOM      2  H   LIG    1        0.186  -3.373   1.334  0.00  0.00    +0.410 HD
ATOM      3  C   LIG    1        0.721  -3.089   3.257  0.00  0.00    +0.600 C 
ATOM      4  O   LIG    1        1.449  -2.457   4.000  0.00  0.00    -0.530 OA
ENDROOT
BRANCH   3   5
ATOM      5  C   LIG    1       -0.149  -4.138   3.800  0.00  0.00    -0.090 A 
ATOM      6  C   LIG    1       -0.973  -4.968   3.091  0.00  0.00    +0.230 A 
ATOM      7  N   LIG    1       -1.584  -5.774   3.959  0.00  0.00    -0.490 NA
ATOM      8  C   LIG    1       -1.195  -5.490   5.176  0.00  0.00    +0.440 A 
ATOM      9  N   LIG    1       -0.304  -4.481   5.131  0.00  0.00    -0.380 N 
BRANCH   9  10
ATOM     10  C   LIG    1        0.343  -3.890   6.224  0.00  0.00    +0.100 A 
ATOM     11  C   LIG    1        1.730  -3.851   6.274  0.00  0.00    +0.060 A 
ATOM     12  C   LIG    1        2.365  -3.263   7.351  0.00  0.00    +0.020 A 
ATOM     13  C   LIG    1        1.621  -2.724   8.384  0.00  0.00    +0.030 A 
ATOM     14  C   LIG    1        0.239  -2.767   8.340  0.00  0.00    +0.020 A 
ATOM     15  C   LIG    1       -0.402  -3.348   7.263  0.00  0.00    +0.020 A 
ENDBRANCH   9  10
ENDBRANCH   3   5
BRANCH   1  17
ATOM     16  C   LIG    1        0.965  -1.147   0.080  0.00  0.00    +0.270 C 
ATOM     17  C   LIG    1        1.503  -1.709   1.407  0.00  0.00    +0.260 C 
ATOM     18  C   LIG    1        2.750  -2.151   0.621  0.00  0.00    +0.020 C 
ATOM     19  C   LIG    1        2.429  -1.023  -0.373  0.00  0.00    +0.180 C 
BRANCH  16  23
ATOM     20  C   LIG    1        0.106   3.774   0.483  0.00  0.00    +0.110 C 
ATOM     21  C   LIG    1       -0.098   2.284   0.398  0.00  0.00    -0.230 A 
ATOM     22  C   LIG    1        0.875   1.353   0.258  0.00  0.00    +0.220 A 
ATOM     23  N   LIG    1        0.282   0.141   0.222  0.00  0.00    -0.360 N 
ATOM     24  N   LIG    1       -1.100   0.333   0.344  0.00  0.00    -0.290 NA
ATOM     25  C   LIG    1       -1.327   1.617   0.449  0.00  0.00    +0.230 A 
ENDBRANCH  16  23
BRANCH  19  26
ATOM     26  O   LIG    1        2.638  -1.386  -1.739  0.00  0.00    -0.550 OA
ATOM     27  H   LIG    1        3.557  -1.310  -2.030  0.00  0.00    +0.390 HD
ENDBRANCH  19  26
ENDBRANCH   1  17
TORSDOF 5
