REMARK  Name = ZINCrH000004sfhV.0
REMARK                            x       y       z     vdW  Elec       q    Type
REMARK                         _______ _______ _______ _____ _____    ______ ____
ROOT
ATOM      1  C   LIG    1        1.401   1.608  -0.003  0.00  0.00    +0.070 A 
ATOM      2  N   LIG    1        1.752   2.869   0.001  0.00  0.00    -0.270 NA
ATOM      3  N   LIG    1        3.151   2.938  -0.011  0.00  0.00    -0.480 N 
ATOM      4  H   LIG    1        3.682   3.749  -0.011  0.00  0.00    +0.450 HD
ATOM      5  C   LIG    1        3.631   1.667  -0.023  0.00  0.00    +0.250 A 
ATOM      6  C   LIG    1        2.565   0.826  -0.012  0.00  0.00    -0.010 A 
ENDROOT
BRANCH   1  11
ATOM      7  N   LIG    1       -2.115   1.088   1.265  0.00  0.00    -0.510 NA
ATOM      8  C   LIG    1       -2.861   1.601   0.109  0.00  0.00    +0.200 C 
ATOM      9  C   LIG    1       -2.206   1.108  -1.183  0.00  0.00    +0.030 C 
ATOM     10  C   LIG    1       -0.755   1.594  -1.231  0.00  0.00    +0.030 C 
ATOM     11  C   LIG    1       -0.013   1.086   0.008  0.00  0.00    +0.090 C 
ATOM     12  C   LIG    1       -0.731   1.580   1.266  0.00  0.00    +0.180 C 
BRANCH   7  13
ATOM     13  C   LIG    1       -2.794   1.427   2.523  0.00  0.00    +0.290 C 
ATOM     14  C   LIG    1       -4.204   0.831   2.518  0.00  0.00    +0.070 C 
BRANCH  13  19
ATOM     15  C   LIG    1       -2.626   6.085   4.438  0.00  0.00    +0.180 C 
ATOM     16  C   LIG    1       -2.809   4.929   3.489  0.00  0.00    -0.050 A 
ATOM     17  C   LIG    1       -3.198   5.004   2.206  0.00  0.00    +0.130 A 
ATOM     18  N   LIG    1       -3.236   3.752   1.716  0.00  0.00    -0.470 NA
ATOM     19  C   LIG    1       -2.883   2.925   2.659  0.00  0.00    +0.160 A 
ATOM     20  O   LIG    1       -2.617   3.625   3.769  0.00  0.00    -0.200 OA
ENDBRANCH  13  19
ENDBRANCH   7  13
ENDBRANCH   1  11
BRANCH   6  21
ATOM     21  N   LIG    1        2.619  -0.580  -0.015  0.00  0.00    -0.640 N 
ATOM     22  H   LIG    1        1.798  -1.097  -0.009  0.00  0.00    +0.410 HD
ATOM     23  C   LIG    1        3.811  -1.209  -0.024  0.00  0.00    +0.520 C 
ATOM     24  O   LIG    1        4.838  -0.563  -0.031  0.00  0.00    -0.530 OA
BRANCH  23  25
ATOM     25  C   LIG    1        3.869  -2.715  -0.026  0.00  0.00    -0.010 C 
ATOM     26  C   LIG    1        3.221  -3.271   1.258  0.00  0.00    +0.030 C 
ATOM     27  C   LIG    1        4.098  -4.494   1.627  0.00  0.00    +0.020 C 
ATOM     28  C   LIG    1        5.526  -4.012   1.268  0.00  0.00    +0.010 C 
ATOM     29  C   LIG    1        5.334  -3.186  -0.021  0.00  0.00    +0.040 C 
ENDBRANCH  23  25
ENDBRANCH   6  21
TORSDOF 5
