REMARK  Name = ZINCpk00000y6xBT.0
REMARK                            x       y       z     vdW  Elec       q    Type
REMARK                         _______ _______ _______ _____ _____    ______ ____
ROOT
ATOM      1  N   LIG    1       -2.460   3.726  -0.486  0.00  0.00    -0.230 N 
ATOM      2  C   LIG    1       -3.652   3.092  -0.632  0.00  0.00    +0.180 A 
ATOM      3  C   LIG    1       -4.585   4.045  -0.861  0.00  0.00    +0.010 A 
ATOM      4  C   LIG    1       -3.884   5.275  -0.844  0.00  0.00    -0.000 A 
ATOM      5  N   LIG    1       -2.617   4.996  -0.607  0.00  0.00    -0.250 NA
ENDROOT
BRANCH   4   6
ATOM      6  C   LIG    1       -4.464   6.618  -1.046  0.00  0.00    +0.620 C 
ATOM      7  N   LIG    1       -3.671   7.707  -1.002  0.00  0.00    -0.600 N 
ATOM      8  C   LIG    1       -4.112   9.103  -1.185  0.00  0.00    +0.220 C 
ATOM      9  C   LIG    1       -2.854   9.979  -1.072  0.00  0.00    +0.160 C 
ATOM     10  C   LIG    1       -1.711   9.011  -1.447  0.00  0.00    +0.180 C 
ATOM     11  O   LIG    1       -1.712   8.762  -2.854  0.00  0.00    -0.370 OA
ATOM     12  C   LIG    1       -1.694   9.925  -3.680  0.00  0.00    +0.230 C 
ATOM     13  C   LIG    1       -2.947  10.754  -3.375  0.00  0.00    +0.150 C 
ATOM     14  N   LIG    1       -2.913  11.132  -1.956  0.00  0.00    -0.530 NA
ATOM     15  C   LIG    1       -4.048  12.000  -1.614  0.00  0.00    +0.190 C 
ATOM     16  C   LIG    1       -2.215   7.707  -0.756  0.00  0.00    +0.300 C 
ATOM     17  O   LIG    1       -5.656   6.741  -1.252  0.00  0.00    -0.530 OA
ENDBRANCH   4   6
BRANCH   1  25
ATOM     18  C   LIG    1       -0.184   5.349   0.049  0.00  0.00    +0.120 C 
ATOM     19  C   LIG    1       -0.102   3.844   0.032  0.00  0.00    -0.040 A 
ATOM     20  C   LIG    1        1.102   3.215   0.279  0.00  0.00    +0.010 A 
ATOM     21  C   LIG    1        1.178   1.832   0.263  0.00  0.00    +0.110 A 
ATOM     22  C   LIG    1        0.047   1.078  -0.002  0.00  0.00    +0.010 A 
ATOM     23  C   LIG    1       -1.158   1.704  -0.255  0.00  0.00    +0.060 A 
ATOM     24  F   LIG    1        2.357   1.218   0.506  0.00  0.00    -0.130 F 
ATOM     25  C   LIG    1       -1.237   3.090  -0.234  0.00  0.00    +0.120 A 
ENDBRANCH   1  25
TORSDOF 2
