REMARK  Name = ZINCvU0000000GEp.0
REMARK                            x       y       z     vdW  Elec       q    Type
REMARK                         _______ _______ _______ _____ _____    ______ ____
ROOT
ATOM      1  C   LIG    1        3.580  -0.818   0.110  0.00  0.00    +0.350 A 
ATOM      2  N   LIG    1        4.793  -0.331  -0.057  0.00  0.00    -0.500 NA
ATOM      3  C   LIG    1        5.660  -1.326  -0.212  0.00  0.00    +0.230 A 
ATOM      4  N   LIG    1        5.024  -2.469  -0.159  0.00  0.00    -0.260 NA
ATOM      5  N   LIG    1        3.667  -2.174   0.050  0.00  0.00    -0.330 N 
ENDROOT
BRANCH   1  10
ATOM      6  C   LIG    1        1.223   2.083   0.426  0.00  0.00    -0.040 A 
ATOM      7  C   LIG    1        0.053   1.392   0.703  0.00  0.00    -0.010 A 
ATOM      8  C   LIG    1        0.082   0.010   0.775  0.00  0.00    +0.280 A 
ATOM      9  N   LIG    1        1.203  -0.654   0.584  0.00  0.00    -0.470 NA
ATOM     10  C   LIG    1        2.345  -0.030   0.317  0.00  0.00    +0.170 A 
ATOM     11  C   LIG    1        2.388   1.361   0.230  0.00  0.00    +0.040 A 
BRANCH   6  13
ATOM     12  C   LIG    1        1.515   4.177   1.722  0.00  0.00    +0.040 C 
ATOM     13  C   LIG    1        1.227   3.588   0.340  0.00  0.00    +0.070 C 
ENDBRANCH   6  13
ENDBRANCH   1  10
BRANCH   5  14
ATOM     14  C   LIG    1        2.616  -3.091   0.172  0.00  0.00    +0.200 A 
ATOM     15  C   LIG    1        1.533  -3.029  -0.695  0.00  0.00    +0.060 A 
ATOM     16  C   LIG    1        0.498  -3.935  -0.572  0.00  0.00    +0.060 A 
ATOM     17  C   LIG    1        0.539  -4.904   0.413  0.00  0.00    +0.040 A 
ATOM     18  C   LIG    1        1.616  -4.969   1.279  0.00  0.00    +0.080 A 
ATOM     19  C   LIG    1        2.657  -4.069   1.158  0.00  0.00    -0.170 A 
BRANCH  19  20
ATOM     20  C   LIG    1        3.832  -4.145   2.098  0.00  0.00    +0.500 C 
ATOM     21  F   LIG    1        3.938  -2.945   2.809  0.00  0.00    -0.180 F 
ATOM     22  F   LIG    1        5.004  -4.357   1.363  0.00  0.00    -0.160 F 
ATOM     23  F   LIG    1        3.646  -5.203   2.994  0.00  0.00    -0.180 F 
ENDBRANCH  19  20
ENDBRANCH   5  14
BRANCH   3  24
ATOM     24  C   LIG    1        7.144  -1.164  -0.424  0.00  0.00    +0.350 C 
BRANCH  24  25
ATOM     25  O   LIG    1        7.418  -1.067  -1.823  0.00  0.00    -0.310 OA
BRANCH  25  26
ATOM     26  C   LIG    1        8.718  -0.916  -2.188  0.00  0.00    +0.130 A 
ATOM     27  C   LIG    1        9.709  -0.857  -1.219  0.00  0.00    -0.080 A 
ATOM     28  C   LIG    1       11.031  -0.709  -1.593  0.00  0.00    +0.050 A 
ATOM     29  C   LIG    1       11.365  -0.609  -2.931  0.00  0.00    -0.040 A 
ATOM     30  C   LIG    1       10.378  -0.662  -3.898  0.00  0.00    +0.050 A 
ATOM     31  C   LIG    1        9.056  -0.815  -3.530  0.00  0.00    -0.020 A 
ENDBRANCH  25  26
ENDBRANCH  24  25
ENDBRANCH   3  24
TORSDOF 7
