REMARK  Name = ZINCqH0000032Tp4.0
REMARK                            x       y       z     vdW  Elec       q    Type
REMARK                         _______ _______ _______ _____ _____    ______ ____
ROOT
ATOM      1  C   LIG    1        3.954   3.032  -4.901  0.00  0.00    +0.570 C 
ATOM      2  N   LIG    1        3.311   2.804  -6.064  0.00  0.00    -0.660 N 
ATOM      3  H   LIG    1        2.429   2.402  -6.059  0.00  0.00    +0.410 HD
ATOM      4  O   LIG    1        5.094   3.457  -4.910  0.00  0.00    -0.530 OA
ENDROOT
BRANCH   2   5
ATOM      5  C   LIG    1        3.917   3.150  -7.279  0.00  0.00    +0.050 A 
ATOM      6  C   LIG    1        3.145   3.613  -8.343  0.00  0.00    +0.330 A 
ATOM      7  N   LIG    1        3.690   3.949  -9.491  0.00  0.00    -0.490 NA
ATOM      8  C   LIG    1        4.998   3.854  -9.697  0.00  0.00    +0.300 A 
ATOM      9  C   LIG    1        5.843   3.388  -8.670  0.00  0.00    -0.210 A 
ATOM     10  C   LIG    1        7.198   3.403  -9.210  0.00  0.00    +0.110 A 
ATOM     11  N   LIG    1        7.130   3.838 -10.436  0.00  0.00    -0.240 NA
ATOM     12  C   LIG    1        8.450   2.989  -8.481  0.00  0.00    +0.180 C 
ATOM     13  N   LIG    1        5.804   4.124 -10.772  0.00  0.00    -0.400 N 
ATOM     14  C   LIG    1        5.348   4.633 -12.068  0.00  0.00    +0.360 C 
ATOM     15  C   LIG    1        5.289   3.030  -7.436  0.00  0.00    +0.170 A 
ENDBRANCH   2   5
BRANCH   1  19
ATOM     16  C   LIG    1        2.004   2.261  -1.209  0.00  0.00    +0.250 A 
ATOM     17  C   LIG    1        1.340   2.021  -2.409  0.00  0.00    -0.080 A 
ATOM     18  C   LIG    1        1.967   2.275  -3.607  0.00  0.00    +0.090 A 
ATOM     19  C   LIG    1        3.276   2.764  -3.619  0.00  0.00    -0.210 A 
ATOM     20  C   LIG    1        3.942   3.000  -2.412  0.00  0.00    +0.140 A 
ATOM     21  C   LIG    1        3.308   2.749  -1.217  0.00  0.00    -0.080 A 
BRANCH  16  22
ATOM     22  N   LIG    1        1.365   2.008  -0.000  0.00  0.00    -0.620 N 
ATOM     23  C   LIG    1        2.065   2.254   1.263  0.00  0.00    +0.280 C 
BRANCH  22  24
ATOM     24  C   LIG    1       -0.007   1.494   0.010  0.00  0.00    +0.280 C 
BRANCH  24  25
ATOM     25  C   LIG    1        0.021  -0.035  -0.002  0.00  0.00    -0.010 C 
BRANCH  25  27
ATOM     26  C   LIG    1       -1.385  -2.101  -0.004  0.00  0.00    +0.010 C 
ATOM     27  C   LIG    1       -1.412  -0.571   0.008  0.00  0.00    +0.000 C 
ENDBRANCH  25  27
ENDBRANCH  24  25
ENDBRANCH  22  24
ENDBRANCH  16  22
ENDBRANCH   1  19
TORSDOF 6
