REMARK  Name = ZINCqH0000003cTG.0
REMARK                            x       y       z     vdW  Elec       q    Type
REMARK                         _______ _______ _______ _____ _____    ______ ____
ROOT
ATOM      1  C   LIG    1       -1.287  -0.784   0.011  0.00  0.00    +0.290 C 
ENDROOT
BRANCH   1   2
ATOM      2  C   LIG    1        0.002  -0.004   0.002  0.00  0.00    +0.170 A 
ATOM      3  C   LIG    1       -0.017   1.383   0.010  0.00  0.00    -0.030 A 
ATOM      4  C   LIG    1        1.192   2.062   0.002  0.00  0.00    +0.180 A 
ATOM      5  N   LIG    1        2.320   1.373  -0.012  0.00  0.00    -0.510 NA
ATOM      6  C   LIG    1        2.303   0.046  -0.020  0.00  0.00    +0.370 A 
ATOM      7  C   LIG    1        1.220   3.569   0.009  0.00  0.00    +0.140 C 
ATOM      8  N   LIG    1        1.165  -0.633  -0.013  0.00  0.00    -0.510 NA
BRANCH   6   9
ATOM      9  C   LIG    1        3.588  -0.694  -0.036  0.00  0.00    -0.050 A 
ATOM     10  C   LIG    1        3.593  -2.087  -0.038  0.00  0.00    +0.070 A 
ATOM     11  C   LIG    1        4.791  -2.771  -0.057  0.00  0.00    +0.000 A 
ATOM     12  C   LIG    1        5.987  -2.075  -0.065  0.00  0.00    +0.030 A 
ATOM     13  C   LIG    1        5.989  -0.692  -0.058  0.00  0.00    +0.000 A 
ATOM     14  C   LIG    1        4.796   0.002  -0.044  0.00  0.00    +0.070 A 
ENDBRANCH   6   9
ENDBRANCH   1   2
BRANCH   1  15
ATOM     15  O   LIG    1       -2.392   0.122   0.026  0.00  0.00    -0.280 OA
BRANCH  15  21
ATOM     16  C   LIG    1       -4.766   0.405   0.057  0.00  0.00    -0.170 A 
ATOM     17  C   LIG    1       -6.040  -0.167   0.061  0.00  0.00    +0.080 A 
ATOM     18  C   LIG    1       -6.177  -1.538   0.056  0.00  0.00    -0.030 A 
ATOM     19  C   LIG    1       -5.057  -2.353   0.041  0.00  0.00    +0.080 A 
ATOM     20  C   LIG    1       -3.792  -1.800   0.030  0.00  0.00    -0.080 A 
ATOM     21  C   LIG    1       -3.635  -0.422   0.036  0.00  0.00    +0.190 A 
BRANCH  16  24
ATOM     22  N   LIG    1       -5.701   2.665   0.090  0.00  0.00    -0.730 N 
ATOM     23  H   LIG    1       -6.587   2.270   0.097  0.00  0.00    +0.400 HD
ATOM     24  C   LIG    1       -4.611   1.873   0.069  0.00  0.00    +0.560 C 
ATOM     25  O   LIG    1       -3.500   2.367   0.061  0.00  0.00    -0.520 OA
BRANCH  22  27
ATOM     26  C   LIG    1       -6.929   4.780   0.125  0.00  0.00    +0.030 C 
ATOM     27  C   LIG    1       -5.548   4.122   0.102  0.00  0.00    +0.260 C 
ENDBRANCH  22  27
ENDBRANCH  16  24
ENDBRANCH  15  21
ENDBRANCH   1  15
TORSDOF 6
