REMARK  Name = ZINCvU0000000HCD.0
REMARK                            x       y       z     vdW  Elec       q    Type
REMARK                         _______ _______ _______ _____ _____    ______ ____
ROOT
ATOM      1  C   LIG    1       -1.884  -1.415  -0.447  0.00  0.00    +0.220 A 
ATOM      2  C   LIG    1       -0.728  -1.193   0.289  0.00  0.00    -0.010 A 
ATOM      3  C   LIG    1        0.323  -2.086   0.209  0.00  0.00    +0.110 A 
ATOM      4  C   LIG    1        0.224  -3.203  -0.609  0.00  0.00    +0.130 A 
ATOM      5  C   LIG    1       -0.932  -3.425  -1.345  0.00  0.00    +0.080 A 
ATOM      6  C   LIG    1       -1.986  -2.536  -1.260  0.00  0.00    -0.190 A 
ENDROOT
BRANCH   4   7
ATOM      7  N   LIG    1        1.291  -4.108  -0.691  0.00  0.00    -0.670 N 
ATOM      8  H   LIG    1        1.479  -4.562  -1.527  0.00  0.00    +0.420 HD
ATOM      9  C   LIG    1        2.056  -4.348   0.393  0.00  0.00    +0.550 C 
ATOM     10  O   LIG    1        1.766  -3.854   1.462  0.00  0.00    -0.520 OA
BRANCH   9  11
ATOM     11  C   LIG    1        3.273  -5.229   0.276  0.00  0.00    -0.070 C 
ATOM     12  C   LIG    1        3.231  -6.588   0.977  0.00  0.00    +0.060 C 
ATOM     13  C   LIG    1        4.101  -5.462   1.541  0.00  0.00    +0.080 C 
ENDBRANCH   9  11
ENDBRANCH   4   7
BRANCH   6  14
ATOM     14  C   LIG    1       -3.243  -2.780  -2.054  0.00  0.00    +0.510 C 
ATOM     15  F   LIG    1       -3.458  -1.709  -2.928  0.00  0.00    -0.170 F 
ATOM     16  F   LIG    1       -4.330  -2.896  -1.181  0.00  0.00    -0.180 F 
ATOM     17  F   LIG    1       -3.108  -3.962  -2.790  0.00  0.00    -0.170 F 
ENDBRANCH   6  14
BRANCH   1  18
ATOM     18  N   LIG    1       -2.949  -0.511  -0.366  0.00  0.00    -1.060 N 
ATOM     19  H   LIG    1       -3.857  -0.816  -0.520  0.00  0.00    +0.430 HD
BRANCH  18  20
ATOM     20  S   LIG    1       -2.660   1.079  -0.006  0.00  0.00    +2.680 S 
ATOM     21  O   LIG    1       -1.568   1.483  -0.822  0.00  0.00    -0.930 OA
ATOM     22  O   LIG    1       -3.923   1.730  -0.020  0.00  0.00    -0.940 OA
BRANCH  20  27
ATOM     23  C   LIG    1       -0.693   1.281   5.695  0.00  0.00    +0.110 C 
ATOM     24  C   LIG    1       -1.185   1.234   4.271  0.00  0.00    -0.020 A 
ATOM     25  C   LIG    1       -2.484   0.843   4.001  0.00  0.00    -0.110 A 
ATOM     26  C   LIG    1       -2.935   0.799   2.695  0.00  0.00    +0.020 A 
ATOM     27  C   LIG    1       -2.087   1.142   1.659  0.00  0.00    -0.690 A 
ATOM     28  C   LIG    1       -0.790   1.538   1.929  0.00  0.00    +0.020 A 
ATOM     29  C   LIG    1        0.133   1.916   0.800  0.00  0.00    +0.120 C 
ATOM     30  C   LIG    1       -4.350   0.373   2.401  0.00  0.00    +0.110 C 
ATOM     31  C   LIG    1       -3.407   0.464   5.130  0.00  0.00    +0.090 C 
ATOM     32  C   LIG    1       -0.339   1.581   3.235  0.00  0.00    -0.110 A 
ATOM     33  C   LIG    1        1.076   2.008   3.530  0.00  0.00    +0.110 C 
ENDBRANCH  20  27
ENDBRANCH  18  20
ENDBRANCH   1  18
TORSDOF 6
