REMARK  Name = ZINCpe000000YU1Q.0
REMARK                            x       y       z     vdW  Elec       q    Type
REMARK                         _______ _______ _______ _____ _____    ______ ____
ROOT
ATOM      1  O   LIG    1       -1.736   2.268  -1.088  0.00  0.00    -0.520 OA
ATOM      2  C   LIG    1       -0.742   1.585  -1.213  0.00  0.00    +0.520 C 
ATOM      3  N   LIG    1       -0.288   1.272  -2.443  0.00  0.00    -0.620 N 
ATOM      4  C   LIG    1        0.919   0.450  -2.616  0.00  0.00    +0.280 C 
ATOM      5  C   LIG    1        0.584  -0.702  -3.577  0.00  0.00    +0.180 C 
ATOM      6  N   LIG    1        0.025  -0.150  -4.819  0.00  0.00    -0.530 NA
ATOM      7  C   LIG    1       -1.242   0.551  -4.568  0.00  0.00    +0.190 C 
ATOM      8  C   LIG    1       -0.985   1.749  -3.648  0.00  0.00    +0.300 C 
ENDROOT
BRANCH   6   9
ATOM      9  C   LIG    1       -0.147  -1.201  -5.831  0.00  0.00    +0.340 C 
BRANCH   9  10
ATOM     10  C   LIG    1        1.095  -2.053  -5.886  0.00  0.00    +0.250 A 
ATOM     11  N   LIG    1        1.295  -3.120  -5.171  0.00  0.00    -0.470 NA
ATOM     12  C   LIG    1        2.517  -3.632  -5.480  0.00  0.00    +0.020 A 
ATOM     13  C   LIG    1        3.240  -4.740  -5.037  0.00  0.00    +0.080 A 
ATOM     14  C   LIG    1        4.488  -4.994  -5.561  0.00  0.00    +0.020 A 
ATOM     15  C   LIG    1        5.030  -4.157  -6.525  0.00  0.00    +0.050 A 
ATOM     16  C   LIG    1        4.326  -3.058  -6.972  0.00  0.00    +0.050 A 
ATOM     17  C   LIG    1        3.068  -2.787  -6.456  0.00  0.00    +0.010 A 
ATOM     18  O   LIG    1        2.150  -1.822  -6.683  0.00  0.00    -0.200 OA
ENDBRANCH   9  10
ENDBRANCH   6   9
BRANCH   2  19
ATOM     19  C   LIG    1       -0.013   1.086   0.008  0.00  0.00    +0.220 C 
BRANCH  19  20
ATOM     20  N   LIG    1       -0.700   1.560   1.217  0.00  0.00    -0.520 NA
ATOM     21  C   LIG    1       -0.608   3.022   1.336  0.00  0.00    +0.150 C 
ATOM     22  C   LIG    1       -1.387   3.478   2.573  0.00  0.00    +0.230 C 
ATOM     23  O   LIG    1       -0.873   2.807   3.727  0.00  0.00    -0.390 OA
ATOM     24  C   LIG    1       -0.948   1.381   3.645  0.00  0.00    +0.220 C 
ATOM     25  C   LIG    1       -0.165   0.904   2.419  0.00  0.00    +0.160 C 
ENDBRANCH  19  20
ENDBRANCH   2  19
TORSDOF 4
