REMARK  Name = ZINCrD0000075EbJ.0
REMARK                            x       y       z     vdW  Elec       q    Type
REMARK                         _______ _______ _______ _____ _____    ______ ____
ROOT
ATOM      1  O   LIG    1        1.540   6.200   0.364  0.00  0.00    -0.530 OA
ATOM      2  C   LIG    1        2.498   5.652  -0.137  0.00  0.00    +0.520 C 
ATOM      3  N   LIG    1        3.604   6.364  -0.432  0.00  0.00    -0.730 N 
ATOM      4  H   LIG    1        4.371   5.925  -0.833  0.00  0.00    +0.400 HD
ENDROOT
BRANCH   2   5
ATOM      5  C   LIG    1        2.453   4.174  -0.431  0.00  0.00    -0.040 C 
ATOM      6  C   LIG    1        3.567   3.459   0.343  0.00  0.00    +0.250 C 
ATOM      7  O   LIG    1        3.565   2.081  -0.034  0.00  0.00    -0.310 OA
ATOM      8  C   LIG    1        2.379   1.420  -0.017  0.00  0.00    +0.120 A 
ATOM      9  C   LIG    1        2.394   0.029  -0.024  0.00  0.00    -0.020 A 
ATOM     10  C   LIG    1        1.209  -0.679  -0.013  0.00  0.00    +0.040 A 
ATOM     11  C   LIG    1        0.002  -0.004   0.002  0.00  0.00    -0.020 A 
ATOM     12  C   LIG    1       -0.017   1.377   0.010  0.00  0.00    +0.050 A 
ATOM     13  C   LIG    1        1.169   2.092   0.002  0.00  0.00    -0.160 A 
ATOM     14  C   LIG    1        1.108   3.599   0.019  0.00  0.00    +0.120 C 
ENDBRANCH   2   5
BRANCH   3  15
ATOM     15  C   LIG    1        3.648   7.800  -0.146  0.00  0.00    +0.330 C 
BRANCH  15  16
ATOM     16  C   LIG    1        4.985   8.355  -0.566  0.00  0.00    -0.200 A 
ATOM     17  C   LIG    1        5.168   8.844  -1.853  0.00  0.00    +0.110 A 
ATOM     18  C   LIG    1        6.410   9.344  -2.198  0.00  0.00    -0.050 A 
ATOM     19  C   LIG    1        7.428   9.341  -1.250  0.00  0.00    +0.330 A 
ATOM     20  N   LIG    1        7.214   8.866  -0.033  0.00  0.00    -0.520 NA
ATOM     21  C   LIG    1        6.038   8.388   0.326  0.00  0.00    +0.310 A 
BRANCH  19  22
ATOM     22  N   LIG    1        8.682   9.842  -1.583  0.00  0.00    -0.490 N 
ATOM     23  C   LIG    1        9.180   9.232  -2.836  0.00  0.00    +0.200 C 
ATOM     24  C   LIG    1       10.632   9.531  -3.094  0.00  0.00    +0.040 C 
ATOM     25  C   LIG    1       11.479   8.375  -2.522  0.00  0.00    +0.000 C 
ATOM     26  C   LIG    1       11.634   8.469  -1.075  0.00  0.00    +0.000 C 
ATOM     27  C   LIG    1       10.280   8.400  -0.338  0.00  0.00    +0.000 C 
ATOM     28  C   LIG    1        9.613   9.745  -0.437  0.00  0.00    +0.230 C 
ENDBRANCH  19  22
ENDBRANCH  15  16
ENDBRANCH   3  15
TORSDOF 4
