REMARK  Name = ZINCqH0000001mWt.0
REMARK                            x       y       z     vdW  Elec       q    Type
REMARK                         _______ _______ _______ _____ _____    ______ ____
ROOT
ATOM      1  N   LIG    1       -1.019   2.317   1.427  0.00  0.00    -1.120 NA
ATOM      2  H   LIG    1       -1.817   2.854   1.552  0.00  0.00    +0.420 HD
ENDROOT
BRANCH   1   3
ATOM      3  S   LIG    1       -0.603   1.792  -0.088  0.00  0.00    +2.700 S 
ATOM      4  O   LIG    1       -1.618   2.259  -0.967  0.00  0.00    -0.960 OA
ATOM      5  O   LIG    1        0.773   2.102  -0.256  0.00  0.00    -0.950 OA
BRANCH   3   9
ATOM      6  C   LIG    1       -0.903  -2.724  -0.071  0.00  0.00    -0.020 A 
ATOM      7  C   LIG    1       -2.002  -1.960  -0.414  0.00  0.00    -0.010 A 
ATOM      8  C   LIG    1       -1.911  -0.581  -0.419  0.00  0.00    +0.120 A 
ATOM      9  C   LIG    1       -0.720   0.034  -0.081  0.00  0.00    -0.680 A 
ATOM     10  C   LIG    1        0.381  -0.730   0.257  0.00  0.00    +0.120 A 
ATOM     11  C   LIG    1        0.288  -2.110   0.266  0.00  0.00    -0.010 A 
BRANCH   6  12
ATOM     12  C   LIG    1       -1.003  -4.228  -0.066  0.00  0.00    +0.070 C 
BRANCH  12  14
ATOM     13  C   LIG    1       -0.608  -6.299  -1.407  0.00  0.00    +0.030 C 
ATOM     14  C   LIG    1       -0.627  -4.769  -1.446  0.00  0.00    -0.020 C 
ATOM     15  C   LIG    1       -1.657  -4.299  -2.476  0.00  0.00    +0.030 C 
ENDBRANCH  12  14
ENDBRANCH   6  12
ENDBRANCH   3   9
ENDBRANCH   1   3
BRANCH   1  16
ATOM     16  C   LIG    1       -0.182   1.970   2.578  0.00  0.00    +0.270 C 
BRANCH  16  17
ATOM     17  C   LIG    1       -0.531   2.882   3.755  0.00  0.00    +0.040 C 
BRANCH  17  18
ATOM     18  C   LIG    1        0.235   2.442   4.976  0.00  0.00    -0.060 A 
ATOM     19  C   LIG    1        1.618   2.427   4.956  0.00  0.00    +0.000 A 
ATOM     20  C   LIG    1        2.321   2.028   6.077  0.00  0.00    +0.000 A 
ATOM     21  C   LIG    1        1.641   1.634   7.215  0.00  0.00    +0.000 A 
ATOM     22  C   LIG    1        0.259   1.644   7.233  0.00  0.00    +0.010 A 
ATOM     23  C   LIG    1       -0.444   2.047   6.114  0.00  0.00    +0.020 A 
ENDBRANCH  17  18
BRANCH  17  24
ATOM     24  C   LIG    1       -0.156   4.325   3.411  0.00  0.00    +0.000 C 
BRANCH  24  25
ATOM     25  C   LIG    1       -0.644   5.258   4.521  0.00  0.00    +0.200 C 
ATOM     26  C   LIG    1       -0.393   6.711   4.114  0.00  0.00    -0.010 C 
BRANCH  25  27
ATOM     27  O   LIG    1        0.066   4.973   5.729  0.00  0.00    -0.550 OA
ATOM     28  H   LIG    1        1.023   5.088   5.659  0.00  0.00    +0.370 HD
ENDBRANCH  25  27
ENDBRANCH  24  25
ENDBRANCH  17  24
ENDBRANCH  16  17
ENDBRANCH   1  16
TORSDOF 10
