REMARK  Name = ZINCqH0000051Fmk.0
REMARK                            x       y       z     vdW  Elec       q    Type
REMARK                         _______ _______ _______ _____ _____    ______ ____
ROOT
ATOM      1  C   LIG    1        2.894   1.093   1.436  0.00  0.00    +0.460 C 
ATOM      2  O   LIG    1        2.180   1.440   2.347  0.00  0.00    -0.490 OA
ENDROOT
BRANCH   1   6
ATOM      3  O   LIG    1        1.156  -1.881  -0.192  0.00  0.00    -0.510 OA
ATOM      4  C   LIG    1        1.130  -0.673  -0.295  0.00  0.00    +0.520 C 
ATOM      5  C   LIG    1        2.360   0.064  -0.754  0.00  0.00    +0.120 C 
ATOM      6  C   LIG    1        2.492   1.380   0.012  0.00  0.00    +0.110 C 
ATOM      7  C   LIG    1        1.173   2.109   0.002  0.00  0.00    -0.120 A 
ATOM      8  C   LIG    1        1.147   3.489  -0.008  0.00  0.00    +0.070 A 
ATOM      9  C   LIG    1       -0.062   4.160   0.001  0.00  0.00    -0.010 A 
ATOM     10  C   LIG    1       -1.249   3.451   0.018  0.00  0.00    +0.050 A 
ATOM     11  C   LIG    1       -1.230   2.070   0.019  0.00  0.00    -0.020 A 
ATOM     12  C   LIG    1       -0.017   1.393   0.010  0.00  0.00    +0.180 A 
ATOM     13  N   LIG    1        0.002  -0.004   0.002  0.00  0.00    -0.660 N 
ATOM     14  H   LIG    1       -0.807  -0.496   0.213  0.00  0.00    +0.410 HD
ENDBRANCH   1   6
BRANCH   1  15
ATOM     15  O   LIG    1        4.044   0.451   1.692  0.00  0.00    -0.330 OA
BRANCH  15  16
ATOM     16  C   LIG    1        4.367   0.208   3.087  0.00  0.00    +0.240 C 
BRANCH  16  17
ATOM     17  C   LIG    1        5.685  -0.518   3.179  0.00  0.00    +0.420 C 
ATOM     18  O   LIG    1        6.293  -0.802   2.167  0.00  0.00    -0.420 OA
BRANCH  17  19
ATOM     19  C   LIG    1        6.214  -0.867   4.444  0.00  0.00    -0.180 A 
ATOM     20  C   LIG    1        5.594  -0.577   5.613  0.00  0.00    +0.010 A 
ATOM     21  S   LIG    1        6.476  -1.129   6.958  0.00  0.00    +0.210 S 
ATOM     22  C   LIG    1        7.766  -1.789   5.963  0.00  0.00    -0.170 A 
ATOM     23  C   LIG    1        8.943  -2.449   6.329  0.00  0.00    +0.050 A 
ATOM     24  C   LIG    1        9.823  -2.885   5.366  0.00  0.00    +0.030 A 
ATOM     25  C   LIG    1        9.550  -2.672   4.023  0.00  0.00    +0.020 A 
ATOM     26  C   LIG    1        8.399  -2.025   3.645  0.00  0.00    +0.060 A 
ATOM     27  C   LIG    1        7.487  -1.572   4.615  0.00  0.00    -0.040 A 
ENDBRANCH  17  19
ENDBRANCH  16  17
ENDBRANCH  15  16
ENDBRANCH   1  15
TORSDOF 5
