REMARK  Name = ZINCtV000002vVaf.0
REMARK                            x       y       z     vdW  Elec       q    Type
REMARK                         _______ _______ _______ _____ _____    ______ ____
ROOT
ATOM      1  C   LIG    1        0.415   3.702  -0.033  0.00  0.00    +0.290 C 
ENDROOT
BRANCH   1   2
ATOM      2  C   LIG    1        0.906   4.996  -0.630  0.00  0.00    -0.080 A 
ATOM      3  C   LIG    1        2.042   5.601  -0.126  0.00  0.00    +0.030 A 
ATOM      4  C   LIG    1        2.497   6.785  -0.674  0.00  0.00    +0.000 A 
ATOM      5  C   LIG    1        1.807   7.371  -1.725  0.00  0.00    +0.080 A 
ATOM      6  C   LIG    1        0.664   6.764  -2.226  0.00  0.00    +0.010 A 
ATOM      7  C   LIG    1        0.216   5.578  -1.677  0.00  0.00    +0.040 A 
BRANCH   5   8
ATOM      8  O   LIG    1        2.249   8.538  -2.264  0.00  0.00    -0.260 OA
BRANCH   8   9
ATOM      9  C   LIG    1        3.309   8.487  -3.112  0.00  0.00    +0.120 A 
ATOM     10  C   LIG    1        3.839   7.262  -3.490  0.00  0.00    -0.060 A 
ATOM     11  C   LIG    1        4.914   7.213  -4.357  0.00  0.00    +0.050 A 
ATOM     12  C   LIG    1        5.468   8.384  -4.840  0.00  0.00    -0.020 A 
ATOM     13  C   LIG    1        4.944   9.607  -4.461  0.00  0.00    +0.050 A 
ATOM     14  C   LIG    1        3.867   9.661  -3.599  0.00  0.00    -0.020 A 
ENDBRANCH   8   9
ENDBRANCH   5   8
ENDBRANCH   1   2
BRANCH   1  15
ATOM     15  N   LIG    1        1.558   2.837   0.265  0.00  0.00    -0.740 N 
ATOM     16  H   LIG    1        2.433   3.225   0.423  0.00  0.00    +0.390 HD
BRANCH  15  17
ATOM     17  C   LIG    1        1.388   1.440   0.321  0.00  0.00    +0.070 A 
ATOM     18  C   LIG    1        2.357   0.527   0.585  0.00  0.00    +0.010 A 
ATOM     19  N   LIG    1        1.782  -0.704   0.545  0.00  0.00    -0.360 N 
ATOM     20  N   LIG    1        0.424  -0.535   0.248  0.00  0.00    -0.270 NA
ATOM     21  C   LIG    1        0.188   0.746   0.114  0.00  0.00    +0.190 A 
BRANCH  18  22
ATOM     22  C   LIG    1        3.807   0.825   0.871  0.00  0.00    +0.100 C 
ATOM     23  C   LIG    1        4.572   0.947  -0.449  0.00  0.00    +0.020 C 
ENDBRANCH  18  22
BRANCH  19  24
ATOM     24  C   LIG    1        2.463  -1.982   0.773  0.00  0.00    +0.320 C 
BRANCH  24  25
ATOM     25  C   LIG    1        2.510  -2.274   2.274  0.00  0.00    -0.040 C 
ATOM     26  C   LIG    1        3.332  -3.541   2.521  0.00  0.00    +0.030 C 
ATOM     27  C   LIG    1        1.088  -2.479   2.798  0.00  0.00    +0.020 C 
ENDBRANCH  24  25
ENDBRANCH  19  24
ENDBRANCH  15  17
ENDBRANCH   1  15
BRANCH   1  28
ATOM     28  C   LIG    1       -0.353   3.995   1.258  0.00  0.00    +0.010 C 
BRANCH  28  30
ATOM     29  C   LIG    1       -1.724   2.991   3.089  0.00  0.00    +0.000 C 
ATOM     30  C   LIG    1       -0.957   2.698   1.798  0.00  0.00    +0.000 C 
ENDBRANCH  28  30
ENDBRANCH   1  28
TORSDOF 10
