REMARK  Name = ZINCnE000001E5nx.0
REMARK                            x       y       z     vdW  Elec       q    Type
REMARK                         _______ _______ _______ _____ _____    ______ ____
ROOT
ATOM      1  S   LIG    1        1.406   2.241   0.001  0.00  0.00    +2.610 S 
ATOM      2  O   LIG    1        2.017   1.985  -1.256  0.00  0.00    -1.020 OA
ATOM      3  O   LIG    1        2.041   1.972   1.243  0.00  0.00    -1.020 OA
ENDROOT
BRANCH   1   7
ATOM      4  C   LIG    1        0.345   6.641   0.034  0.00  0.00    -0.040 A 
ATOM      5  C   LIG    1        0.518   5.963   1.226  0.00  0.00    -0.010 A 
ATOM      6  C   LIG    1        0.842   4.619   1.216  0.00  0.00    +0.120 A 
ATOM      7  C   LIG    1        0.993   3.953   0.014  0.00  0.00    -0.620 A 
ATOM      8  C   LIG    1        0.825   4.633  -1.178  0.00  0.00    +0.120 A 
ATOM      9  C   LIG    1        0.496   5.976  -1.168  0.00  0.00    -0.010 A 
BRANCH   4  11
ATOM     10  C   LIG    1        1.081   8.898  -0.682  0.00  0.00    +0.040 C 
ATOM     11  C   LIG    1       -0.007   8.106   0.046  0.00  0.00    +0.020 C 
ATOM     12  C   LIG    1       -1.348   8.314  -0.662  0.00  0.00    +0.040 C 
ENDBRANCH   4  11
ENDBRANCH   1   7
BRANCH   1  13
ATOM     13  N   LIG    1       -0.017   1.393   0.010  0.00  0.00    -1.060 NA
BRANCH  13  14
ATOM     14  C   LIG    1        0.002  -0.004   0.002  0.00  0.00    +0.220 A 
ATOM     15  C   LIG    1        1.207  -0.702  -0.019  0.00  0.00    +0.140 A 
ATOM     16  N   LIG    1        1.182  -2.025  -0.020  0.00  0.00    -0.430 NA
ATOM     17  C   LIG    1        0.038  -2.680  -0.013  0.00  0.00    +0.090 A 
ATOM     18  N   LIG    1       -1.123  -2.056   0.002  0.00  0.00    -0.440 NA
ATOM     19  C   LIG    1       -1.183  -0.735   0.009  0.00  0.00    +0.250 A 
BRANCH  17  20
ATOM     20  C   LIG    1        0.059  -4.187  -0.020  0.00  0.00    +0.560 C 
ATOM     21  F   LIG    1       -1.205  -4.672   0.331  0.00  0.00    -0.170 F 
ATOM     22  F   LIG    1        1.007  -4.645   0.901  0.00  0.00    -0.170 F 
ATOM     23  F   LIG    1        0.394  -4.642  -1.300  0.00  0.00    -0.180 F 
ENDBRANCH  17  20
ENDBRANCH  13  14
ENDBRANCH   1  13
TORSDOF 5
