REMARK  Name = ZINCrH000004tPIQ.0
REMARK                            x       y       z     vdW  Elec       q    Type
REMARK                         _______ _______ _______ _____ _____    ______ ____
ROOT
ATOM      1  O   LIG    1        1.306   2.898  -0.103  0.00  0.00    -0.490 OA
ATOM      2  C   LIG    1        1.249   1.691   0.004  0.00  0.00    +0.520 C 
ATOM      3  N   LIG    1        0.052   1.072   0.026  0.00  0.00    -0.670 N 
ATOM      4  H   LIG    1        0.007   0.103   0.047  0.00  0.00    +0.410 HD
ENDROOT
BRANCH   3   5
ATOM      5  C   LIG    1       -1.126   1.827   0.012  0.00  0.00    +0.140 A 
ATOM      6  C   LIG    1       -1.176   3.012  -0.704  0.00  0.00    +0.020 A 
ATOM      7  C   LIG    1       -2.341   3.755  -0.717  0.00  0.00    +0.030 A 
ATOM      8  C   LIG    1       -3.444   3.314  -0.016  0.00  0.00    -0.010 A 
ATOM      9  C   LIG    1       -3.398   2.128   0.706  0.00  0.00    -0.060 A 
ATOM     10  C   LIG    1       -4.636   1.718   1.460  0.00  0.00    +0.080 C 
ATOM     11  C   LIG    1       -4.582   0.229   1.810  0.00  0.00    +0.020 C 
ATOM     12  C   LIG    1       -3.241  -0.051   2.498  0.00  0.00    +0.020 C 
ATOM     13  C   LIG    1       -2.131   0.073   1.457  0.00  0.00    +0.070 C 
ATOM     14  C   LIG    1       -2.245   1.379   0.714  0.00  0.00    -0.100 A 
ENDBRANCH   3   5
BRANCH   2  15
ATOM     15  C   LIG    1        2.517   0.883   0.113  0.00  0.00    +0.240 C 
BRANCH  15  16
ATOM     16  O   LIG    1        3.645   1.759   0.066  0.00  0.00    -0.290 OA
BRANCH  16  17
ATOM     17  C   LIG    1        4.875   1.187   0.152  0.00  0.00    +0.100 A 
ATOM     18  C   LIG    1        4.992  -0.189   0.285  0.00  0.00    -0.050 A 
ATOM     19  C   LIG    1        6.241  -0.772   0.368  0.00  0.00    +0.040 A 
ATOM     20  C   LIG    1        7.380   0.021   0.330  0.00  0.00    +0.130 A 
ATOM     21  C   LIG    1        7.263   1.398   0.202  0.00  0.00    +0.010 A 
ATOM     22  C   LIG    1        6.013   1.979   0.113  0.00  0.00    +0.020 A 
BRANCH  20  23
ATOM     23  N   LIG    1        8.648  -0.569   0.420  0.00  0.00    -0.560 N 
ATOM     24  C   LIG    1        9.906   0.181   0.505  0.00  0.00    +0.260 C 
ATOM     25  C   LIG    1       11.016  -0.834   0.149  0.00  0.00    +0.060 C 
ATOM     26  C   LIG    1       10.351  -2.175   0.535  0.00  0.00    +0.070 C 
ATOM     27  C   LIG    1        8.867  -1.895   0.446  0.00  0.00    +0.510 C 
ATOM     28  O   LIG    1        8.001  -2.744   0.403  0.00  0.00    -0.510 OA
ENDBRANCH  20  23
ENDBRANCH  16  17
ENDBRANCH  15  16
ENDBRANCH   2  15
TORSDOF 5
