REMARK  Name = ZINCvU0000000Ev2.0
REMARK                            x       y       z     vdW  Elec       q    Type
REMARK                         _______ _______ _______ _____ _____    ______ ____
ROOT
ATOM      1  C   LIG    1       -3.711  -1.063  -0.202  0.00  0.00    +0.260 C 
ENDROOT
BRANCH   1   2
ATOM      2  C   LIG    1       -4.399  -0.695  -1.491  0.00  0.00    -0.130 A 
ATOM      3  C   LIG    1       -4.064  -1.346  -2.663  0.00  0.00    +0.040 A 
ATOM      4  C   LIG    1       -4.699  -1.012  -3.845  0.00  0.00    +0.010 A 
ATOM      5  C   LIG    1       -5.662  -0.020  -3.856  0.00  0.00    +0.030 A 
ATOM      6  C   LIG    1       -5.993   0.635  -2.684  0.00  0.00    +0.020 A 
ATOM      7  C   LIG    1       -5.362   0.297  -1.502  0.00  0.00    +0.030 A 
ENDBRANCH   1   2
BRANCH   1   8
ATOM      8  C   LIG    1       -2.414  -0.303  -0.090  0.00  0.00    +0.530 C 
ATOM      9  N   LIG    1       -2.428   1.040   0.019  0.00  0.00    -0.660 N 
ATOM     10  H   LIG    1       -3.271   1.511   0.107  0.00  0.00    +0.420 HD
ATOM     11  O   LIG    1       -1.359  -0.901  -0.098  0.00  0.00    -0.470 OA
BRANCH   9  12
ATOM     12  C   LIG    1       -1.224   1.755   0.006  0.00  0.00    +0.240 A 
ATOM     13  C   LIG    1       -0.102   1.218  -0.610  0.00  0.00    +0.050 A 
ATOM     14  C   LIG    1        1.082   1.928  -0.626  0.00  0.00    +0.160 A 
ATOM     15  C   LIG    1        1.153   3.171  -0.025  0.00  0.00    -0.060 A 
ATOM     16  C   LIG    1        0.039   3.708   0.595  0.00  0.00    +0.170 A 
ATOM     17  C   LIG    1       -1.149   3.002   0.615  0.00  0.00    -0.140 A 
ATOM     18 BR   LIG    1       -2.672   3.736   1.462  0.00  0.00    -0.000 Br
BRANCH  15  19
ATOM     19  N   LIG    1        2.424   3.930  -0.044  0.00  0.00    +0.030 N 
ATOM     20  O   LIG    1        2.488   5.025   0.485  0.00  0.00    -0.150 OA
ATOM     21  O   LIG    1        3.406   3.459  -0.590  0.00  0.00    -0.150 OA
ENDBRANCH  15  19
ENDBRANCH   9  12
ENDBRANCH   1   8
BRANCH   1  22
ATOM     22  O   LIG    1       -3.439  -2.489  -0.188  0.00  0.00    -0.320 OA
BRANCH  22  24
ATOM     23  O   LIG    1       -5.422  -2.807   0.760  0.00  0.00    -0.480 OA
ATOM     24  C   LIG    1       -4.392  -3.288   0.331  0.00  0.00    +0.510 C 
BRANCH  24  25
ATOM     25  C   LIG    1       -4.185  -4.747   0.378  0.00  0.00    -0.180 A 
ATOM     26  C   LIG    1       -3.004  -5.305  -0.120  0.00  0.00    +0.160 A 
ATOM     27  C   LIG    1       -2.814  -6.668  -0.068  0.00  0.00    -0.020 A 
ATOM     28  C   LIG    1       -3.795  -7.490   0.466  0.00  0.00    +0.180 A 
ATOM     29  C   LIG    1       -4.971  -6.947   0.957  0.00  0.00    -0.050 A 
ATOM     30  F   LIG    1       -3.603  -8.827   0.509  0.00  0.00    -0.120 F 
ATOM     31  C   LIG    1       -5.173  -5.581   0.916  0.00  0.00    +0.200 A 
ATOM     32  F   LIG    1       -6.320  -5.050   1.395  0.00  0.00    -0.100 F 
ENDBRANCH  24  25
ENDBRANCH  22  24
ENDBRANCH   1  22
TORSDOF 7
