REMARK  Name = ZINCrg00000fRiQ5.0
REMARK                            x       y       z     vdW  Elec       q    Type
REMARK                         _______ _______ _______ _____ _____    ______ ____
ROOT
ATOM      1  C   LIG    1        2.840  -6.548   0.223  0.00  0.00    -0.660 A 
ATOM      2  C   LIG    1        1.551  -7.047   0.226  0.00  0.00    +0.110 A 
ATOM      3  C   LIG    1        0.472  -6.186   0.141  0.00  0.00    +0.020 A 
ATOM      4  C   LIG    1        0.679  -4.823   0.060  0.00  0.00    +0.070 A 
ATOM      5  C   LIG    1        1.973  -4.318   0.053  0.00  0.00    +0.130 A 
ATOM      6  C   LIG    1        3.054  -5.186   0.137  0.00  0.00    +0.090 A 
ENDROOT
BRANCH   5   7
ATOM      7  N   LIG    1        2.187  -2.938  -0.035  0.00  0.00    -0.670 N 
ATOM      8  H   LIG    1        2.944  -2.535   0.418  0.00  0.00    +0.420 HD
ATOM      9  C   LIG    1        1.340  -2.169  -0.747  0.00  0.00    +0.520 C 
ATOM     10  O   LIG    1        0.449  -2.683  -1.391  0.00  0.00    -0.490 OA
BRANCH   9  11
ATOM     11  C   LIG    1        1.500  -0.671  -0.745  0.00  0.00    +0.270 C 
BRANCH  11  12
ATOM     12  O   LIG    1        0.490  -0.083  -1.568  0.00  0.00    -0.330 OA
BRANCH  12  13
ATOM     13  C   LIG    1        0.493   1.263  -1.674  0.00  0.00    +0.530 C 
ATOM     14  O   LIG    1        1.331   1.918  -1.082  0.00  0.00    -0.490 OA
BRANCH  13  15
ATOM     15  C   LIG    1       -0.506   1.933  -2.504  0.00  0.00    -0.080 C 
ATOM     16  C   LIG    1       -1.419   1.195  -3.153  0.00  0.00    +0.270 C 
ATOM     17  O   LIG    1       -2.359   1.762  -3.938  0.00  0.00    -0.290 OA
ATOM     18  C   LIG    1       -2.589   3.164  -3.760  0.00  0.00    +0.230 C 
ATOM     19  C   LIG    1       -1.225   3.866  -3.686  0.00  0.00    +0.230 C 
ATOM     20  O   LIG    1       -0.493   3.292  -2.595  0.00  0.00    -0.290 OA
ENDBRANCH  13  15
ENDBRANCH  12  13
ENDBRANCH  11  12
ENDBRANCH   9  11
ENDBRANCH   5   7
BRANCH   1  21
ATOM     21  S   LIG    1        4.211  -7.649   0.331  0.00  0.00    +2.690 S 
ATOM     22  O   LIG    1        5.321  -6.965  -0.233  0.00  0.00    -0.950 OA
ATOM     23  O   LIG    1        3.752  -8.908  -0.142  0.00  0.00    -0.950 OA
BRANCH  21  24
ATOM     24  N   LIG    1        4.553  -7.850   1.939  0.00  0.00    -1.000 NA
BRANCH  24  26
ATOM     25  C   LIG    1        4.824 -10.150   2.723  0.00  0.00    +0.010 C 
ATOM     26  C   LIG    1        3.909  -8.925   2.696  0.00  0.00    +0.280 C 
ENDBRANCH  24  26
BRANCH  24  27
ATOM     27  C   LIG    1        5.501  -6.952   2.603  0.00  0.00    +0.290 C 
ATOM     28  C   LIG    1        4.736  -5.815   3.283  0.00  0.00    +0.000 C 
ENDBRANCH  24  27
ENDBRANCH  21  24
ENDBRANCH   1  21
TORSDOF 9
