REMARK  Name = ZINCpe000000Wp6O.0
REMARK                            x       y       z     vdW  Elec       q    Type
REMARK                         _______ _______ _______ _____ _____    ______ ____
ROOT
ATOM      1  N   LIG    1       -0.735   0.530   0.983  0.00  0.00    -0.610 N 
ATOM      2  C   LIG    1       -0.211  -0.840   0.924  0.00  0.00    +0.300 C 
ATOM      3  C   LIG    1        1.313  -0.690   0.724  0.00  0.00    -0.010 C 
ATOM      4  C   LIG    1        1.408   0.697   0.047  0.00  0.00    +0.080 C 
ATOM      5  C   LIG    1        0.151   1.413   0.492  0.00  0.00    +0.520 C 
ATOM      6  O   LIG    1       -0.030   2.610   0.416  0.00  0.00    -0.520 OA
ENDROOT
BRANCH   3   7
ATOM      7  C   LIG    1        1.847  -1.770  -0.182  0.00  0.00    +0.530 C 
ATOM      8  N   LIG    1        3.161  -2.068  -0.173  0.00  0.00    -0.610 N 
ATOM      9  C   LIG    1        4.051  -1.429   0.799  0.00  0.00    +0.290 C 
ATOM     10  O   LIG    1        1.094  -2.370  -0.919  0.00  0.00    -0.510 OA
BRANCH   8  11
ATOM     11  C   LIG    1        3.700  -3.032  -1.136  0.00  0.00    +0.440 C 
BRANCH  11  12
ATOM     12  C   LIG    1        4.130  -2.307  -2.385  0.00  0.00    +0.210 A 
ATOM     13  N   LIG    1        5.319  -1.810  -2.603  0.00  0.00    -0.310 NA
ATOM     14  N   LIG    1        5.287  -1.226  -3.880  0.00  0.00    -0.480 N 
ATOM     15  H   LIG    1        6.017  -0.773  -4.331  0.00  0.00    +0.440 HD
ATOM     16  C   LIG    1        4.045  -1.420  -4.354  0.00  0.00    +0.480 A 
ATOM     17  N   LIG    1        3.363  -2.074  -3.449  0.00  0.00    -0.520 NA
ENDBRANCH  11  12
ENDBRANCH   8  11
ENDBRANCH   3   7
BRANCH   1  18
ATOM     18  C   LIG    1       -2.056   0.888   1.505  0.00  0.00    +0.350 C 
BRANCH  18  22
ATOM     19  C   LIG    1       -1.767   1.678   5.695  0.00  0.00    +0.130 A 
ATOM     20  C   LIG    1       -1.593   2.707   4.780  0.00  0.00    -0.020 A 
ATOM     21  C   LIG    1       -1.687   2.448   3.426  0.00  0.00    +0.070 A 
ATOM     22  C   LIG    1       -1.954   1.167   2.982  0.00  0.00    -0.150 A 
ATOM     23  C   LIG    1       -2.134   0.141   3.892  0.00  0.00    +0.060 A 
ATOM     24  C   LIG    1       -2.035   0.393   5.247  0.00  0.00    -0.080 A 
BRANCH  19  26
ATOM     25  C   LIG    1       -1.865   0.823   7.911  0.00  0.00    +0.250 C 
ATOM     26  O   LIG    1       -1.675   1.929   7.027  0.00  0.00    -0.320 OA
ENDBRANCH  19  26
ENDBRANCH  18  22
ENDBRANCH   1  18
TORSDOF 6
