REMARK  Name = ZINCpe000000Wp6O.1
REMARK                            x       y       z     vdW  Elec       q    Type
REMARK                         _______ _______ _______ _____ _____    ______ ____
ROOT
ATOM      1  N   LIG    1       -0.800  -3.601   5.176  0.00  0.00    -0.610 N 
ATOM      2  C   LIG    1       -0.706  -3.962   3.756  0.00  0.00    +0.300 C 
ATOM      3  C   LIG    1        0.689  -3.479   3.300  0.00  0.00    +0.000 C 
ATOM      4  C   LIG    1        0.972  -2.338   4.304  0.00  0.00    +0.070 C 
ATOM      5  C   LIG    1        0.127  -2.687   5.510  0.00  0.00    +0.520 C 
ATOM      6  O   LIG    1        0.266  -2.210   6.617  0.00  0.00    -0.520 OA
ENDROOT
BRANCH   3   7
ATOM      7  C   LIG    1        0.643  -2.956   1.888  0.00  0.00    +0.530 C 
ATOM      8  N   LIG    1        1.733  -2.373   1.349  0.00  0.00    -0.610 N 
ATOM      9  C   LIG    1        2.962  -2.249   2.137  0.00  0.00    +0.290 C 
ATOM     10  O   LIG    1       -0.374  -3.058   1.235  0.00  0.00    -0.500 OA
BRANCH   8  11
ATOM     11  C   LIG    1        1.689  -1.864  -0.024  0.00  0.00    +0.420 C 
BRANCH  11  12
ATOM     12  C   LIG    1        1.237  -0.427  -0.012  0.00  0.00    +0.150 A 
ATOM     13  N   LIG    1        0.002  -0.004   0.002  0.00  0.00    -0.260 NA
ATOM     14  N   LIG    1       -0.015   1.282   0.009  0.00  0.00    -0.300 NA
ATOM     15  C   LIG    1        1.208   1.738  -0.000  0.00  0.00    +0.380 A 
ATOM     16  N   LIG    1        2.037   0.667  -0.014  0.00  0.00    -0.580 N 
ATOM     17  H   LIG    1        3.007   0.680  -0.023  0.00  0.00    +0.430 HD
ENDBRANCH  11  12
ENDBRANCH   8  11
ENDBRANCH   3   7
BRANCH   1  18
ATOM     18  C   LIG    1       -1.778  -4.165   6.109  0.00  0.00    +0.350 C 
BRANCH  18  22
ATOM     19  C   LIG    1       -5.310  -1.759   6.098  0.00  0.00    +0.130 A 
ATOM     20  C   LIG    1       -5.191  -2.823   5.215  0.00  0.00    -0.020 A 
ATOM     21  C   LIG    1       -4.048  -3.599   5.221  0.00  0.00    +0.070 A 
ATOM     22  C   LIG    1       -3.024  -3.317   6.105  0.00  0.00    -0.150 A 
ATOM     23  C   LIG    1       -3.142  -2.261   6.989  0.00  0.00    +0.070 A 
ATOM     24  C   LIG    1       -4.280  -1.478   6.984  0.00  0.00    -0.080 A 
BRANCH  19  26
ATOM     25  C   LIG    1       -6.486   0.085   7.030  0.00  0.00    +0.250 C 
ATOM     26  O   LIG    1       -6.433  -0.994   6.094  0.00  0.00    -0.320 OA
ENDBRANCH  19  26
ENDBRANCH  18  22
ENDBRANCH   1  18
TORSDOF 6
