REMARK  Name = ZINCpe000027pHtx.0
REMARK                            x       y       z     vdW  Elec       q    Type
REMARK                         _______ _______ _______ _____ _____    ______ ____
ROOT
ATOM      1  C   LIG    1       -1.156  -2.103   0.002  0.00  0.00    +0.470 C 
ATOM      2  O   LIG    1       -0.058  -2.608  -0.011  0.00  0.00    -0.480 OA
ENDROOT
BRANCH   1   3
ATOM      3  C   LIG    1       -1.295  -0.603   0.011  0.00  0.00    +0.310 C 
BRANCH   3   4
ATOM      4  O   LIG    1        0.002  -0.004   0.002  0.00  0.00    -0.220 OA
BRANCH   4   6
ATOM      5  C   LIG    1        1.095   2.074   0.003  0.00  0.00    +0.300 C 
ATOM      6  N   LIG    1       -0.017   1.412   0.010  0.00  0.00    -0.340 NA
BRANCH   5  10
ATOM      7  C   LIG    1        1.037   6.320   0.025  0.00  0.00    +0.150 A 
ATOM      8  C   LIG    1        2.250   5.644   0.010  0.00  0.00    -0.020 A 
ATOM      9  C   LIG    1        2.273   4.266   0.003  0.00  0.00    +0.100 A 
ATOM     10  C   LIG    1        1.075   3.549   0.011  0.00  0.00    -0.110 A 
ATOM     11  C   LIG    1       -0.143   4.233   0.020  0.00  0.00    +0.110 A 
ATOM     12  C   LIG    1       -0.158   5.611   0.033  0.00  0.00    -0.090 A 
BRANCH   7  14
ATOM     13  C   LIG    1       -0.263   8.309   0.048  0.00  0.00    +0.240 C 
ATOM     14  O   LIG    1        1.018   7.678   0.033  0.00  0.00    -0.310 OA
ENDBRANCH   7  14
ENDBRANCH   5  10
ENDBRANCH   4   6
ENDBRANCH   3   4
ENDBRANCH   1   3
BRANCH   1  15
ATOM     15  O   LIG    1       -2.251  -2.879   0.008  0.00  0.00    -0.320 OA
BRANCH  15  16
ATOM     16  C   LIG    1       -2.042  -4.316  -0.002  0.00  0.00    +0.200 C 
BRANCH  16  17
ATOM     17  C   LIG    1       -3.193  -4.987  -0.705  0.00  0.00    +0.520 C 
ATOM     18  N   LIG    1       -3.214  -6.328  -0.835  0.00  0.00    -0.690 N 
ATOM     19  H   LIG    1       -2.488  -6.862  -0.476  0.00  0.00    +0.410 HD
ATOM     20  C   LIG    1       -4.244  -6.929  -1.464  0.00  0.00    +0.700 C 
ATOM     21  O   LIG    1       -5.154  -6.260  -1.913  0.00  0.00    -0.530 OA
ATOM     22  N   LIG    1       -4.265  -8.270  -1.594  0.00  0.00    -0.850 N 
ATOM     23  H   LIG    1       -5.006  -8.702  -2.046  0.00  0.00    +0.420 HD
ATOM     24  H   LIG    1       -3.539  -8.803  -1.235  0.00  0.00    +0.400 HD
ATOM     25  O   LIG    1       -4.101  -4.320  -1.153  0.00  0.00    -0.440 OA
ENDBRANCH  16  17
BRANCH  16  26
ATOM     26  C   LIG    1       -1.954  -4.828   1.437  0.00  0.00    -0.020 C 
ATOM     27  C   LIG    1       -3.257  -4.508   2.173  0.00  0.00    +0.050 C 
ATOM     28  C   LIG    1       -0.785  -4.147   2.151  0.00  0.00    +0.040 C 
ENDBRANCH  16  26
ENDBRANCH  15  16
ENDBRANCH   1  15
TORSDOF 9
