REMARK  Name = ZINCvU00000007Lj.0
REMARK                            x       y       z     vdW  Elec       q    Type
REMARK                         _______ _______ _______ _____ _____    ______ ____
ROOT
ATOM      1  C   LIG    1        0.108  -4.305   0.131  0.00  0.00    +0.180 C 
ATOM      2  N   LIG    1       -0.941  -5.047   0.040  0.00  0.00    -0.280 NA
ATOM      3  N   LIG    1       -0.727  -6.380   0.383  0.00  0.00    -0.430 N 
ATOM      4  C   LIG    1        0.682  -6.551   0.773  0.00  0.00    +0.290 C 
ATOM      5  C   LIG    1        1.276  -5.138   0.608  0.00  0.00    +0.100 C 
ENDROOT
BRANCH   1   9
ATOM      6  C   LIG    1        0.259  -0.155  -0.753  0.00  0.00    +0.150 A 
ATOM      7  C   LIG    1        1.404  -0.814  -0.327  0.00  0.00    -0.070 A 
ATOM      8  C   LIG    1        1.359  -2.160  -0.032  0.00  0.00    +0.100 A 
ATOM      9  C   LIG    1        0.160  -2.864  -0.175  0.00  0.00    -0.090 A 
ATOM     10  C   LIG    1       -0.989  -2.198  -0.610  0.00  0.00    +0.110 A 
ATOM     11  C   LIG    1       -0.935  -0.851  -0.896  0.00  0.00    -0.020 A 
BRANCH   6  13
ATOM     12  C   LIG    1        1.566   1.827  -0.868  0.00  0.00    +0.240 C 
ATOM     13  O   LIG    1        0.307   1.173  -1.037  0.00  0.00    -0.310 OA
ENDBRANCH   6  13
ENDBRANCH   1   9
BRANCH   4  14
ATOM     14  C   LIG    1        1.372  -7.527  -0.145  0.00  0.00    -0.140 A 
ATOM     15  C   LIG    1        1.014  -7.590  -1.479  0.00  0.00    +0.050 A 
ATOM     16  C   LIG    1        1.648  -8.480  -2.324  0.00  0.00    -0.070 A 
ATOM     17  C   LIG    1        2.638  -9.319  -1.830  0.00  0.00    +0.220 A 
ATOM     18  C   LIG    1        2.991  -9.257  -0.488  0.00  0.00    -0.070 A 
ATOM     19  C   LIG    1        2.357  -8.361   0.351  0.00  0.00    +0.080 A 
BRANCH  17  20
ATOM     20  N   LIG    1        3.277 -10.224  -2.680  0.00  0.00    -0.640 N 
ATOM     21  C   LIG    1        2.904 -10.288  -4.096  0.00  0.00    +0.280 C 
ATOM     22  C   LIG    1        4.321 -11.109  -2.157  0.00  0.00    +0.270 C 
ENDBRANCH  17  20
ENDBRANCH   4  14
BRANCH   3  23
ATOM     23  C   LIG    1       -1.659  -7.354   0.366  0.00  0.00    +0.590 C 
ATOM     24  S   LIG    1       -1.240  -8.949   0.826  0.00  0.00    -0.570 S 
BRANCH  23  25
ATOM     25  N   LIG    1       -2.921  -7.071  -0.012  0.00  0.00    -0.620 N 
ATOM     26  H   LIG    1       -3.175  -6.157  -0.213  0.00  0.00    +0.410 HD
BRANCH  25  27
ATOM     27  C   LIG    1       -3.867  -8.097  -0.115  0.00  0.00    +0.120 A 
ATOM     28  C   LIG    1       -4.705  -8.163  -1.220  0.00  0.00    +0.000 A 
ATOM     29  C   LIG    1       -5.634  -9.180  -1.321  0.00  0.00    +0.010 A 
ATOM     30  C   LIG    1       -5.737 -10.126  -0.318  0.00  0.00    +0.010 A 
ATOM     31  C   LIG    1       -4.908 -10.060   0.787  0.00  0.00    +0.020 A 
ATOM     32  C   LIG    1       -3.974  -9.048   0.891  0.00  0.00    +0.080 A 
ENDBRANCH  25  27
ENDBRANCH  23  25
ENDBRANCH   3  23
TORSDOF 7
