REMARK  Name = ZINCpk00000eaUVF.0
REMARK                            x       y       z     vdW  Elec       q    Type
REMARK                         _______ _______ _______ _____ _____    ______ ____
ROOT
ATOM      1  N   LIG    1        2.930   3.961   1.373  0.00  0.00    -0.710 N 
ATOM      2  H   LIG    1        2.428   3.579   2.110  0.00  0.00    +0.400 HD
ATOM      3  C   LIG    1        4.082   4.618   1.612  0.00  0.00    +0.500 C 
ATOM      4  O   LIG    1        4.711   5.095   0.691  0.00  0.00    -0.520 OA
ENDROOT
BRANCH   1   5
ATOM      5  C   LIG    1        2.437   3.822   0.001  0.00  0.00    +0.350 C 
BRANCH   5  10
ATOM      6  C   LIG    1       -2.485   0.833   0.018  0.00  0.00    +0.150 C 
ATOM      7  C   LIG    1       -1.200   1.621   0.017  0.00  0.00    +0.180 A 
ATOM      8  C   LIG    1       -1.244   2.974   0.030  0.00  0.00    -0.090 A 
ATOM      9  C   LIG    1       -0.053   3.712   0.023  0.00  0.00    +0.050 A 
ATOM     10  C   LIG    1        1.141   3.053   0.008  0.00  0.00    -0.260 A 
ATOM     11  C   LIG    1        1.150   1.647  -0.000  0.00  0.00    +0.530 A 
ATOM     12  O   LIG    1        2.211   1.044  -0.013  0.00  0.00    -0.540 OA
ATOM     13  C   LIG    1       -0.090   5.219   0.031  0.00  0.00    +0.120 C 
ATOM     14  N   LIG    1       -0.011   0.966   0.007  0.00  0.00    -0.610 N 
ATOM     15  H   LIG    1        0.002  -0.004   0.002  0.00  0.00    +0.420 HD
ENDBRANCH   5  10
ENDBRANCH   1   5
BRANCH   3  16
ATOM     16  C   LIG    1        4.590   4.760   3.024  0.00  0.00    +0.340 C 
BRANCH  16  17
ATOM     17  N   LIG    1        5.850   5.508   3.017  0.00  0.00    -0.480 N 
ATOM     18  C   LIG    1        5.827   6.861   3.127  0.00  0.00    +0.390 A 
ATOM     19  C   LIG    1        6.977   7.574   3.123  0.00  0.00    -0.290 A 
ATOM     20  C   LIG    1        8.209   6.915   3.003  0.00  0.00    +0.160 A 
ATOM     21  C   LIG    1        8.230   5.556   2.893  0.00  0.00    -0.060 A 
ATOM     22  C   LIG    1        7.017   4.846   2.906  0.00  0.00    +0.520 A 
ATOM     23  O   LIG    1        7.021   3.629   2.812  0.00  0.00    -0.530 OA
BRANCH  19  24
ATOM     24  C   LIG    1        6.934   9.076   3.246  0.00  0.00    +0.530 C 
ATOM     25  F   LIG    1        5.698   9.546   2.790  0.00  0.00    -0.180 F 
ATOM     26  F   LIG    1        7.959   9.636   2.476  0.00  0.00    -0.170 F 
ATOM     27  F   LIG    1        7.106   9.439   4.586  0.00  0.00    -0.170 F 
ENDBRANCH  19  24
ENDBRANCH  16  17
ENDBRANCH   3  16
TORSDOF 5
