REMARK  Name = ZINCah0000004STF.0
REMARK                            x       y       z     vdW  Elec       q    Type
REMARK                         _______ _______ _______ _____ _____    ______ ____
ROOT
ATOM      1  O   LIG    1        0.002  -0.004   0.002  0.00  0.00    -0.500 OA
ATOM      2  C   LIG    1       -0.014   1.209   0.009  0.00  0.00    +0.530 C 
ATOM      3  C   LIG    1       -1.244   2.091   0.019  0.00  0.00    +0.130 C 
ATOM      4  C   LIG    1       -0.688   3.497   0.027  0.00  0.00    -0.140 A 
ATOM      5  C   LIG    1       -1.282   4.738   0.040  0.00  0.00    +0.060 A 
ATOM      6  C   LIG    1       -0.497   5.879   0.038  0.00  0.00    -0.010 A 
ATOM      7  C   LIG    1        0.881   5.765   0.025  0.00  0.00    +0.050 A 
ATOM      8  C   LIG    1        1.478   4.522   0.012  0.00  0.00    -0.010 A 
ATOM      9  C   LIG    1        0.695   3.369   0.013  0.00  0.00    +0.140 A 
ATOM     10  N   LIG    1        1.056   2.021   0.003  0.00  0.00    -0.660 N 
ATOM     11  H   LIG    1        1.973   1.707  -0.007  0.00  0.00    +0.410 HD
ENDROOT
TORSDOF 0
