REMARK  Name = ZINCpk00000y6z8x.0
REMARK                            x       y       z     vdW  Elec       q    Type
REMARK                         _______ _______ _______ _____ _____    ______ ____
ROOT
ATOM      1  C   LIG    1       -1.082  -0.804   0.028  0.00  0.00    +0.580 C 
ATOM      2  N   LIG    1        0.001  -0.003  -0.008  0.00  0.00    -0.610 N 
ATOM      3  C   LIG    1        1.404  -0.456  -0.044  0.00  0.00    +0.270 C 
ATOM      4  C   LIG    1        2.218   0.727   0.537  0.00  0.00    +0.090 C 
ATOM      5  C   LIG    1        1.447   1.946  -0.034  0.00  0.00    +0.110 C 
ATOM      6  C   LIG    1       -0.020   1.467  -0.017  0.00  0.00    +0.250 C 
ATOM      7  O   LIG    1       -2.190  -0.323   0.161  0.00  0.00    -0.530 OA
ENDROOT
BRANCH   1  11
ATOM      8  C   LIG    1       -0.624  -5.011  -0.327  0.00  0.00    +0.160 A 
ATOM      9  C   LIG    1       -1.740  -4.487   0.314  0.00  0.00    -0.070 A 
ATOM     10  C   LIG    1       -1.893  -3.124   0.430  0.00  0.00    +0.120 A 
ATOM     11  C   LIG    1       -0.923  -2.267  -0.096  0.00  0.00    -0.170 A 
ATOM     12  C   LIG    1        0.196  -2.797  -0.744  0.00  0.00    +0.090 A 
ATOM     13  C   LIG    1        0.343  -4.162  -0.852  0.00  0.00    -0.090 A 
BRANCH  13  14
ATOM     14  C   LIG    1        1.552  -4.736  -1.546  0.00  0.00    +0.010 C 
ATOM     15  C   LIG    1        2.675  -3.768  -1.923  0.00  0.00    +0.010 C 
ATOM     16  C   LIG    1        1.773  -4.354  -3.011  0.00  0.00    +0.030 C 
ENDBRANCH  13  14
BRANCH   8  18
ATOM     17  C   LIG    1       -1.508  -7.170   0.122  0.00  0.00    +0.240 C 
ATOM     18  O   LIG    1       -0.477  -6.356  -0.440  0.00  0.00    -0.310 OA
ENDBRANCH   8  18
ENDBRANCH   1  11
BRANCH   5  19
ATOM     19  O   LIG    1        1.869   2.231  -1.369  0.00  0.00    -0.540 OA
ATOM     20  H   LIG    1        1.365   2.935  -1.799  0.00  0.00    +0.390 HD
ENDBRANCH   5  19
BRANCH   5  21
ATOM     21  C   LIG    1        1.627   3.171   0.866  0.00  0.00    +0.330 C 
BRANCH  21  22
ATOM     22  N   LIG    1        0.706   4.228   0.441  0.00  0.00    -0.300 N 
ATOM     23  C   LIG    1       -0.203   4.851   1.226  0.00  0.00    +0.150 A 
ATOM     24  C   LIG    1       -0.831   5.752   0.435  0.00  0.00    +0.140 A 
ATOM     25  N   LIG    1       -0.287   5.632  -0.782  0.00  0.00    -0.260 NA
ATOM     26  N   LIG    1        0.620   4.721  -0.745  0.00  0.00    -0.100 NA
ENDBRANCH  21  22
ENDBRANCH   5  21
TORSDOF 6
