REMARK  Name = ZINCvU0000000GLw.0
REMARK                            x       y       z     vdW  Elec       q    Type
REMARK                         _______ _______ _______ _____ _____    ______ ____
ROOT
ATOM      1  C   LIG    1        3.973   5.410   8.802  0.00  0.00    +0.240 A 
ATOM      2  C   LIG    1        3.679   4.165   8.251  0.00  0.00    +0.020 A 
ATOM      3  C   LIG    1        2.906   4.081   7.115  0.00  0.00    +0.120 A 
ATOM      4  C   LIG    1        2.417   5.250   6.519  0.00  0.00    -0.080 A 
ATOM      5  C   LIG    1        2.723   6.497   7.078  0.00  0.00    +0.170 A 
ATOM      6  C   LIG    1        3.486   6.571   8.208  0.00  0.00    -0.050 A 
ENDROOT
BRANCH   4   7
ATOM      7  C   LIG    1        1.592   5.169   5.307  0.00  0.00    +0.210 C 
ATOM      8  C   LIG    1        0.508   5.974   5.169  0.00  0.00    -0.210 C 
ATOM      9  S   LIG    1       -0.506   6.191   3.730  0.00  0.00    -0.010 S 
ATOM     10  C   LIG    1       -1.592   7.366   4.491  0.00  0.00    +0.370 C 
ATOM     11  N   LIG    1       -1.144   7.542   5.774  0.00  0.00    -0.640 N 
ATOM     12  H   LIG    1       -1.596   8.153   6.376  0.00  0.00    +0.430 HD
ATOM     13  N   LIG    1       -2.616   7.954   3.936  0.00  0.00    -0.490 NA
ATOM     14  C   LIG    1       -0.086   6.858   6.176  0.00  0.00    +0.560 C 
ATOM     15  O   LIG    1        0.365   6.959   7.301  0.00  0.00    -0.480 OA
BRANCH  13  16
ATOM     16  C   LIG    1       -2.963   7.661   2.543  0.00  0.00    +0.150 C 
ATOM     17  C   LIG    1       -4.380   7.086   2.481  0.00  0.00    +0.030 C 
ATOM     18  C   LIG    1       -4.742   6.780   1.026  0.00  0.00    +0.010 C 
ATOM     19  C   LIG    1       -4.677   8.067   0.202  0.00  0.00    +0.020 C 
ATOM     20  C   LIG    1       -3.260   8.642   0.265  0.00  0.00    +0.010 C 
ATOM     21  C   LIG    1       -2.898   8.948   1.719  0.00  0.00    +0.030 C 
ENDBRANCH  13  16
ENDBRANCH   4   7
BRANCH   6  22
ATOM     22  N   LIG    1        3.803   7.891   8.800  0.00  0.00    +0.030 N 
ATOM     23  O   LIG    1        4.488   7.959   9.804  0.00  0.00    -0.130 OA
ATOM     24  O   LIG    1        3.379   8.908   8.281  0.00  0.00    -0.170 OA
ENDBRANCH   6  22
BRANCH   1  26
ATOM     25  C   LIG    1        6.211   5.608   9.840  0.00  0.00    +0.310 C 
ATOM     26  N   LIG    1        4.755   5.493   9.951  0.00  0.00    -0.600 N 
BRANCH  26  27
ATOM     27  C   LIG    1        4.151   5.467  11.211  0.00  0.00    +0.220 A 
ATOM     28  C   LIG    1        2.770   5.363  11.319  0.00  0.00    -0.080 A 
ATOM     29  C   LIG    1        2.177   5.333  12.566  0.00  0.00    +0.050 A 
ATOM     30  C   LIG    1        2.955   5.415  13.706  0.00  0.00    -0.050 A 
ATOM     31  C   LIG    1        4.330   5.524  13.602  0.00  0.00    +0.050 A 
ATOM     32  C   LIG    1        4.930   5.550  12.358  0.00  0.00    -0.050 A 
ENDBRANCH  26  27
ENDBRANCH   1  26
TORSDOF 5
