REMARK  Name = ZINCpk00000GBnm6.0
REMARK                            x       y       z     vdW  Elec       q    Type
REMARK                         _______ _______ _______ _____ _____    ______ ____
ROOT
ATOM      1  C   LIG    1       -0.777   1.606  -3.730  0.00  0.00    +0.150 C 
ENDROOT
BRANCH   1   2
ATOM      2  N   LIG    1       -0.089   1.132  -4.939  0.00  0.00    -0.680 NA
ATOM      3  H   LIG    1        0.880   1.415  -4.938  0.00  0.00    +0.340 HD
BRANCH   2   4
ATOM      4  C   LIG    1       -0.773   1.601  -6.151  0.00  0.00    +0.260 C 
BRANCH   4   9
ATOM      5  C   LIG    1        0.874  -1.357  -9.848  0.00  0.00    +0.380 C 
ATOM      6  N   LIG    1        0.673  -0.197  -8.975  0.00  0.00    -0.310 N 
ATOM      7  N   LIG    1        1.287   1.054  -9.113  0.00  0.00    -0.250 NA
ATOM      8  C   LIG    1        0.855   1.830  -8.153  0.00  0.00    +0.230 A 
ATOM      9  C   LIG    1       -0.041   1.096  -7.368  0.00  0.00    -0.120 A 
ATOM     10  C   LIG    1       -0.137  -0.145  -7.897  0.00  0.00    -0.460 A 
BRANCH  10  11
ATOM     11  S   LIG    1       -1.141  -1.459  -7.288  0.00  0.00    +2.510 S 
ATOM     12  O   LIG    1       -1.392  -2.267  -8.430  0.00  0.00    -0.940 OA
ATOM     13  O   LIG    1       -2.202  -0.803  -6.608  0.00  0.00    -0.910 OA
ATOM     14  C   LIG    1       -0.075  -2.335  -6.111  0.00  0.00    -0.220 C 
ENDBRANCH  10  11
ENDBRANCH   4   9
ENDBRANCH   2   4
ENDBRANCH   1   2
BRANCH   1  15
ATOM     15  C   LIG    1       -0.037   1.099  -2.490  0.00  0.00    +0.210 C 
BRANCH  15  16
ATOM     16  C   LIG    1       -0.753   1.593  -1.232  0.00  0.00    -0.080 C 
ATOM     17  C   LIG    1       -0.013   1.086   0.008  0.00  0.00    +0.030 C 
ATOM     18  C   LIG    1       -0.729   1.579   1.267  0.00  0.00    -0.020 C 
ATOM     19  C   LIG    1       -0.750   3.109   1.275  0.00  0.00    +0.010 C 
ATOM     20  C   LIG    1       -1.490   3.616   0.036  0.00  0.00    -0.020 C 
ATOM     21  C   LIG    1       -2.925   3.086   0.047  0.00  0.00    +0.010 C 
ATOM     22  C   LIG    1       -2.904   1.556   0.038  0.00  0.00    -0.010 C 
ATOM     23  C   LIG    1       -2.164   1.050   1.278  0.00  0.00    +0.010 C 
ATOM     24  C   LIG    1       -0.773   3.123  -1.223  0.00  0.00    +0.030 C 
ATOM     25  C   LIG    1       -2.188   1.063  -1.221  0.00  0.00    +0.020 C 
ENDBRANCH  15  16
BRANCH  15  26
ATOM     26  O   LIG    1       -0.017  -0.330  -2.498  0.00  0.00    -0.550 OA
ATOM     27  H   LIG    1       -0.895  -0.735  -2.492  0.00  0.00    +0.370 HD
ENDBRANCH  15  26
ENDBRANCH   1  15
TORSDOF 7
