REMARK  Name = ZINCqH0000036TU7.0
REMARK                            x       y       z     vdW  Elec       q    Type
REMARK                         _______ _______ _______ _____ _____    ______ ____
ROOT
ATOM      1  C   LIG    1       -1.537   0.433   5.785  0.00  0.00    +0.080 C 
ATOM      2  C   LIG    1       -0.879   0.339   4.407  0.00  0.00    +0.150 C 
ATOM      3  C   LIG    1       -0.075   1.613   4.129  0.00  0.00    +0.250 C 
ATOM      4  N   LIG    1        0.495   1.499   2.776  0.00  0.00    -0.550 N 
ATOM      5  C   LIG    1       -0.323   0.970   1.765  0.00  0.00    +0.100 A 
ATOM      6  C   LIG    1        0.048   1.093   0.435  0.00  0.00    +0.060 A 
ATOM      7  C   LIG    1       -0.759   0.569  -0.558  0.00  0.00    +0.040 A 
ATOM      8  C   LIG    1       -1.935  -0.077  -0.226  0.00  0.00    +0.010 A 
ATOM      9  C   LIG    1       -2.312  -0.202   1.101  0.00  0.00    +0.100 A 
ATOM     10  F   LIG    1       -3.463  -0.835   1.419  0.00  0.00    -0.130 F 
ATOM     11  C   LIG    1       -1.508   0.322   2.103  0.00  0.00    +0.060 A 
ATOM     12  C   LIG    1        1.761   1.883   2.519  0.00  0.00    +0.590 C 
ATOM     13  O   LIG    1        2.201   1.808   1.387  0.00  0.00    -0.480 OA
ATOM     14  O   LIG    1       -1.887   0.199   3.403  0.00  0.00    -0.290 OA
ENDROOT
BRANCH  12  15
ATOM     15  C   LIG    1        2.611   2.391   3.606  0.00  0.00    +0.010 A 
ATOM     16  C   LIG    1        3.337   3.539   3.567  0.00  0.00    +0.070 A 
ATOM     17  C   LIG    1        4.016   3.662   4.804  0.00  0.00    -0.110 A 
ATOM     18  C   LIG    1        4.896   4.618   5.327  0.00  0.00    +0.070 A 
ATOM     19  C   LIG    1        5.399   4.459   6.586  0.00  0.00    -0.010 A 
ATOM     20  C   LIG    1        5.048   3.357   7.355  0.00  0.00    +0.050 A 
ATOM     21  C   LIG    1        4.184   2.404   6.863  0.00  0.00    -0.010 A 
ATOM     22  C   LIG    1        3.658   2.543   5.582  0.00  0.00    +0.120 A 
ATOM     23  N   LIG    1        2.795   1.780   4.832  0.00  0.00    -0.480 N 
BRANCH  23  24
ATOM     24  C   LIG    1        2.176   0.522   5.259  0.00  0.00    +0.460 C 
BRANCH  24  25
ATOM     25  C   LIG    1        1.508   0.720   6.555  0.00  0.00    +0.170 C 
ATOM     26  N   LIG    1        0.992   0.872   7.556  0.00  0.00    -0.360 NA
ENDBRANCH  24  25
ENDBRANCH  23  24
ENDBRANCH  12  15
TORSDOF 3
