REMARK  Name = ZINCpk00000y6yXF.0
REMARK                            x       y       z     vdW  Elec       q    Type
REMARK                         _______ _______ _______ _____ _____    ______ ____
ROOT
ATOM      1  C   LIG    1        7.856   1.457  -0.021  0.00  0.00    +0.510 C 
ATOM      2  O   LIG    1        7.695   1.653  -1.208  0.00  0.00    -0.480 OA
ENDROOT
BRANCH   1   6
ATOM      3  C   LIG    1       11.656   2.138   1.748  0.00  0.00    -0.650 A 
ATOM      4  C   LIG    1       11.476   2.363   0.395  0.00  0.00    +0.130 A 
ATOM      5  C   LIG    1       10.244   2.143  -0.186  0.00  0.00    +0.070 A 
ATOM      6  C   LIG    1        9.177   1.694   0.595  0.00  0.00    -0.060 A 
ATOM      7  C   LIG    1        9.364   1.475   1.961  0.00  0.00    +0.070 A 
ATOM      8  C   LIG    1       10.603   1.693   2.528  0.00  0.00    +0.120 A 
BRANCH   3   9
ATOM      9  S   LIG    1       13.232   2.421   2.482  0.00  0.00    +2.700 S 
ATOM     10  O   LIG    1       14.187   2.320   1.435  0.00  0.00    -0.950 OA
ATOM     11  O   LIG    1       13.278   1.622   3.656  0.00  0.00    -0.960 OA
BRANCH   9  12
ATOM     12  N   LIG    1       13.261   3.998   2.989  0.00  0.00    -1.250 NA
ATOM     13  H   LIG    1       12.744   4.669   2.516  0.00  0.00    +0.420 HD
ATOM     14  H   LIG    1       13.794   4.250   3.759  0.00  0.00    +0.420 HD
ENDBRANCH   9  12
ENDBRANCH   3   9
ENDBRANCH   1   6
BRANCH   1  15
ATOM     15  O   LIG    1        6.829   1.024   0.736  0.00  0.00    -0.320 OA
BRANCH  15  16
ATOM     16  C   LIG    1        5.559   0.812   0.064  0.00  0.00    +0.200 C 
ATOM     17  C   LIG    1        4.807  -0.290   0.771  0.00  0.00    +0.060 C 
ATOM     18  C   LIG    1        3.648  -0.821  -0.015  0.00  0.00    +0.100 C 
ATOM     19  C   LIG    1        2.420   0.030  -0.016  0.00  0.00    -0.120 A 
ATOM     20  C   LIG    1        1.210  -0.664  -0.009  0.00  0.00    +0.040 A 
ATOM     21  C   LIG    1        0.002  -0.004   0.002  0.00  0.00    -0.010 A 
ATOM     22  C   LIG    1       -0.017   1.379   0.010  0.00  0.00    +0.050 A 
ATOM     23  C   LIG    1        1.169   2.072   0.002  0.00  0.00    -0.030 A 
ATOM     24  C   LIG    1        2.407   1.408  -0.016  0.00  0.00    +0.170 A 
ATOM     25  N   LIG    1        3.507   2.235  -0.042  0.00  0.00    -0.640 N 
ATOM     26  H   LIG    1        3.257   3.164  -0.167  0.00  0.00    +0.400 HD
ATOM     27  C   LIG    1        4.797   2.089   0.059  0.00  0.00    +0.510 C 
ATOM     28  O   LIG    1        5.449   3.106   0.161  0.00  0.00    -0.520 OA
ENDBRANCH  15  16
ENDBRANCH   1  15
TORSDOF 5
