REMARK  Name = ZINCvU0000000Eb1.0
REMARK                            x       y       z     vdW  Elec       q    Type
REMARK                         _______ _______ _______ _____ _____    ______ ____
ROOT
ATOM      1  N   LIG    1       -3.679   1.626  -0.149  0.00  0.00    -0.410 N 
ATOM      2  C   LIG    1       -4.466   0.511  -0.073  0.00  0.00    +0.150 A 
ATOM      3  N   LIG    1       -3.675  -0.506   0.194  0.00  0.00    -0.290 NA
ATOM      4  N   LIG    1       -2.457  -0.107   0.284  0.00  0.00    -0.250 NA
ATOM      5  C   LIG    1       -2.392   1.189   0.080  0.00  0.00    +0.230 A 
ENDROOT
BRANCH   1  10
ATOM      6  C   LIG    1       -5.357   6.945  -1.202  0.00  0.00    +0.100 C 
ATOM      7  C   LIG    1       -4.911   5.533  -0.922  0.00  0.00    -0.060 A 
ATOM      8  C   LIG    1       -4.970   4.580  -1.923  0.00  0.00    +0.030 A 
ATOM      9  C   LIG    1       -4.562   3.285  -1.669  0.00  0.00    +0.040 A 
ATOM     10  C   LIG    1       -4.093   2.940  -0.409  0.00  0.00    +0.080 A 
ATOM     11  C   LIG    1       -4.041   3.897   0.595  0.00  0.00    +0.040 A 
ATOM     12  C   LIG    1       -4.444   5.192   0.334  0.00  0.00    +0.030 A 
ENDBRANCH   1  10
BRANCH   5  13
ATOM     13  C   LIG    1       -1.172   2.021   0.100  0.00  0.00    +0.030 A 
ATOM     14  C   LIG    1       -1.154   3.287  -0.499  0.00  0.00    -0.020 A 
ATOM     15  C   LIG    1        0.005   4.032  -0.452  0.00  0.00    +0.270 A 
ATOM     16  N   LIG    1        1.088   3.565   0.141  0.00  0.00    -0.470 NA
ATOM     17  C   LIG    1        1.116   2.376   0.712  0.00  0.00    +0.280 A 
ATOM     18  C   LIG    1        0.002   1.564   0.713  0.00  0.00    +0.020 A 
ENDBRANCH   5  13
BRANCH   2  19
ATOM     19  S   LIG    1       -6.214   0.449  -0.286  0.00  0.00    +0.110 S 
BRANCH  19  20
ATOM     20  C   LIG    1       -6.498  -1.321  -0.033  0.00  0.00    +0.100 C 
BRANCH  20  21
ATOM     21  C   LIG    1       -7.969  -1.618  -0.172  0.00  0.00    +0.540 C 
ATOM     22  N   LIG    1       -8.418  -2.880  -0.023  0.00  0.00    -0.660 N 
ATOM     23  H   LIG    1       -7.803  -3.588   0.224  0.00  0.00    +0.420 HD
ATOM     24  O   LIG    1       -8.748  -0.722  -0.418  0.00  0.00    -0.500 OA
BRANCH  22  25
ATOM     25  C   LIG    1       -9.773  -3.169  -0.225  0.00  0.00    +0.160 A 
ATOM     26  C   LIG    1      -10.729  -2.178  -0.049  0.00  0.00    +0.040 A 
ATOM     27  C   LIG    1      -12.065  -2.465  -0.250  0.00  0.00    +0.070 A 
ATOM     28  C   LIG    1      -12.451  -3.740  -0.627  0.00  0.00    -0.100 A 
ATOM     29  C   LIG    1      -11.500  -4.729  -0.803  0.00  0.00    +0.070 A 
ATOM     30 BR   LIG    1      -14.281  -4.130  -0.901  0.00  0.00    -0.050 Br
ATOM     31  C   LIG    1      -10.162  -4.446  -0.608  0.00  0.00    -0.110 A 
ATOM     32  C   LIG    1       -9.127  -5.522  -0.806  0.00  0.00    +0.110 C 
ENDBRANCH  22  25
ENDBRANCH  20  21
ENDBRANCH  19  20
ENDBRANCH   2  19
TORSDOF 6
