REMARK  Name = ZINCpk00001AZj9q.0
REMARK                            x       y       z     vdW  Elec       q    Type
REMARK                         _______ _______ _______ _____ _____    ______ ____
ROOT
ATOM      1  C   LIG    1       -2.722   7.851   0.867  0.00  0.00    +0.160 C 
ATOM      2  C   LIG    1       -3.692   6.740   0.385  0.00  0.00    +0.060 C 
ATOM      3  C   LIG    1       -2.874   5.449   0.601  0.00  0.00    +0.220 C 
ATOM      4  N   LIG    1       -1.454   5.828   0.631  0.00  0.00    -0.610 N 
ATOM      5  C   LIG    1       -0.420   4.985   0.823  0.00  0.00    +0.580 C 
ATOM      6  O   LIG    1        0.707   5.424   0.948  0.00  0.00    -0.520 OA
ATOM      7  C   LIG    1       -1.352   7.286   0.414  0.00  0.00    +0.260 C 
ENDROOT
BRANCH   5   8
ATOM      8  C   LIG    1       -0.656   3.527   0.882  0.00  0.00    -0.150 A 
ATOM      9  C   LIG    1       -1.937   3.035   1.138  0.00  0.00    +0.060 A 
ATOM     10  C   LIG    1       -2.151   1.672   1.188  0.00  0.00    +0.010 A 
ATOM     11  C   LIG    1       -1.099   0.796   0.995  0.00  0.00    +0.050 A 
ATOM     12  C   LIG    1        0.175   1.278   0.747  0.00  0.00    -0.110 A 
ATOM     13  C   LIG    1        0.402   2.637   0.689  0.00  0.00    +0.100 A 
BRANCH  12  14
ATOM     14  C   LIG    1        1.315   0.315   0.538  0.00  0.00    +0.260 C 
BRANCH  14  15
ATOM     15  C   LIG    1        1.948   0.016   1.833  0.00  0.00    +0.200 C 
ATOM     16  N   LIG    1        2.436  -0.215   2.833  0.00  0.00    -0.430 NA
ENDBRANCH  14  15
ENDBRANCH  12  14
ENDBRANCH   5   8
BRANCH   1  18
ATOM     17  C   LIG    1       -2.691  10.244   1.008  0.00  0.00    +0.220 C 
ATOM     18  O   LIG    1       -3.003   9.094   0.219  0.00  0.00    -0.370 OA
ENDBRANCH   1  18
BRANCH   3  19
ATOM     19  C   LIG    1       -3.128   4.473  -0.549  0.00  0.00    +0.310 C 
BRANCH  19  20
ATOM     20  N   LIG    1       -4.504   3.975  -0.472  0.00  0.00    -0.370 N 
ATOM     21  C   LIG    1       -5.421   4.023  -1.461  0.00  0.00    +0.260 A 
ATOM     22  C   LIG    1       -6.562   3.465  -0.996  0.00  0.00    -0.170 A 
ATOM     23  C   LIG    1       -6.335   3.060   0.329  0.00  0.00    +0.340 A 
ATOM     24  N   LIG    1       -5.099   3.373   0.644  0.00  0.00    -0.360 NA
BRANCH  23  25
ATOM     25  N   LIG    1       -7.265   2.438   1.170  0.00  0.00    -0.850 N 
ATOM     26  H   LIG    1       -7.013   2.190   2.074  0.00  0.00    +0.400 HD
ATOM     27  H   LIG    1       -8.160   2.250   0.848  0.00  0.00    +0.410 HD
ENDBRANCH  23  25
ENDBRANCH  19  20
ENDBRANCH   3  19
TORSDOF 7
