REMARK  Name = ZINCnE000001SaN6.0
REMARK                            x       y       z     vdW  Elec       q    Type
REMARK                         _______ _______ _______ _____ _____    ______ ____
ROOT
ATOM      1  O   LIG    1       -1.736   2.268  -1.088  0.00  0.00    -0.540 OA
ATOM      2  C   LIG    1       -0.742   1.585  -1.213  0.00  0.00    +0.510 C 
ATOM      3  N   LIG    1       -0.288   1.272  -2.443  0.00  0.00    -0.540 N 
ATOM      4  H   LIG    1        0.507   0.726  -2.543  0.00  0.00    +0.360 HD
ENDROOT
BRANCH   3   5
ATOM      5  N   LIG    1       -0.966   1.736  -3.578  0.00  0.00    -0.470 NA
ATOM      6  C   LIG    1       -0.513   1.424  -4.808  0.00  0.00    +0.450 C 
ATOM      7  O   LIG    1        0.485   0.738  -4.933  0.00  0.00    -0.670 OA
BRANCH   6   8
ATOM      8  C   LIG    1       -1.222   1.909  -5.996  0.00  0.00    +0.060 A 
ATOM      9  C   LIG    1       -0.872   1.667  -7.294  0.00  0.00    -0.040 A 
ATOM     10  C   LIG    1       -1.822   2.318  -8.096  0.00  0.00    -0.010 A 
ATOM     11  C   LIG    1       -2.700   2.922  -7.262  0.00  0.00    -0.050 A 
ATOM     12 BR   LIG    1       -4.196   3.949  -7.795  0.00  0.00    +0.030 Br
ATOM     13  O   LIG    1       -2.338   2.668  -5.998  0.00  0.00    -0.130 OA
ENDBRANCH   6   8
ENDBRANCH   3   5
BRANCH   2  14
ATOM     14  C   LIG    1       -0.013   1.086   0.008  0.00  0.00    +0.030 C 
BRANCH  14  15
ATOM     15  C   LIG    1       -0.729   1.579   1.267  0.00  0.00    -0.030 C 
ATOM     16  C   LIG    1       -2.164   1.050   1.278  0.00  0.00    +0.040 C 
ATOM     17  C   LIG    1       -2.880   1.543   2.537  0.00  0.00    -0.020 C 
ATOM     18  C   LIG    1       -2.901   3.073   2.545  0.00  0.00    +0.020 C 
ATOM     19  C   LIG    1       -1.466   3.603   2.534  0.00  0.00    -0.020 C 
ATOM     20  C   LIG    1       -0.726   3.096   3.774  0.00  0.00    +0.000 C 
ATOM     21  C   LIG    1       -0.705   1.566   3.765  0.00  0.00    -0.020 C 
ATOM     22  C   LIG    1       -2.140   1.036   3.776  0.00  0.00    +0.000 C 
ATOM     23  C   LIG    1       -0.750   3.109   1.275  0.00  0.00    +0.040 C 
ATOM     24  C   LIG    1        0.011   1.072   2.506  0.00  0.00    +0.020 C 
ENDBRANCH  14  15
ENDBRANCH   2  14
TORSDOF 4
