REMARK  Name = ZINCrD00000F5LmQ.0
REMARK                            x       y       z     vdW  Elec       q    Type
REMARK                         _______ _______ _______ _____ _____    ______ ____
ROOT
ATOM      1  C   LIG    1        5.711   2.268  -0.572  0.00  0.00    +0.310 C 
ATOM      2  N   LIG    1        4.867   1.281  -0.414  0.00  0.00    -0.480 NA
ATOM      3  C   LIG    1        3.665   1.778   0.003  0.00  0.00    -0.050 C 
ATOM      4  C   LIG    1        3.845   3.240   0.105  0.00  0.00    +0.520 C 
ATOM      5  O   LIG    1        3.017   4.063   0.447  0.00  0.00    -0.460 OA
ATOM      6  C   LIG    1        2.531   1.069   0.274  0.00  0.00    +0.220 C 
ATOM      7  N   LIG    1        5.125   3.472  -0.263  0.00  0.00    -0.510 N 
ENDROOT
BRANCH   7   8
ATOM      8  C   LIG    1        5.749   4.727  -0.319  0.00  0.00    +0.110 A 
ATOM      9  C   LIG    1        6.762   5.040   0.577  0.00  0.00    +0.070 A 
ATOM     10  C   LIG    1        7.378   6.274   0.517  0.00  0.00    +0.010 A 
ATOM     11  C   LIG    1        6.979   7.204  -0.429  0.00  0.00    +0.120 A 
ATOM     12  C   LIG    1        5.965   6.895  -1.320  0.00  0.00    +0.010 A 
ATOM     13  F   LIG    1        7.580   8.412  -0.482  0.00  0.00    -0.130 F 
ATOM     14  C   LIG    1        5.350   5.659  -1.266  0.00  0.00    +0.070 A 
ENDBRANCH   7   8
BRANCH   6  15
ATOM     15  C   LIG    1        1.381   1.734   0.896  0.00  0.00    -0.100 A 
ATOM     16  C   LIG    1        1.576   2.668   1.921  0.00  0.00    +0.070 A 
ATOM     17  C   LIG    1        0.490   3.285   2.503  0.00  0.00    -0.010 A 
ATOM     18  C   LIG    1       -0.792   2.991   2.070  0.00  0.00    +0.030 A 
ATOM     19  C   LIG    1       -0.995   2.068   1.058  0.00  0.00    +0.000 A 
ATOM     20  C   LIG    1        0.080   1.439   0.468  0.00  0.00    +0.050 A 
ENDBRANCH   6  15
BRANCH   1  21
ATOM     21  S   LIG    1        7.380   2.078  -1.104  0.00  0.00    +0.040 S 
BRANCH  21  22
ATOM     22  C   LIG    1        7.440   0.282  -1.316  0.00  0.00    +0.130 C 
BRANCH  22  23
ATOM     23  C   LIG    1        8.836  -0.129  -1.789  0.00  0.00    -0.310 C 
BRANCH  23  25
ATOM     24  C   LIG    1       10.605  -2.185  -2.553  0.00  0.00    -0.260 C 
ATOM     25  S   LIG    1        8.896  -1.930  -2.002  0.00  0.00    +2.430 S 
ATOM     26  O   LIG    1        8.020  -2.290  -3.061  0.00  0.00    -0.930 OA
ATOM     27  O   LIG    1        8.735  -2.542  -0.729  0.00  0.00    -0.930 OA
ENDBRANCH  23  25
ENDBRANCH  22  23
ENDBRANCH  21  22
ENDBRANCH   1  21
TORSDOF 6
