REMARK  Name = ZINCqH0000006WXc.0
REMARK                            x       y       z     vdW  Elec       q    Type
REMARK                         _______ _______ _______ _____ _____    ______ ____
ROOT
ATOM      1  C   LIG    1       -6.418   6.503  -1.176  0.00  0.00    +0.100 A 
ATOM      2  C   LIG    1       -6.256   5.300  -0.514  0.00  0.00    -0.030 A 
ATOM      3  C   LIG    1       -5.009   4.696  -0.450  0.00  0.00    -0.060 A 
ATOM      4  C   LIG    1       -3.923   5.295  -1.052  0.00  0.00    -0.070 A 
ATOM      5  C   LIG    1       -2.551   4.674  -1.014  0.00  0.00    +0.270 C 
ATOM      6  N   LIG    1       -2.474   3.661   0.044  0.00  0.00    -0.480 N 
ATOM      7  C   LIG    1       -3.576   2.695  -0.095  0.00  0.00    +0.200 C 
ATOM      8  C   LIG    1       -4.080   6.503  -1.716  0.00  0.00    -0.030 A 
ATOM      9  C   LIG    1       -4.882   3.390   0.291  0.00  0.00    +0.110 C 
ATOM     10  C   LIG    1       -5.321   7.110  -1.781  0.00  0.00    +0.100 A 
ENDROOT
BRANCH   6  11
ATOM     11  C   LIG    1       -1.248   3.021   0.030  0.00  0.00    +0.400 A 
ATOM     12  C   LIG    1       -0.362   3.132   1.132  0.00  0.00    -0.130 A 
ATOM     13  C   LIG    1        0.856   2.466   1.056  0.00  0.00    +0.090 A 
ATOM     14  S   LIG    1        1.775   2.751   2.523  0.00  0.00    +0.200 S 
ATOM     15  C   LIG    1        0.503   3.758   3.214  0.00  0.00    -0.200 A 
ATOM     16  C   LIG    1        0.249   4.547   4.496  0.00  0.00    +0.130 C 
ATOM     17  C   LIG    1       -1.274   4.784   4.517  0.00  0.00    +0.050 C 
ATOM     18  C   LIG    1       -1.615   4.742   3.015  0.00  0.00    +0.110 C 
ATOM     19  N   LIG    1        1.142   1.752  -0.042  0.00  0.00    -0.490 NA
ATOM     20  C   LIG    1        0.289   1.677  -1.038  0.00  0.00    +0.530 A 
ATOM     21  C   LIG    1       -0.530   3.864   2.390  0.00  0.00    -0.070 A 
ATOM     22  N   LIG    1       -0.877   2.296  -1.016  0.00  0.00    -0.550 NA
ENDBRANCH   6  11
BRANCH   1  24
ATOM     23  C   LIG    1       -8.722   6.410  -0.592  0.00  0.00    +0.250 C 
ATOM     24  O   LIG    1       -7.643   7.091  -1.236  0.00  0.00    -0.310 OA
ENDBRANCH   1  24
BRANCH  10  25
ATOM     25  O   LIG    1       -5.469   8.295  -2.433  0.00  0.00    -0.310 OA
ATOM     26  C   LIG    1       -4.299   8.858  -3.029  0.00  0.00    +0.240 C 
ENDBRANCH  10  25
TORSDOF 3
