REMARK  Name = ZINCpe000000YA6o.0
REMARK                            x       y       z     vdW  Elec       q    Type
REMARK                         _______ _______ _______ _____ _____    ______ ____
ROOT
ATOM      1  C   LIG    1       -1.447  -0.379   1.593  0.00  0.00    +0.420 A 
ATOM      2  C   LIG    1       -1.321  -1.196   2.730  0.00  0.00    -0.050 A 
ATOM      3  N   LIG    1       -2.123  -1.498   3.779  0.00  0.00    -0.450 NA
ATOM      4  C   LIG    1       -1.508  -2.327   4.572  0.00  0.00    +0.500 A 
ATOM      5  N   LIG    1       -0.267  -2.610   4.077  0.00  0.00    -0.430 N 
ATOM      6  C   LIG    1       -0.121  -1.905   2.907  0.00  0.00    +0.290 A 
ATOM      7  N   LIG    1        0.844  -1.780   2.002  0.00  0.00    -0.520 NA
ATOM      8  C   LIG    1        0.681  -1.002   0.952  0.00  0.00    +0.550 A 
ATOM      9  N   LIG    1       -0.429  -0.320   0.740  0.00  0.00    -0.560 NA
ENDROOT
BRANCH   1  15
ATOM     10  C   LIG    1       -2.370   1.423   0.397  0.00  0.00    +0.160 C 
ATOM     11  C   LIG    1       -3.658   2.231   0.219  0.00  0.00    +0.250 C 
ATOM     12  O   LIG    1       -4.712   1.355  -0.192  0.00  0.00    -0.380 OA
ATOM     13  C   LIG    1       -4.968   0.291   0.729  0.00  0.00    +0.240 C 
ATOM     14  C   LIG    1       -3.693  -0.536   0.911  0.00  0.00    +0.190 C 
ATOM     15  N   LIG    1       -2.605   0.343   1.365  0.00  0.00    -0.470 N 
BRANCH  10  16
ATOM     16  C   LIG    1       -1.259   2.340   0.913  0.00  0.00    +0.070 C 
BRANCH  16  20
ATOM     17  N   LIG    1       -0.050   4.354   0.138  0.00  0.00    -0.860 N 
ATOM     18  H   LIG    1        0.370   4.399   1.011  0.00  0.00    +0.400 HD
ATOM     19  H   LIG    1        0.161   5.017  -0.537  0.00  0.00    +0.400 HD
ATOM     20  C   LIG    1       -0.927   3.368  -0.138  0.00  0.00    +0.520 C 
ATOM     21  O   LIG    1       -1.452   3.310  -1.229  0.00  0.00    -0.540 OA
ENDBRANCH  16  20
ENDBRANCH  10  16
ENDBRANCH   1  15
BRANCH   5  22
ATOM     22  C   LIG    1        0.682  -3.463   4.657  0.00  0.00    +0.110 A 
ATOM     23  C   LIG    1        1.286  -4.453   3.894  0.00  0.00    +0.030 A 
ATOM     24  C   LIG    1        2.226  -5.288   4.466  0.00  0.00    +0.030 A 
ATOM     25  C   LIG    1        2.557  -5.146   5.801  0.00  0.00    +0.020 A 
ATOM     26  C   LIG    1        1.953  -4.165   6.566  0.00  0.00    +0.040 A 
ATOM     27  C   LIG    1        1.017  -3.323   5.997  0.00  0.00    +0.020 A 
ENDBRANCH   5  22
TORSDOF 4
