REMARK  Name = ZINCpe000000WVG5.0
REMARK                            x       y       z     vdW  Elec       q    Type
REMARK                         _______ _______ _______ _____ _____    ______ ____
ROOT
ATOM      1  C   LIG    1       -0.816   3.807   7.342  0.00  0.00    +0.540 C 
ATOM      2  N   LIG    1       -0.417   3.508   6.090  0.00  0.00    -0.720 N 
ATOM      3  H   LIG    1        0.438   3.075   5.944  0.00  0.00    +0.410 HD
ATOM      4  O   LIG    1       -1.886   4.349   7.525  0.00  0.00    -0.520 OA
ENDROOT
BRANCH   1   6
ATOM      5  C   LIG    1        1.084   4.590   8.729  0.00  0.00    +0.080 C 
ATOM      6  C   LIG    1        0.067   3.467   8.515  0.00  0.00    +0.000 C 
BRANCH   6   7
ATOM      7  S   LIG    1       -0.952   3.283  10.005  0.00  0.00    -0.050 S 
BRANCH   7   8
ATOM      8  C   LIG    1        0.198   2.689  11.201  0.00  0.00    -0.090 A 
ATOM      9  C   LIG    1        0.477   1.331  11.284  0.00  0.00    +0.090 A 
ATOM     10  C   LIG    1        1.383   0.870  12.219  0.00  0.00    +0.100 A 
ATOM     11  C   LIG    1        2.005   1.757  13.079  0.00  0.00    -0.020 A 
ATOM     12  C   LIG    1        1.726   3.110  13.002  0.00  0.00    +0.100 A 
ATOM     13  C   LIG    1        0.825   3.578  12.066  0.00  0.00    +0.090 A 
BRANCH  11  14
ATOM     14  N   LIG    1        2.970   1.259  14.083  0.00  0.00    +0.020 N 
ATOM     15  O   LIG    1        3.217   0.068  14.152  0.00  0.00    -0.150 OA
ATOM     16  O   LIG    1        3.518   2.039  14.841  0.00  0.00    -0.150 OA
ENDBRANCH  11  14
ENDBRANCH   7   8
ENDBRANCH   6   7
ENDBRANCH   1   6
BRANCH   2  17
ATOM     17  C   LIG    1       -1.276   3.838   4.950  0.00  0.00    +0.250 C 
BRANCH  17  18
ATOM     18  C   LIG    1       -0.594   3.396   3.653  0.00  0.00    +0.210 C 
BRANCH  18  19
ATOM     19  O   LIG    1        0.658   4.073   3.519  0.00  0.00    -0.540 OA
ATOM     20  H   LIG    1        0.583   5.036   3.488  0.00  0.00    +0.380 HD
ENDBRANCH  18  19
BRANCH  18  21
ATOM     21  C   LIG    1       -1.490   3.741   2.462  0.00  0.00    +0.160 C 
BRANCH  21  22
ATOM     22  N   LIG    1       -0.892   3.211   1.230  0.00  0.00    -0.530 NA
ATOM     23  C   LIG    1       -0.882   1.741   1.239  0.00  0.00    +0.140 C 
ATOM     24  C   LIG    1       -0.199   1.232  -0.033  0.00  0.00    +0.220 C 
ATOM     25  O   LIG    1       -0.875   1.763  -1.177  0.00  0.00    -0.380 OA
ATOM     26  C   LIG    1       -0.902   3.192  -1.218  0.00  0.00    +0.220 C 
ATOM     27  C   LIG    1       -1.593   3.720   0.042  0.00  0.00    +0.150 C 
ENDBRANCH  21  22
ENDBRANCH  18  21
ENDBRANCH  17  18
ENDBRANCH   2  17
TORSDOF 9
