REMARK  Name = ZINCnE000001TwPm.1
REMARK                            x       y       z     vdW  Elec       q    Type
REMARK                         _______ _______ _______ _____ _____    ______ ____
ROOT
ATOM      1  O   LIG    1        5.991  -0.636  -5.756  0.00  0.00    -0.620 OA
ATOM      2  C   LIG    1        5.471  -1.715  -5.966  0.00  0.00    +0.650 C 
ATOM      3  N   LIG    1        5.611  -2.308  -7.168  0.00  0.00    -0.740 N 
ATOM      4  H   LIG    1        5.196  -3.169  -7.335  0.00  0.00    +0.390 HD
ATOM      5  N   LIG    1        4.754  -2.318  -4.996  0.00  0.00    -0.710 NA
ENDROOT
BRANCH   3   6
ATOM      6  C   LIG    1        6.390  -1.653  -8.222  0.00  0.00    +0.250 C 
ATOM      7  C   LIG    1        6.892  -2.684  -9.193  0.00  0.00    +0.020 C 
ATOM      8  C   LIG    1        8.255  -2.309  -9.819  0.00  0.00    +0.000 C 
ATOM      9  C   LIG    1        8.320  -0.808 -10.174  0.00  0.00    +0.190 C 
ATOM     10  O   LIG    1        7.125  -0.335 -10.726  0.00  0.00    -0.370 OA
ATOM     11  C   LIG    1        6.283   0.307  -9.747  0.00  0.00    +0.210 C 
ATOM     12  C   LIG    1        5.493  -0.656  -8.985  0.00  0.00    -0.020 C 
ENDBRANCH   3   6
BRANCH   5  13
ATOM     13  C   LIG    1        4.610  -1.706  -3.756  0.00  0.00    +0.360 A 
ATOM     14  N   LIG    1        5.122  -0.561  -3.429  0.00  0.00    -0.570 NA
ATOM     15  C   LIG    1        4.884  -0.128  -2.205  0.00  0.00    +0.240 A 
ATOM     16  C   LIG    1        4.136  -0.946  -1.463  0.00  0.00    -0.330 A 
ATOM     17  S   LIG    1        3.738  -2.358  -2.438  0.00  0.00    +0.010 S 
BRANCH  16  18
ATOM     18  C   LIG    1        3.711  -0.707  -0.037  0.00  0.00    +0.160 C 
BRANCH  18  19
ATOM     19  C   LIG    1        2.396   0.029  -0.021  0.00  0.00    -0.060 A 
ATOM     20  C   LIG    1        1.208  -0.679  -0.013  0.00  0.00    +0.010 A 
ATOM     21  C   LIG    1        0.002  -0.004   0.002  0.00  0.00    +0.000 A 
ATOM     22  C   LIG    1       -0.017   1.378   0.010  0.00  0.00    -0.020 A 
ATOM     23  C   LIG    1        1.171   2.086   0.002  0.00  0.00    +0.000 A 
ATOM     24  C   LIG    1        2.377   1.411  -0.015  0.00  0.00    +0.000 A 
ENDBRANCH  18  19
ENDBRANCH  16  18
ENDBRANCH   5  13
TORSDOF 4
