REMARK  Name = ZINCrH000004nVE5.0
REMARK                            x       y       z     vdW  Elec       q    Type
REMARK                         _______ _______ _______ _____ _____    ______ ____
ROOT
ATOM      1  C   LIG    1       -0.912  -2.212  -0.610  0.00  0.00    -0.290 A 
ATOM      2  C   LIG    1       -1.814  -3.013  -1.198  0.00  0.00    +0.060 A 
ATOM      3  C   LIG    1       -1.534  -4.377  -1.139  0.00  0.00    -0.250 A 
ATOM      4  C   LIG    1       -0.342  -4.662  -0.465  0.00  0.00    +0.080 A 
ATOM      5  N   LIG    1        0.051  -5.941  -0.333  0.00  0.00    -0.510 NA
ATOM      6  C   LIG    1       -0.632  -6.949  -0.806  0.00  0.00    +0.410 A 
ATOM      7  C   LIG    1       -0.311  -8.432  -0.723  0.00  0.00    +0.160 C 
ATOM      8  C   LIG    1       -1.647  -9.132  -1.054  0.00  0.00    +0.070 C 
ATOM      9  C   LIG    1       -2.359  -8.064  -1.909  0.00  0.00    +0.290 C 
ATOM     10  N   LIG    1       -1.798  -6.772  -1.477  0.00  0.00    -0.550 N 
ATOM     11  C   LIG    1       -2.291  -5.527  -1.670  0.00  0.00    +0.570 A 
ATOM     12  O   LIG    1       -3.339  -5.359  -2.268  0.00  0.00    -0.510 OA
ATOM     13  C   LIG    1       -3.048  -2.474  -1.875  0.00  0.00    +0.140 C 
ATOM     14  S   LIG    1        0.398  -3.159   0.073  0.00  0.00    +0.260 S 
ENDROOT
BRANCH   1  16
ATOM     15  N   LIG    1        0.038  -0.026  -0.102  0.00  0.00    -0.610 N 
ATOM     16  C   LIG    1       -1.006  -0.750  -0.551  0.00  0.00    +0.600 C 
ATOM     17  O   LIG    1       -2.026  -0.190  -0.909  0.00  0.00    -0.520 OA
ATOM     18  C   LIG    1        1.261  -0.700   0.342  0.00  0.00    +0.310 C 
BRANCH  15  19
ATOM     19  C   LIG    1       -0.049   1.436  -0.058  0.00  0.00    +0.350 C 
BRANCH  19  23
ATOM     20  C   LIG    1       -1.606   2.656   3.731  0.00  0.00    -0.080 A 
ATOM     21  C   LIG    1       -0.235   2.511   3.556  0.00  0.00    +0.030 A 
ATOM     22  C   LIG    1        0.264   2.116   2.330  0.00  0.00    +0.040 A 
ATOM     23  C   LIG    1       -0.598   1.866   1.278  0.00  0.00    -0.120 A 
ATOM     24  C   LIG    1       -1.962   2.015   1.448  0.00  0.00    +0.060 A 
ATOM     25  C   LIG    1       -2.469   2.404   2.672  0.00  0.00    -0.020 A 
BRANCH  20  27
ATOM     26  C   LIG    1       -4.038   3.198   5.005  0.00  0.00    +0.130 C 
ATOM     27  S   LIG    1       -2.248   3.160   5.293  0.00  0.00    -0.120 S 
ENDBRANCH  20  27
ENDBRANCH  19  23
ENDBRANCH  15  19
ENDBRANCH   1  16
TORSDOF 4
