REMARK  Name = ZINCrH000004rP1A.0
REMARK                            x       y       z     vdW  Elec       q    Type
REMARK                         _______ _______ _______ _____ _____    ______ ____
ROOT
ATOM      1  C   LIG    1       -4.158   4.767  -1.460  0.00  0.00    +0.130 A 
ATOM      2  C   LIG    1       -4.889   5.169  -0.350  0.00  0.00    -0.040 A 
ATOM      3  C   LIG    1       -6.085   5.844  -0.511  0.00  0.00    +0.060 A 
ATOM      4  C   LIG    1       -6.565   6.114  -1.776  0.00  0.00    +0.010 A 
ATOM      5  C   LIG    1       -5.840   5.708  -2.898  0.00  0.00    -0.090 A 
ATOM      6  C   LIG    1       -4.632   5.032  -2.735  0.00  0.00    +0.060 A 
ENDROOT
BRANCH   5   7
ATOM      7  C   LIG    1       -6.352   5.996  -4.255  0.00  0.00    +0.560 C 
ATOM      8  N   LIG    1       -7.521   6.649  -4.410  0.00  0.00    -0.500 N 
ATOM      9  H   LIG    1       -8.026   6.931  -3.632  0.00  0.00    +0.430 HD
ATOM     10  O   LIG    1       -5.720   5.642  -5.231  0.00  0.00    -0.530 OA
BRANCH   8  11
ATOM     11  N   LIG    1       -8.006   6.922  -5.696  0.00  0.00    -0.490 N 
ATOM     12  H   LIG    1       -7.501   6.640  -6.475  0.00  0.00    +0.450 HD
BRANCH  11  13
ATOM     13  C   LIG    1       -9.206   7.593  -5.856  0.00  0.00    +0.580 A 
ATOM     14  N   LIG    1       -9.886   7.966  -4.781  0.00  0.00    -0.580 NA
ATOM     15  C   LIG    1      -11.033   8.614  -4.899  0.00  0.00    +0.230 A 
ATOM     16  C   LIG    1      -11.527   8.891  -6.164  0.00  0.00    -0.140 A 
ATOM     17  C   LIG    1      -10.793   8.481  -7.266  0.00  0.00    +0.230 A 
ATOM     18  C   LIG    1      -11.291   8.760  -8.660  0.00  0.00    +0.140 C 
ATOM     19  C   LIG    1      -11.797   9.040  -3.671  0.00  0.00    +0.140 C 
ATOM     20  N   LIG    1       -9.650   7.842  -7.079  0.00  0.00    -0.570 NA
ENDBRANCH  11  13
ENDBRANCH   8  11
ENDBRANCH   5   7
BRANCH   1  21
ATOM     21  O   LIG    1       -2.981   4.108  -1.297  0.00  0.00    -0.300 OA
BRANCH  21  22
ATOM     22  C   LIG    1       -2.553   3.869   0.045  0.00  0.00    +0.240 C 
BRANCH  22  28
ATOM     23  C   LIG    1        2.451   3.937   0.000  0.00  0.00    +0.090 C 
ATOM     24  C   LIG    1        1.157   3.165   0.008  0.00  0.00    -0.090 A 
ATOM     25  C   LIG    1        1.175   1.783   0.000  0.00  0.00    +0.010 A 
ATOM     26  C   LIG    1       -0.013   1.076   0.008  0.00  0.00    +0.010 A 
ATOM     27  C   LIG    1       -1.219   1.750   0.017  0.00  0.00    +0.020 A 
ATOM     28  C   LIG    1       -1.238   3.133   0.029  0.00  0.00    -0.100 A 
ATOM     29  C   LIG    1       -0.050   3.840   0.022  0.00  0.00    +0.020 A 
ENDBRANCH  22  28
ENDBRANCH  21  22
ENDBRANCH   1  21
TORSDOF 6
