REMARK  Name = ZINCtV00000L6l1p.0
REMARK                            x       y       z     vdW  Elec       q    Type
REMARK                         _______ _______ _______ _____ _____    ______ ____
ROOT
ATOM      1  C   LIG    1        1.110  -0.366   2.310  0.00  0.00    +0.180 C 
ATOM      2  C   LIG    1        0.499  -0.834   1.014  0.00  0.00    +0.150 A 
ATOM      3  N   LIG    1        0.345  -2.083   0.651  0.00  0.00    -0.330 NA
ATOM      4  N   LIG    1       -0.258  -2.127  -0.611  0.00  0.00    -0.350 N 
ATOM      5  C   LIG    1       -0.628  -3.170  -1.420  0.00  0.00    +0.490 A 
ATOM      6  C   LIG    1       -1.210  -2.900  -2.627  0.00  0.00    -0.170 A 
ATOM      7  C   LIG    1       -1.412  -1.563  -3.007  0.00  0.00    +0.290 A 
ATOM      8  N   LIG    1       -1.042  -0.579  -2.200  0.00  0.00    -0.500 NA
ATOM      9  C   LIG    1       -0.478  -0.837  -1.018  0.00  0.00    +0.330 A 
ATOM     10  C   LIG    1        0.002  -0.004   0.002  0.00  0.00    -0.220 A 
ENDROOT
BRANCH   7  11
ATOM     11  C   LIG    1       -2.042  -1.252  -4.312  0.00  0.00    -0.060 A 
ATOM     12  C   LIG    1       -2.429  -2.284  -5.166  0.00  0.00    +0.040 A 
ATOM     13  C   LIG    1       -3.019  -1.988  -6.378  0.00  0.00    +0.000 A 
ATOM     14  C   LIG    1       -3.218  -0.671  -6.750  0.00  0.00    +0.030 A 
ATOM     15  C   LIG    1       -2.832   0.358  -5.910  0.00  0.00    +0.000 A 
ATOM     16  C   LIG    1       -2.245   0.074  -4.693  0.00  0.00    +0.070 A 
ENDBRANCH   7  11
BRANCH  10  17
ATOM     17  C   LIG    1       -0.018   1.477   0.010  0.00  0.00    +0.020 A 
ATOM     18  C   LIG    1       -1.234   2.160   0.020  0.00  0.00    +0.020 A 
ATOM     19  C   LIG    1       -1.246   3.540   0.032  0.00  0.00    +0.000 A 
ATOM     20  C   LIG    1       -0.056   4.245   0.024  0.00  0.00    +0.000 A 
ATOM     21  C   LIG    1        1.153   3.573   0.010  0.00  0.00    +0.000 A 
ATOM     22  C   LIG    1        1.179   2.193   0.003  0.00  0.00    +0.010 A 
ENDBRANCH  10  17
BRANCH   5  23
ATOM     23  N   LIG    1       -0.418  -4.473  -1.021  0.00  0.00    -0.710 N 
ATOM     24  H   LIG    1       -0.005  -4.657  -0.163  0.00  0.00    +0.420 HD
BRANCH  23  25
ATOM     25  C   LIG    1       -0.818  -5.580  -1.894  0.00  0.00    +0.240 C 
ATOM     26  C   LIG    1       -2.296  -5.903  -1.663  0.00  0.00    +0.000 C 
ATOM     27  C   LIG    1       -2.714  -7.059  -2.575  0.00  0.00    +0.020 C 
ATOM     28  C   LIG    1       -1.866  -8.292  -2.255  0.00  0.00    +0.010 C 
ATOM     29  C   LIG    1       -0.389  -7.969  -2.486  0.00  0.00    +0.020 C 
ATOM     30  C   LIG    1        0.029  -6.813  -1.574  0.00  0.00    +0.010 C 
ENDBRANCH  23  25
ENDBRANCH   5  23
TORSDOF 4
