REMARK  Name = ZINCkj000005m52T.1
REMARK                            x       y       z     vdW  Elec       q    Type
REMARK                         _______ _______ _______ _____ _____    ______ ____
ROOT
ATOM      1  O   LIG    1       -1.684   1.165  -3.138  0.00  0.00    -0.510 OA
ATOM      2  C   LIG    1       -1.090   0.740  -2.170  0.00  0.00    +0.510 C 
ATOM      3  N   LIG    1       -0.734   1.578  -1.176  0.00  0.00    -0.590 N 
ATOM      4  C   LIG    1       -0.013   1.086   0.008  0.00  0.00    +0.250 C 
ATOM      5  C   LIG    1       -0.741   1.585   1.261  0.00  0.00    +0.230 C 
ATOM      6  O   LIG    1       -0.919   3.001   1.169  0.00  0.00    -0.360 OA
ATOM      7  C   LIG    1       -1.734   3.418   0.070  0.00  0.00    +0.210 C 
ATOM      8  C   LIG    1       -1.056   3.013  -1.243  0.00  0.00    +0.300 C 
ENDROOT
BRANCH   7   9
ATOM      9  C   LIG    1       -1.903   4.915   0.108  0.00  0.00    -0.140 A 
ATOM     10  C   LIG    1       -0.960   5.702   0.742  0.00  0.00    +0.080 A 
ATOM     11  C   LIG    1       -1.112   7.076   0.772  0.00  0.00    +0.010 A 
ATOM     12  C   LIG    1       -2.213   7.663   0.178  0.00  0.00    +0.060 A 
ATOM     13  C   LIG    1       -3.160   6.878  -0.452  0.00  0.00    -0.010 A 
ATOM     14  C   LIG    1       -3.006   5.503  -0.488  0.00  0.00    +0.110 A 
ATOM     15  F   LIG    1       -3.931   4.735  -1.104  0.00  0.00    -0.140 F 
ENDBRANCH   7   9
BRANCH   2  16
ATOM     16  C   LIG    1       -0.749  -0.725  -2.078  0.00  0.00    +0.180 C 
ATOM     17  C   LIG    1       -1.401  -1.308  -0.810  0.00  0.00    +0.180 C 
ATOM     18  S   LIG    1       -2.397  -2.714  -1.448  0.00  0.00    -0.140 S 
ATOM     19  C   LIG    1       -1.499  -2.827  -3.051  0.00  0.00    +0.370 C 
ATOM     20  N   LIG    1       -1.197  -1.392  -3.304  0.00  0.00    -0.500 N 
ATOM     21  H   LIG    1       -0.471  -1.326  -4.002  0.00  0.00    +0.440 HD
ATOM     22  H   LIG    1       -2.028  -0.933  -3.647  0.00  0.00    +0.440 HD
ENDBRANCH   2  16
TORSDOF 2
