REMARK  Name = ZINCtV00000L6kaN.0
REMARK                            x       y       z     vdW  Elec       q    Type
REMARK                         _______ _______ _______ _____ _____    ______ ____
ROOT
ATOM      1  O   LIG    1       -2.413  -2.640   2.519  0.00  0.00    -0.510 OA
ATOM      2  C   LIG    1       -1.200  -2.710   2.594  0.00  0.00    +0.550 A 
ATOM      3  C   LIG    1       -0.530  -2.993   3.872  0.00  0.00    -0.200 A 
ATOM      4  C   LIG    1       -1.248  -3.192   5.049  0.00  0.00    +0.100 A 
ATOM      5  C   LIG    1       -0.573  -3.454   6.222  0.00  0.00    +0.000 A 
ATOM      6  C   LIG    1        0.814  -3.520   6.239  0.00  0.00    +0.070 A 
ATOM      7  C   LIG    1        1.544  -3.326   5.087  0.00  0.00    +0.030 A 
ATOM      8  C   LIG    1        0.882  -3.060   3.885  0.00  0.00    +0.160 A 
ATOM      9  N   LIG    1        1.560  -2.864   2.737  0.00  0.00    -0.500 NA
ATOM     10  C   LIG    1        0.945  -2.619   1.609  0.00  0.00    +0.450 A 
ATOM     11  N   LIG    1       -0.416  -2.531   1.505  0.00  0.00    -0.540 N 
ENDROOT
BRANCH  10  12
ATOM     12  C   LIG    1        1.758  -2.422   0.391  0.00  0.00    -0.050 A 
ATOM     13  C   LIG    1        1.504  -3.183  -0.752  0.00  0.00    +0.050 A 
ATOM     14  C   LIG    1        2.262  -2.990  -1.888  0.00  0.00    +0.030 A 
ATOM     15  C   LIG    1        3.282  -2.054  -1.892  0.00  0.00    -0.010 A 
ATOM     16  C   LIG    1        3.543  -1.300  -0.760  0.00  0.00    +0.030 A 
ATOM     17 CL   LIG    1        4.238  -1.822  -3.323  0.00  0.00    -0.060 Cl
ATOM     18  C   LIG    1        2.787  -1.479   0.380  0.00  0.00    +0.110 A 
ENDBRANCH  10  12
BRANCH  11  19
ATOM     19  C   LIG    1       -1.031  -2.247   0.206  0.00  0.00    +0.320 C 
BRANCH  19  20
ATOM     20  C   LIG    1       -1.350  -0.753   0.108  0.00  0.00    +0.210 C 
BRANCH  20  21
ATOM     21  O   LIG    1       -0.136  -0.002   0.169  0.00  0.00    -0.290 OA
BRANCH  21  22
ATOM     22  C   LIG    1       -0.248   1.352   0.178  0.00  0.00    +0.150 A 
ATOM     23  C   LIG    1       -1.490   1.947   0.015  0.00  0.00    -0.040 A 
ATOM     24  C   LIG    1       -1.602   3.325   0.029  0.00  0.00    +0.010 A 
ATOM     25  C   LIG    1       -0.475   4.111   0.195  0.00  0.00    +0.010 A 
ATOM     26  C   LIG    1        0.765   3.520   0.353  0.00  0.00    +0.090 A 
ATOM     27 CL   LIG    1       -3.157   4.071  -0.170  0.00  0.00    -0.050 Cl
ATOM     28  C   LIG    1        0.881   2.143   0.345  0.00  0.00    -0.070 A 
ATOM     29 CL   LIG    1        2.439   1.402   0.542  0.00  0.00    -0.040 Cl
ENDBRANCH  21  22
ENDBRANCH  20  21
ENDBRANCH  19  20
ENDBRANCH  11  19
TORSDOF 5
