REMARK  Name = ZINCqH0000038G6B.0
REMARK                            x       y       z     vdW  Elec       q    Type
REMARK                         _______ _______ _______ _____ _____    ______ ____
ROOT
ATOM      1  C   LIG    1        4.909  -2.700  -0.060  0.00  0.00    +0.520 C 
ATOM      2  O   LIG    1        5.953  -2.079  -0.067  0.00  0.00    -0.490 OA
ENDROOT
BRANCH   1   9
ATOM      3  C   LIG    1       -1.335   2.037   0.019  0.00  0.00    +0.160 C 
ATOM      4  C   LIG    1       -0.016   1.309   0.009  0.00  0.00    +0.130 A 
ATOM      5  N   LIG    1        0.002  -0.004   0.002  0.00  0.00    -0.430 NA
ATOM      6  C   LIG    1        1.173  -0.652  -0.013  0.00  0.00    +0.100 A 
ATOM      7  C   LIG    1        1.218  -2.058  -0.021  0.00  0.00    +0.060 A 
ATOM      8  C   LIG    1        2.414  -2.700  -0.036  0.00  0.00    +0.090 A 
ATOM      9  C   LIG    1        3.620  -1.977  -0.044  0.00  0.00    -0.110 A 
ATOM     10  C   LIG    1        3.609  -0.592  -0.036  0.00  0.00    +0.160 A 
ATOM     11  C   LIG    1        2.381   0.089  -0.020  0.00  0.00    +0.060 A 
ATOM     12  N   LIG    1        2.337   1.427  -0.013  0.00  0.00    -0.410 NA
ATOM     13  C   LIG    1        1.176   2.039   0.002  0.00  0.00    +0.110 A 
ATOM     14  C   LIG    1        1.128   3.546   0.010  0.00  0.00    +0.160 C 
ENDBRANCH   1   9
BRANCH   1  15
ATOM     15  O   LIG    1        4.926  -4.047  -0.068  0.00  0.00    -0.350 OA
BRANCH  15  16
ATOM     16  C   LIG    1        6.227  -4.690  -0.085  0.00  0.00    +0.420 C 
BRANCH  16  17
ATOM     17  C   LIG    1        6.048  -6.186  -0.091  0.00  0.00    +0.180 A 
ATOM     18  N   LIG    1        5.941  -6.952  -1.149  0.00  0.00    -0.450 NA
ATOM     19  C   LIG    1        5.800  -8.210  -0.673  0.00  0.00    +0.240 A 
ATOM     20  N   LIG    1        5.822  -8.134   0.633  0.00  0.00    -0.360 NA
ATOM     21  O   LIG    1        5.964  -6.980   0.981  0.00  0.00    +0.100 OA
BRANCH  19  22
ATOM     22  C   LIG    1        5.645  -9.444  -1.480  0.00  0.00    -0.050 A 
ATOM     23  C   LIG    1        5.633  -9.439  -2.825  0.00  0.00    -0.020 A 
ATOM     24  S   LIG    1        5.438 -11.024  -3.427  0.00  0.00    +0.210 S 
ATOM     25  C   LIG    1        5.374 -11.689  -1.801  0.00  0.00    -0.060 A 
ATOM     26  C   LIG    1        5.505 -10.710  -0.909  0.00  0.00    +0.040 A 
ENDBRANCH  19  22
ENDBRANCH  16  17
ENDBRANCH  15  16
ENDBRANCH   1  15
TORSDOF 5
