REMARK  Name = ZINCqH0000008xuR.0
REMARK                            x       y       z     vdW  Elec       q    Type
REMARK                         _______ _______ _______ _____ _____    ______ ____
ROOT
ATOM      1  S   LIG    1        3.342   1.893   1.218  0.00  0.00    +2.610 S 
ATOM      2  O   LIG    1        3.870   2.010  -0.096  0.00  0.00    -0.950 OA
ATOM      3  O   LIG    1        4.077   1.247   2.249  0.00  0.00    -0.940 OA
ENDROOT
BRANCH   1   4
ATOM      4  N   LIG    1        1.990   0.954   1.032  0.00  0.00    -0.960 NA
BRANCH   4   5
ATOM      5  C   LIG    1        1.503   0.628  -0.311  0.00  0.00    +0.230 C 
ATOM      6  C   LIG    1        0.043   0.953  -0.631  0.00  0.00    +0.010 C 
ATOM      7  C   LIG    1        0.478  -0.500  -0.436  0.00  0.00    +0.020 C 
ENDBRANCH   4   5
BRANCH   4   9
ATOM      8  C   LIG    1        2.114   0.724   3.464  0.00  0.00    +0.060 C 
ATOM      9  C   LIG    1        1.280   0.450   2.211  0.00  0.00    +0.290 C 
BRANCH   9  10
ATOM     10  C   LIG    1       -0.051   1.146   2.331  0.00  0.00    -0.100 A 
ATOM     11  C   LIG    1       -0.172   2.474   1.968  0.00  0.00    +0.000 A 
ATOM     12  C   LIG    1       -1.395   3.111   2.074  0.00  0.00    +0.000 A 
ATOM     13  C   LIG    1       -2.494   2.423   2.552  0.00  0.00    +0.000 A 
ATOM     14  C   LIG    1       -2.372   1.096   2.920  0.00  0.00    +0.010 A 
ATOM     15  C   LIG    1       -1.150   0.458   2.809  0.00  0.00    +0.010 A 
ENDBRANCH   9  10
ENDBRANCH   4   9
ENDBRANCH   1   4
BRANCH   1  16
ATOM     16  C   LIG    1        2.707   3.491   1.794  0.00  0.00    -0.360 C 
BRANCH  16  17
ATOM     17  C   LIG    1        3.880   4.433   2.077  0.00  0.00    +0.120 C 
BRANCH  17  18
ATOM     18  C   LIG    1        3.353   5.761   2.555  0.00  0.00    -0.110 A 
ATOM     19  C   LIG    1        3.073   6.765   1.647  0.00  0.00    +0.050 A 
ATOM     20  C   LIG    1        2.590   7.983   2.080  0.00  0.00    +0.000 A 
ATOM     21  C   LIG    1        2.389   8.215   3.438  0.00  0.00    +0.110 A 
ATOM     22  O   LIG    1        1.943   9.331   4.076  0.00  0.00    -0.300 OA
ATOM     23  C   LIG    1        1.491   8.975   5.394  0.00  0.00    +0.240 C 
ATOM     24  C   LIG    1        2.345   7.728   5.724  0.00  0.00    +0.070 C 
ATOM     25  C   LIG    1        2.672   7.198   4.341  0.00  0.00    -0.170 A 
ATOM     26  C   LIG    1        3.152   5.983   3.907  0.00  0.00    +0.070 A 
ENDBRANCH  17  18
ENDBRANCH  16  17
ENDBRANCH   1  16
TORSDOF 7
