REMARK  Name = ZINCrD000000D7GD.0
REMARK                            x       y       z     vdW  Elec       q    Type
REMARK                         _______ _______ _______ _____ _____    ______ ____
ROOT
ATOM      1  C   LIG    1        0.008   0.321   3.633  0.00  0.00    -0.710 A 
ATOM      2  C   LIG    1       -0.278   0.716   4.927  0.00  0.00    +0.190 A 
ATOM      3  C   LIG    1        0.735   0.668   5.875  0.00  0.00    -0.050 A 
ATOM      4  C   LIG    1        1.993   0.241   5.499  0.00  0.00    +0.340 A 
ATOM      5  N   LIG    1        2.239  -0.126   4.256  0.00  0.00    -0.520 NA
ATOM      6  C   LIG    1        1.298  -0.100   3.325  0.00  0.00    +0.390 A 
ENDROOT
BRANCH   6   7
ATOM      7  N   LIG    1        1.602  -0.495   2.027  0.00  0.00    -0.480 N 
ATOM      8  C   LIG    1        2.523  -1.652   2.027  0.00  0.00    +0.200 C 
ATOM      9  C   LIG    1        3.445  -1.496   0.804  0.00  0.00    +0.040 C 
ATOM     10  C   LIG    1        3.009  -0.171   0.136  0.00  0.00    +0.050 C 
ATOM     11  C   LIG    1        2.309   0.585   1.293  0.00  0.00    +0.220 C 
BRANCH  10  12
ATOM     12  C   LIG    1        4.208   0.598  -0.355  0.00  0.00    -0.050 A 
ATOM     13  C   LIG    1        4.361   0.850  -1.706  0.00  0.00    +0.010 A 
ATOM     14  C   LIG    1        5.461   1.556  -2.158  0.00  0.00    +0.040 A 
ATOM     15  C   LIG    1        6.408   2.010  -1.261  0.00  0.00    -0.020 A 
ATOM     16  C   LIG    1        6.256   1.758   0.092  0.00  0.00    +0.100 A 
ATOM     17  F   LIG    1        7.182   2.201   0.971  0.00  0.00    -0.140 F 
ATOM     18  C   LIG    1        5.152   1.055   0.545  0.00  0.00    -0.020 A 
ENDBRANCH  10  12
ENDBRANCH   6   7
BRANCH   1  20
ATOM     19  O   LIG    1       -0.674   1.019   1.270  0.00  0.00    -0.940 OA
ATOM     20  S   LIG    1       -1.241   0.354   2.391  0.00  0.00    +2.710 S 
ATOM     21  O   LIG    1       -2.432   0.789   3.032  0.00  0.00    -0.960 OA
BRANCH  20  22
ATOM     22  N   LIG    1       -1.508  -1.211   1.921  0.00  0.00    -0.990 NA
ATOM     23  C   LIG    1       -2.421  -2.075   2.681  0.00  0.00    +0.280 C 
ATOM     24  C   LIG    1       -3.462  -2.662   1.723  0.00  0.00    +0.020 C 
ATOM     25  C   LIG    1       -2.746  -3.365   0.567  0.00  0.00    +0.000 C 
ATOM     26  C   LIG    1       -1.898  -2.351  -0.203  0.00  0.00    +0.000 C 
ATOM     27  C   LIG    1       -0.839  -1.761   0.734  0.00  0.00    +0.300 C 
ENDBRANCH  20  22
ENDBRANCH   1  20
TORSDOF 4
