REMARK  Name = ZINCtj0000002q5i.1
REMARK                            x       y       z     vdW  Elec       q    Type
REMARK                         _______ _______ _______ _____ _____    ______ ____
ROOT
ATOM      1  N   LIG    1       -8.024  -2.059  -2.043  0.00  0.00    -0.390 N 
ATOM      2  C   LIG    1       -7.414  -1.357  -3.200  0.00  0.00    +0.260 C 
ATOM      3  C   LIG    1       -7.044   0.033  -2.618  0.00  0.00    +0.070 C 
ATOM      4  C   LIG    1       -6.575  -0.310  -1.185  0.00  0.00    +0.280 C 
ATOM      5  C   LIG    1       -7.216  -1.673  -0.866  0.00  0.00    +0.270 C 
ATOM      6  H   LIG    1       -8.981  -1.763  -1.921  0.00  0.00    +0.430 HD
ENDROOT
BRANCH   4   7
ATOM      7  N   LIG    1       -5.115  -0.411  -1.138  0.00  0.00    -0.750 N 
ATOM      8  H   LIG    1       -4.683  -1.270  -1.270  0.00  0.00    +0.400 HD
ATOM      9  C   LIG    1       -4.370   0.689  -0.911  0.00  0.00    +0.710 C 
ATOM     10  N   LIG    1       -3.026   0.596  -0.868  0.00  0.00    -0.720 N 
ATOM     11  H   LIG    1       -2.595  -0.263  -1.000  0.00  0.00    +0.400 HD
ATOM     12  O   LIG    1       -4.910   1.766  -0.745  0.00  0.00    -0.560 OA
BRANCH  10  13
ATOM     13  C   LIG    1       -2.216   1.792  -0.622  0.00  0.00    +0.260 C 
ATOM     14  C   LIG    1       -0.798   1.617  -1.212  0.00  0.00    +0.070 C 
ATOM     15  C   LIG    1       -0.013   1.086   0.008  0.00  0.00    +0.270 C 
ATOM     16  N   LIG    1       -0.737   1.577   1.186  0.00  0.00    -0.590 N 
ATOM     17  C   LIG    1       -1.981   1.975   0.862  0.00  0.00    +0.500 C 
ATOM     18  O   LIG    1       -2.795   2.417   1.645  0.00  0.00    -0.500 OA
BRANCH  16  19
ATOM     19  C   LIG    1       -0.176   1.628   2.539  0.00  0.00    +0.200 C 
ATOM     20  C   LIG    1       -1.128   1.978   3.685  0.00  0.00    +0.040 C 
ATOM     21  C   LIG    1       -0.088   2.998   3.216  0.00  0.00    +0.010 C 
ENDBRANCH  16  19
ENDBRANCH  10  13
ENDBRANCH   4   7
BRANCH   1  22
ATOM     22  C   LIG    1       -7.965  -3.514  -2.243  0.00  0.00    +0.330 C 
BRANCH  22  25
ATOM     23  C   LIG    1       -9.265  -4.298  -5.704  0.00  0.00    +0.180 A 
ATOM     24  C   LIG    1       -8.417  -3.938  -4.666  0.00  0.00    -0.030 A 
ATOM     25  C   LIG    1       -8.888  -3.904  -3.368  0.00  0.00    -0.080 A 
ATOM     26  C   LIG    1      -10.203  -4.232  -3.099  0.00  0.00    -0.030 A 
ATOM     27  C   LIG    1      -11.057  -4.586  -4.134  0.00  0.00    +0.180 A 
ATOM     28  C   LIG    1      -10.587  -4.622  -5.437  0.00  0.00    -0.120 A 
BRANCH  23  30
ATOM     29  C   LIG    1       -9.730  -4.710  -7.999  0.00  0.00    +0.250 C 
ATOM     30  O   LIG    1       -8.802  -4.332  -6.981  0.00  0.00    -0.310 OA
ENDBRANCH  23  30
BRANCH  27  31
ATOM     31  O   LIG    1      -12.352  -4.903  -3.869  0.00  0.00    -0.310 OA
ATOM     32  C   LIG    1      -13.172  -5.264  -4.982  0.00  0.00    +0.250 C 
ENDBRANCH  27  31
ENDBRANCH  22  25
ENDBRANCH   1  22
TORSDOF 7
