REMARK  Name = ZINCtj0000002q5i.2
REMARK                            x       y       z     vdW  Elec       q    Type
REMARK                         _______ _______ _______ _____ _____    ______ ____
ROOT
ATOM      1  N   LIG    1       -3.620   1.040  -0.235  0.00  0.00    -0.390 N 
ATOM      2  C   LIG    1       -3.298   2.072  -1.244  0.00  0.00    +0.270 C 
ATOM      3  C   LIG    1       -1.760   1.983  -1.430  0.00  0.00    +0.060 C 
ATOM      4  C   LIG    1       -1.290   1.681   0.017  0.00  0.00    +0.280 C 
ATOM      5  C   LIG    1       -2.414   0.781   0.572  0.00  0.00    +0.270 C 
ATOM      6  H   LIG    1       -3.907   0.191  -0.699  0.00  0.00    +0.430 HD
ENDROOT
BRANCH   4   7
ATOM      7  N   LIG    1       -0.011   0.966   0.007  0.00  0.00    -0.740 N 
ATOM      8  H   LIG    1        0.002  -0.004   0.002  0.00  0.00    +0.400 HD
ATOM      9  C   LIG    1        1.147   1.655   0.000  0.00  0.00    +0.710 C 
ATOM     10  N   LIG    1        2.323   0.998  -0.015  0.00  0.00    -0.720 N 
ATOM     11  H   LIG    1        2.336   0.028  -0.020  0.00  0.00    +0.400 HD
ATOM     12  O   LIG    1        1.130   2.871   0.007  0.00  0.00    -0.560 OA
BRANCH  10  13
ATOM     13  C   LIG    1        3.582   1.747  -0.023  0.00  0.00    +0.260 C 
ATOM     14  C   LIG    1        4.723   0.883  -0.608  0.00  0.00    +0.060 C 
ATOM     15  C   LIG    1        5.924   1.316   0.262  0.00  0.00    +0.270 C 
ATOM     16  N   LIG    1        5.343   1.790   1.524  0.00  0.00    -0.590 N 
ATOM     17  C   LIG    1        4.028   2.048   1.391  0.00  0.00    +0.500 C 
ATOM     18  O   LIG    1        3.306   2.460   2.275  0.00  0.00    -0.510 OA
BRANCH  16  19
ATOM     19  C   LIG    1        6.097   1.962   2.768  0.00  0.00    +0.210 C 
ATOM     20  C   LIG    1        5.303   2.270   4.038  0.00  0.00    +0.040 C 
ATOM     21  C   LIG    1        6.143   3.365   3.377  0.00  0.00    +0.000 C 
ENDBRANCH  16  19
ENDBRANCH  10  13
ENDBRANCH   4   7
BRANCH   1  22
ATOM     22  C   LIG    1       -4.703   1.519   0.633  0.00  0.00    +0.330 C 
BRANCH  22  25
ATOM     23  C   LIG    1       -8.005   0.732  -1.031  0.00  0.00    +0.180 A 
ATOM     24  C   LIG    1       -6.840   0.600  -0.288  0.00  0.00    -0.030 A 
ATOM     25  C   LIG    1       -5.967   1.665  -0.175  0.00  0.00    -0.080 A 
ATOM     26  C   LIG    1       -6.254   2.865  -0.796  0.00  0.00    -0.030 A 
ATOM     27  C   LIG    1       -7.415   3.001  -1.544  0.00  0.00    +0.180 A 
ATOM     28  C   LIG    1       -8.292   1.934  -1.659  0.00  0.00    -0.130 A 
BRANCH  23  30
ATOM     29  C   LIG    1      -10.043  -0.108  -1.921  0.00  0.00    +0.250 C 
ATOM     30  O   LIG    1       -8.864  -0.315  -1.141  0.00  0.00    -0.310 OA
ENDBRANCH  23  30
BRANCH  27  31
ATOM     31  O   LIG    1       -7.694   4.181  -2.159  0.00  0.00    -0.310 OA
ATOM     32  C   LIG    1       -8.909   4.251  -2.907  0.00  0.00    +0.250 C 
ENDBRANCH  27  31
ENDBRANCH  22  25
ENDBRANCH   1  22
TORSDOF 7
