REMARK  Name = ZINCpk00000y6uR9.0
REMARK                            x       y       z     vdW  Elec       q    Type
REMARK                         _______ _______ _______ _____ _____    ______ ____
ROOT
ATOM      1  C   LIG    1       -2.497  -0.007   0.008  0.00  0.00    +0.570 C 
ATOM      2  N   LIG    1       -3.650  -0.700  -0.069  0.00  0.00    -0.610 N 
ATOM      3  C   LIG    1       -3.625  -2.165  -0.077  0.00  0.00    +0.290 C 
ATOM      4  O   LIG    1       -2.522   1.204   0.114  0.00  0.00    -0.510 OA
ENDROOT
BRANCH   1  11
ATOM      5  C   LIG    1       -0.085  -0.127  -0.641  0.00  0.00    +0.380 A 
ATOM      6  N   LIG    1        1.069  -0.769  -0.683  0.00  0.00    -0.540 NA
ATOM      7  C   LIG    1        1.217  -1.969  -0.154  0.00  0.00    +0.200 A 
ATOM      8  C   LIG    1        0.160  -2.616   0.460  0.00  0.00    -0.070 A 
ATOM      9  C   LIG    1       -1.074  -1.992   0.527  0.00  0.00    +0.140 A 
ATOM     10  C   LIG    1        2.559  -2.650  -0.227  0.00  0.00    +0.140 C 
ATOM     11  C   LIG    1       -1.205  -0.717  -0.035  0.00  0.00    -0.220 A 
BRANCH   5  13
ATOM     12  C   LIG    1        0.987   1.650  -1.792  0.00  0.00    +0.260 C 
ATOM     13  O   LIG    1       -0.190   1.106  -1.191  0.00  0.00    -0.280 OA
ENDBRANCH   5  13
ENDBRANCH   1  11
BRANCH   2  14
ATOM     14  C   LIG    1       -4.929   0.011  -0.145  0.00  0.00    +0.300 C 
BRANCH  14  15
ATOM     15  C   LIG    1       -5.283   0.268  -1.611  0.00  0.00    +0.160 C 
ATOM     16  O   LIG    1       -5.540  -0.980  -2.278  0.00  0.00    -0.370 OA
ATOM     17  C   LIG    1       -6.571  -0.730  -3.257  0.00  0.00    +0.220 C 
ATOM     18  C   LIG    1       -7.543   0.228  -2.522  0.00  0.00    +0.020 C 
ATOM     19  C   LIG    1       -6.572   1.109  -1.700  0.00  0.00    +0.100 C 
BRANCH  19  20
ATOM     20  C   LIG    1       -7.129   1.365  -0.323  0.00  0.00    +0.180 A 
ATOM     21  N   LIG    1       -6.912   2.420   0.415  0.00  0.00    -0.280 NA
ATOM     22  N   LIG    1       -7.547   2.308   1.527  0.00  0.00    -0.290 NA
ATOM     23  C   LIG    1       -8.191   1.173   1.553  0.00  0.00    +0.180 A 
ATOM     24  C   LIG    1       -9.050   0.659   2.680  0.00  0.00    +0.200 C 
ATOM     25  N   LIG    1       -7.944   0.542   0.380  0.00  0.00    -0.580 N 
ATOM     26  H   LIG    1       -8.282  -0.323   0.099  0.00  0.00    +0.430 HD
ENDBRANCH  19  20
ENDBRANCH  14  15
ENDBRANCH   2  14
TORSDOF 5
