REMARK  Name = ZINCrD000000Cu6W.0
REMARK                            x       y       z     vdW  Elec       q    Type
REMARK                         _______ _______ _______ _____ _____    ______ ____
ROOT
ATOM      1  O   LIG    1       -1.682  -2.176  -0.108  0.00  0.00    -0.530 OA
ATOM      2  C   LIG    1       -2.814  -2.596  -0.003  0.00  0.00    +0.520 C 
ATOM      3  N   LIG    1       -3.032  -3.918   0.150  0.00  0.00    -0.610 N 
ATOM      4  C   LIG    1       -1.905  -4.849   0.300  0.00  0.00    +0.280 C 
ATOM      5  C   LIG    1       -2.123  -5.677   1.576  0.00  0.00    +0.040 C 
ATOM      6  C   LIG    1       -3.493  -6.354   1.510  0.00  0.00    +0.080 C 
ATOM      7  C   LIG    1       -4.588  -5.288   1.436  0.00  0.00    +0.040 C 
ATOM      8  C   LIG    1       -4.399  -4.455   0.165  0.00  0.00    +0.280 C 
ENDROOT
BRANCH   2   9
ATOM      9  C   LIG    1       -3.979  -1.641  -0.045  0.00  0.00    -0.010 C 
ATOM     10  C   LIG    1       -4.537  -1.574  -1.470  0.00  0.00    +0.010 C 
ATOM     11  C   LIG    1       -5.669  -0.545  -1.519  0.00  0.00    +0.220 C 
ATOM     12  O   LIG    1       -5.176   0.725  -1.088  0.00  0.00    -0.370 OA
ATOM     13  C   LIG    1       -4.684   0.734   0.253  0.00  0.00    +0.120 C 
ATOM     14  C   LIG    1       -4.212   2.145   0.615  0.00  0.00    +0.030 C 
ATOM     15  C   LIG    1       -5.407   3.102   0.567  0.00  0.00    +0.220 C 
ATOM     16  O   LIG    1       -6.422   2.639   1.459  0.00  0.00    -0.380 OA
ATOM     17  C   LIG    1       -6.935   1.344   1.140  0.00  0.00    +0.220 C 
ATOM     18  C   LIG    1       -5.802   0.317   1.212  0.00  0.00    -0.020 C 
ATOM     19  C   LIG    1       -3.514  -0.244   0.376  0.00  0.00    +0.050 C 
ENDBRANCH   2   9
BRANCH   6  20
ATOM     20  C   LIG    1       -3.696  -7.197   2.743  0.00  0.00    +0.060 A 
ATOM     21  N   LIG    1       -3.689  -6.752   3.946  0.00  0.00    -0.460 NA
ATOM     22  C   LIG    1       -3.887  -7.626   4.936  0.00  0.00    +0.050 A 
ATOM     23  C   LIG    1       -4.061  -8.881   4.503  0.00  0.00    -0.250 A 
ATOM     24  C   LIG    1       -4.276  -9.830   5.667  0.00  0.00    +0.130 C 
ATOM     25  C   LIG    1       -4.647  -8.918   6.855  0.00  0.00    +0.050 C 
ATOM     26  C   LIG    1       -3.966  -7.593   6.459  0.00  0.00    +0.130 C 
ATOM     27  S   LIG    1       -3.961  -8.884   2.740  0.00  0.00    +0.130 S 
ENDBRANCH   6  20
TORSDOF 2
