REMARK  Name = ZINCqH0000004fX6.0
REMARK                            x       y       z     vdW  Elec       q    Type
REMARK                         _______ _______ _______ _____ _____    ______ ____
ROOT
ATOM      1  C   LIG    1       -0.670   6.142  -0.099  0.00  0.00    +0.520 C 
ATOM      2  N   LIG    1        0.491   5.940  -0.752  0.00  0.00    -0.680 N 
ATOM      3  H   LIG    1        1.052   6.695  -0.988  0.00  0.00    +0.420 HD
ATOM      4  O   LIG    1       -1.315   5.194   0.298  0.00  0.00    -0.500 OA
ENDROOT
BRANCH   2   5
ATOM      5  C   LIG    1        0.887   4.641  -1.090  0.00  0.00    +0.200 A 
ATOM      6  C   LIG    1        1.516   4.399  -2.305  0.00  0.00    -0.030 A 
ATOM      7  C   LIG    1        1.905   3.116  -2.636  0.00  0.00    +0.140 A 
ATOM      8  C   LIG    1        1.670   2.073  -1.759  0.00  0.00    -0.690 A 
ATOM      9  C   LIG    1        1.039   2.310  -0.551  0.00  0.00    +0.140 A 
ATOM     10  C   LIG    1        0.652   3.591  -0.212  0.00  0.00    +0.010 A 
BRANCH   8  11
ATOM     11  S   LIG    1        2.167   0.437  -2.185  0.00  0.00    +2.690 S 
ATOM     12  O   LIG    1        2.245   0.398  -3.603  0.00  0.00    -0.950 OA
ATOM     13  O   LIG    1        1.347  -0.442  -1.427  0.00  0.00    -0.950 OA
BRANCH  11  14
ATOM     14  N   LIG    1        3.713   0.234  -1.626  0.00  0.00    -1.010 NA
ATOM     15  C   LIG    1        4.852   0.570  -2.483  0.00  0.00    +0.300 C 
ATOM     16  C   LIG    1        3.941  -0.282  -0.274  0.00  0.00    +0.290 C 
ENDBRANCH  11  14
ENDBRANCH   8  11
ENDBRANCH   2   5
BRANCH   1  17
ATOM     17  C   LIG    1       -1.167   7.545   0.139  0.00  0.00    +0.050 C 
BRANCH  17  18
ATOM     18  C   LIG    1       -2.626   7.504   0.515  0.00  0.00    -0.070 A 
ATOM     19  C   LIG    1       -3.020   6.895   1.692  0.00  0.00    +0.040 A 
ATOM     20  C   LIG    1       -4.358   6.861   2.038  0.00  0.00    +0.000 A 
ATOM     21  C   LIG    1       -5.302   7.428   1.204  0.00  0.00    +0.000 A 
ATOM     22  C   LIG    1       -4.909   8.032   0.024  0.00  0.00    +0.000 A 
ATOM     23  C   LIG    1       -3.571   8.069  -0.321  0.00  0.00    +0.010 A 
ENDBRANCH  17  18
BRANCH  17  24
ATOM     24  C   LIG    1       -0.366   8.184   1.274  0.00  0.00    +0.000 C 
ATOM     25  C   LIG    1        1.125   7.912   1.063  0.00  0.00    +0.020 C 
BRANCH  24  27
ATOM     26  C   LIG    1       -2.043   9.974   1.749  0.00  0.00    +0.010 C 
ATOM     27  C   LIG    1       -0.612   9.694   1.285  0.00  0.00    +0.020 C 
ENDBRANCH  24  27
ENDBRANCH  17  24
ENDBRANCH   1  17
TORSDOF 7
