REMARK  Name = ZINCqH0000005oXM.0
REMARK                            x       y       z     vdW  Elec       q    Type
REMARK                         _______ _______ _______ _____ _____    ______ ____
ROOT
ATOM      1  C   LIG    1        4.177  -0.895   1.416  0.00  0.00    +0.470 C 
ATOM      2  O   LIG    1        5.230  -0.420   1.770  0.00  0.00    -0.490 OA
ENDROOT
BRANCH   1   6
ATOM      3  C   LIG    1        6.090   2.142  -0.200  0.00  0.00    +0.310 C 
ATOM      4  N   LIG    1        4.797   1.466  -0.337  0.00  0.00    -0.610 N 
ATOM      5  C   LIG    1        4.756   0.075  -0.786  0.00  0.00    +0.320 C 
ATOM      6  C   LIG    1        3.712  -0.720  -0.006  0.00  0.00    +0.080 C 
ATOM      7  C   LIG    1        2.394   0.009  -0.015  0.00  0.00    -0.060 A 
ATOM      8  C   LIG    1        1.206  -0.689  -0.008  0.00  0.00    +0.040 A 
ATOM      9  C   LIG    1        0.002  -0.004   0.002  0.00  0.00    +0.040 A 
ATOM     10  C   LIG    1       -0.017   1.379   0.010  0.00  0.00    +0.010 A 
ATOM     11  C   LIG    1        1.168   2.089   0.002  0.00  0.00    +0.080 A 
ATOM     12  C   LIG    1        2.381   1.405  -0.016  0.00  0.00    -0.130 A 
ATOM     13  C   LIG    1        3.665   2.135  -0.049  0.00  0.00    +0.560 C 
ATOM     14  O   LIG    1        3.699   3.328   0.183  0.00  0.00    -0.530 OA
ENDBRANCH   1   6
BRANCH   1  15
ATOM     15  O   LIG    1        3.422  -1.579   2.290  0.00  0.00    -0.350 OA
BRANCH  15  16
ATOM     16  C   LIG    1        3.932  -1.709   3.643  0.00  0.00    +0.220 C 
BRANCH  16  17
ATOM     17  C   LIG    1        2.942  -2.514   4.487  0.00  0.00    +0.090 C 
BRANCH  17  18
ATOM     18  C   LIG    1        3.472  -2.648   5.891  0.00  0.00    -0.110 C 
ATOM     19  C   LIG    1        3.109  -1.815   6.840  0.00  0.00    -0.030 C 
ATOM     20  C   LIG    1        3.656  -1.989   8.235  0.00  0.00    +0.080 C 
ATOM     21  C   LIG    1        4.662  -3.149   8.256  0.00  0.00    -0.030 C 
ATOM     22  C   LIG    1        4.058  -4.409   7.602  0.00  0.00    +0.030 C 
ATOM     23  C   LIG    1        5.640  -3.111   7.070  0.00  0.00    -0.080 C 
ATOM     24  C   LIG    1        6.844  -4.042   7.229  0.00  0.00    +0.050 C 
ATOM     25  C   LIG    1        6.027  -1.698   6.630  0.00  0.00    +0.030 C 
ATOM     26  C   LIG    1        4.441  -3.756   6.266  0.00  0.00    +0.020 C 
ENDBRANCH  17  18
ENDBRANCH  16  17
ENDBRANCH  15  16
ENDBRANCH   1  15
TORSDOF 5
