REMARK  Name = ZINCpe000000UVYL.0
REMARK                            x       y       z     vdW  Elec       q    Type
REMARK                         _______ _______ _______ _____ _____    ______ ____
ROOT
ATOM      1  C   LIG    1        5.204  -1.623   2.943  0.00  0.00    +0.220 C 
ATOM      2  C   LIG    1        5.645  -2.255   4.267  0.00  0.00    +0.040 C 
ATOM      3  C   LIG    1        4.792  -3.495   4.545  0.00  0.00    +0.020 C 
ATOM      4  C   LIG    1        3.322  -3.088   4.670  0.00  0.00    +0.010 C 
ATOM      5  C   LIG    1        2.855  -2.464   3.356  0.00  0.00    +0.280 C 
ATOM      6  N   LIG    1        3.759  -1.361   3.002  0.00  0.00    -0.600 N 
ATOM      7  C   LIG    1        3.273  -0.132   2.741  0.00  0.00    +0.510 C 
ATOM      8  O   LIG    1        4.034   0.787   2.522  0.00  0.00    -0.500 OA
ENDROOT
BRANCH   1  12
ATOM      9  C   LIG    1        7.343   1.139   1.378  0.00  0.00    +0.290 C 
ATOM     10  N   LIG    1        6.624  -0.120   1.585  0.00  0.00    -0.740 N 
ATOM     11  H   LIG    1        6.637  -0.805   0.898  0.00  0.00    +0.400 HD
ATOM     12  C   LIG    1        5.944  -0.328   2.730  0.00  0.00    +0.530 C 
ATOM     13  O   LIG    1        5.928   0.528   3.589  0.00  0.00    -0.520 OA
ENDBRANCH   1  12
BRANCH   7  14
ATOM     14  C   LIG    1        1.784   0.102   2.722  0.00  0.00    +0.060 C 
BRANCH  14  15
ATOM     15  C   LIG    1        1.503   1.571   2.404  0.00  0.00    +0.140 C 
BRANCH  15  16
ATOM     16  C   LIG    1        0.014   1.805   2.385  0.00  0.00    -0.190 A 
ATOM     17  C   LIG    1       -0.624   2.260   3.494  0.00  0.00    +0.210 A 
ATOM     18  N   LIG    1       -1.968   2.460   3.446  0.00  0.00    -0.330 N 
ATOM     19  N   LIG    1       -2.908   2.909   4.383  0.00  0.00    -0.340 NA
ATOM     20  C   LIG    1       -4.076   2.907   3.787  0.00  0.00    +0.480 A 
ATOM     21  N   LIG    1       -3.938   2.487   2.537  0.00  0.00    -0.530 NA
ATOM     22  C   LIG    1       -2.662   2.206   2.296  0.00  0.00    +0.450 A 
ATOM     23  N   LIG    1       -2.024   1.762   1.207  0.00  0.00    -0.460 NA
ATOM     24  C   LIG    1        0.146   2.539   4.759  0.00  0.00    +0.160 C 
ATOM     25  C   LIG    1       -0.727   1.554   1.224  0.00  0.00    +0.240 A 
ATOM     26  C   LIG    1       -0.033   1.049  -0.015  0.00  0.00    +0.160 C 
ENDBRANCH  15  16
ENDBRANCH  14  15
ENDBRANCH   7  14
TORSDOF 4
