REMARK  Name = ZINCtj00001ywpRj.0
REMARK                            x       y       z     vdW  Elec       q    Type
REMARK                         _______ _______ _______ _____ _____    ______ ____
ROOT
ATOM      1  N   LIG    1        4.502   8.331   0.699  0.00  0.00    -0.470 N 
ATOM      2  C   LIG    1        5.768   7.598   0.832  0.00  0.00    +0.210 C 
ATOM      3  C   LIG    1        5.828   6.492  -0.227  0.00  0.00    +0.300 C 
ATOM      4  N   LIG    1        4.616   5.667  -0.110  0.00  0.00    -0.610 N 
ATOM      5  C   LIG    1        3.310   6.345  -0.103  0.00  0.00    +0.300 C 
ATOM      6  C   LIG    1        4.699   4.325  -0.016  0.00  0.00    +0.590 C 
ATOM      7  O   LIG    1        5.787   3.788   0.066  0.00  0.00    -0.510 OA
ATOM      8  C   LIG    1        3.350   7.457   0.957  0.00  0.00    +0.200 C 
ENDROOT
BRANCH   6   9
ATOM      9  C   LIG    1        3.473   3.510  -0.014  0.00  0.00    -0.230 A 
ATOM     10  C   LIG    1        2.769   3.298  -1.187  0.00  0.00    +0.180 A 
ATOM     11  C   LIG    1        1.596   2.509  -1.149  0.00  0.00    -0.180 A 
ATOM     12  C   LIG    1        0.857   2.274  -2.320  0.00  0.00    +0.150 A 
ATOM     13  C   LIG    1       -0.279   1.496  -2.228  0.00  0.00    -0.050 A 
ATOM     14  C   LIG    1       -0.652   0.978  -0.996  0.00  0.00    +0.350 A 
ATOM     15  N   LIG    1        0.053   1.209   0.091  0.00  0.00    -0.520 NA
ATOM     16  C   LIG    1        1.155   1.949   0.067  0.00  0.00    +0.390 A 
ATOM     17  N   LIG    1        1.861   2.164   1.228  0.00  0.00    -0.610 N 
ATOM     18  H   LIG    1        1.546   1.773   2.058  0.00  0.00    +0.430 HD
ATOM     19  C   LIG    1        2.981   2.909   1.230  0.00  0.00    +0.560 A 
ATOM     20  O   LIG    1        3.590   3.086   2.270  0.00  0.00    -0.510 OA
ENDBRANCH   6   9
BRANCH   1  24
ATOM     21  C   LIG    1        4.468  11.613   3.178  0.00  0.00    -0.260 A 
ATOM     22  C   LIG    1        3.353  11.372   2.386  0.00  0.00    +0.120 A 
ATOM     23  C   LIG    1        3.363  10.272   1.547  0.00  0.00    -0.040 A 
ATOM     24  C   LIG    1        4.480   9.443   1.533  0.00  0.00    +0.350 A 
ATOM     25  N   LIG    1        5.524   9.706   2.304  0.00  0.00    -0.510 NA
ATOM     26  C   LIG    1        5.544  10.751   3.109  0.00  0.00    +0.330 A 
BRANCH  21  27
ATOM     27  C   LIG    1        4.503  12.803   4.102  0.00  0.00    +0.330 C 
BRANCH  27  29
ATOM     28  C   LIG    1        4.167  14.344   2.295  0.00  0.00    +0.310 C 
ATOM     29  N   LIG    1        5.066  13.958   3.391  0.00  0.00    -0.390 N 
ATOM     30  C   LIG    1        5.211  15.084   4.324  0.00  0.00    +0.310 C 
ATOM     31  H   LIG    1        5.970  13.714   3.015  0.00  0.00    +0.430 HD
ENDBRANCH  27  29
ENDBRANCH  21  27
ENDBRANCH   1  24
TORSDOF 4
