REMARK  Name = ZINCpk00000xI4QB.0
REMARK                            x       y       z     vdW  Elec       q    Type
REMARK                         _______ _______ _______ _____ _____    ______ ____
ROOT
ATOM      1  C   LIG    1        0.411  -1.368  -1.997  0.00  0.00    +0.620 C 
ATOM      2  N   LIG    1        0.747  -0.288  -1.264  0.00  0.00    -0.610 N 
ATOM      3  C   LIG    1       -0.225   0.345  -0.358  0.00  0.00    +0.260 C 
ATOM      4  C   LIG    1       -0.249   1.850  -0.649  0.00  0.00    +0.240 C 
ATOM      5  O   LIG    1        1.086   2.359  -0.604  0.00  0.00    -0.380 OA
ATOM      6  C   LIG    1        1.959   1.801  -1.589  0.00  0.00    +0.140 C 
ATOM      7  C   LIG    1        2.096   0.294  -1.346  0.00  0.00    +0.300 C 
ATOM      8  O   LIG    1        1.185  -1.804  -2.827  0.00  0.00    -0.500 OA
ENDROOT
BRANCH   1  12
ATOM      9  C   LIG    1       -2.683  -3.279  -1.923  0.00  0.00    +0.030 A 
ATOM     10  N   LIG    1       -2.775  -2.449  -0.925  0.00  0.00    -0.340 NA
ATOM     11  O   LIG    1       -1.795  -1.747  -0.829  0.00  0.00    +0.110 OA
ATOM     12  C   LIG    1       -0.896  -2.021  -1.792  0.00  0.00    -0.100 A 
ATOM     13  C   LIG    1       -1.436  -3.031  -2.540  0.00  0.00    +0.050 A 
BRANCH   9  14
ATOM     14  C   LIG    1       -3.706  -4.304  -2.340  0.00  0.00    +0.080 C 
BRANCH  14  16
ATOM     15  C   LIG    1       -5.712  -4.712  -3.772  0.00  0.00    +0.030 C 
ATOM     16  C   LIG    1       -4.596  -3.719  -3.437  0.00  0.00    +0.020 C 
ENDBRANCH  14  16
BRANCH  14  17
ATOM     17  C   LIG    1       -2.993  -5.550  -2.871  0.00  0.00    +0.030 C 
ATOM     18  C   LIG    1       -2.201  -6.205  -1.738  0.00  0.00    +0.010 C 
ENDBRANCH  14  17
ENDBRANCH   9  14
ENDBRANCH   1  12
BRANCH   6  19
ATOM     19  C   LIG    1        3.335   2.462  -1.486  0.00  0.00    +0.270 C 
BRANCH  19  20
ATOM     20  N   LIG    1        3.203   3.907  -1.719  0.00  0.00    -0.360 N 
ATOM     21  C   LIG    1        2.761   4.142  -3.100  0.00  0.00    +0.310 C 
ATOM     22  H   LIG    1        2.523   4.290  -1.079  0.00  0.00    +0.430 HD
BRANCH  20  23
ATOM     23  C   LIG    1        4.501   4.558  -1.502  0.00  0.00    +0.160 C 
BRANCH  23  24
ATOM     24  C   LIG    1        4.340   6.052  -1.620  0.00  0.00    +0.490 C 
ATOM     25  O   LIG    1        5.304   6.783  -1.474  0.00  0.00    -0.640 OA
ATOM     26  O   LIG    1        3.244   6.529  -1.863  0.00  0.00    -0.670 OA
ENDBRANCH  23  24
ENDBRANCH  20  23
ENDBRANCH  19  20
ENDBRANCH   6  19
TORSDOF 8
