REMARK  Name = ZINCpk00000xI4QB.1
REMARK                            x       y       z     vdW  Elec       q    Type
REMARK                         _______ _______ _______ _____ _____    ______ ____
ROOT
ATOM      1  C   LIG    1       -0.131   1.972   6.265  0.00  0.00    +0.610 C 
ATOM      2  N   LIG    1       -0.073   1.260   5.122  0.00  0.00    -0.610 N 
ATOM      3  C   LIG    1        0.900   0.169   4.957  0.00  0.00    +0.270 C 
ATOM      4  C   LIG    1        1.647   0.381   3.635  0.00  0.00    +0.240 C 
ATOM      5  O   LIG    1        0.697   0.550   2.580  0.00  0.00    -0.380 OA
ATOM      6  C   LIG    1       -0.142   1.698   2.725  0.00  0.00    +0.140 C 
ATOM      7  C   LIG    1       -0.980   1.553   4.001  0.00  0.00    +0.300 C 
ATOM      8  O   LIG    1       -0.868   2.936   6.345  0.00  0.00    -0.500 OA
ENDROOT
BRANCH   1  12
ATOM      9  C   LIG    1        1.744   1.466   9.341  0.00  0.00    +0.030 A 
ATOM     10  N   LIG    1        2.025   0.434   8.600  0.00  0.00    -0.340 NA
ATOM     11  O   LIG    1        1.456   0.472   7.535  0.00  0.00    +0.110 OA
ATOM     12  C   LIG    1        0.701   1.581   7.420  0.00  0.00    -0.100 A 
ATOM     13  C   LIG    1        0.855   2.270   8.592  0.00  0.00    +0.050 A 
BRANCH   9  14
ATOM     14  C   LIG    1        2.263   1.750  10.727  0.00  0.00    +0.080 C 
BRANCH  14  16
ATOM     15  C   LIG    1        4.624   1.921   9.927  0.00  0.00    +0.020 C 
ATOM     16  C   LIG    1        3.488   2.661  10.636  0.00  0.00    +0.030 C 
ENDBRANCH  14  16
BRANCH  14  17
ATOM     17  C   LIG    1        1.173   2.441  11.549  0.00  0.00    +0.020 C 
ATOM     18  C   LIG    1        1.645   2.593  12.996  0.00  0.00    +0.030 C 
ENDBRANCH  14  17
ENDBRANCH   9  14
ENDBRANCH   1  12
BRANCH   6  19
ATOM     19  C   LIG    1       -1.070   1.810   1.514  0.00  0.00    +0.270 C 
BRANCH  19  20
ATOM     20  N   LIG    1       -0.266   1.939   0.292  0.00  0.00    -0.360 N 
ATOM     21  C   LIG    1       -1.149   1.902  -0.882  0.00  0.00    +0.320 C 
ATOM     22  H   LIG    1        0.393   1.177   0.240  0.00  0.00    +0.430 HD
BRANCH  20  23
ATOM     23  C   LIG    1        0.461   3.215   0.317  0.00  0.00    +0.150 C 
BRANCH  23  24
ATOM     24  C   LIG    1        1.379   3.293  -0.876  0.00  0.00    +0.490 C 
ATOM     25  O   LIG    1        2.077   4.279  -1.044  0.00  0.00    -0.640 OA
ATOM     26  O   LIG    1        1.423   2.372  -1.673  0.00  0.00    -0.670 OA
ENDBRANCH  23  24
ENDBRANCH  20  23
ENDBRANCH  19  20
ENDBRANCH   6  19
TORSDOF 8
