REMARK  Name = ZINCnE000001D7c3.1
REMARK                            x       y       z     vdW  Elec       q    Type
REMARK                         _______ _______ _______ _____ _____    ______ ____
ROOT
ATOM      1  N   LIG    1       -1.106   3.703   0.028  0.00  0.00    -0.620 NA
ATOM      2  C   LIG    1       -1.226   2.361   0.021  0.00  0.00    +0.510 C 
ATOM      3  O   LIG    1       -2.328   1.848   0.024  0.00  0.00    -0.600 OA
ENDROOT
BRANCH   1   7
ATOM      4  C   LIG    1       -3.533   6.225   0.053  0.00  0.00    +0.010 A 
ATOM      5  C   LIG    1       -4.318   5.136   0.051  0.00  0.00    +0.020 A 
ATOM      6  O   LIG    1       -3.507   4.057   0.036  0.00  0.00    -0.230 OA
ATOM      7  C   LIG    1       -2.239   4.499   0.038  0.00  0.00    +0.450 A 
ATOM      8  N   LIG    1       -2.253   5.809   0.045  0.00  0.00    -0.540 NA
BRANCH   4  10
ATOM      9  C   LIG    1       -4.509   8.019   1.460  0.00  0.00    +0.030 C 
ATOM     10  C   LIG    1       -4.002   7.657   0.062  0.00  0.00    +0.020 C 
ATOM     11  C   LIG    1       -5.134   7.830  -0.952  0.00  0.00    +0.020 C 
ATOM     12  C   LIG    1       -2.837   8.577  -0.311  0.00  0.00    +0.030 C 
ENDBRANCH   4  10
ENDBRANCH   1   7
BRANCH   2  13
ATOM     13  C   LIG    1       -0.018   1.513   0.010  0.00  0.00    +0.100 C 
ATOM     14  N   LIG    1        1.201   1.934   0.001  0.00  0.00    -0.240 NA
ATOM     15  O   LIG    1        2.146   0.882  -0.006  0.00  0.00    -0.210 OA
ATOM     16  C   LIG    1        1.459  -0.318  -0.414  0.00  0.00    +0.170 C 
ATOM     17  C   LIG    1        0.002  -0.004   0.002  0.00  0.00    +0.080 C 
BRANCH  16  18
ATOM     18  C   LIG    1        1.985  -1.520   0.328  0.00  0.00    -0.080 A 
ATOM     19  C   LIG    1        2.447  -1.384   1.623  0.00  0.00    +0.040 A 
ATOM     20  C   LIG    1        2.925  -2.487   2.306  0.00  0.00    +0.000 A 
ATOM     21  C   LIG    1        2.950  -3.724   1.689  0.00  0.00    +0.000 A 
ATOM     22  C   LIG    1        2.493  -3.859   0.392  0.00  0.00    +0.000 A 
ATOM     23  C   LIG    1        2.011  -2.756  -0.289  0.00  0.00    +0.010 A 
ENDBRANCH  16  18
ENDBRANCH   2  13
TORSDOF 4
