REMARK  Name = ZINCpk00000eb7SO.0
REMARK                            x       y       z     vdW  Elec       q    Type
REMARK                         _______ _______ _______ _____ _____    ______ ____
ROOT
ATOM      1  C   LIG    1       -5.376   2.419   1.484  0.00  0.00    +0.140 C 
ENDROOT
BRANCH   1   6
ATOM      2  N   LIG    1       -7.661   1.304   1.489  0.00  0.00    -0.450 N 
ATOM      3  C   LIG    1       -8.963   1.726   1.499  0.00  0.00    +0.140 A 
ATOM      4  C   LIG    1       -8.936   3.073   1.506  0.00  0.00    +0.160 A 
ATOM      5  N   LIG    1       -7.652   3.462   1.506  0.00  0.00    -0.470 NA
ATOM      6  C   LIG    1       -6.883   2.407   1.491  0.00  0.00    +0.210 A 
BRANCH   2   7
ATOM      7  C   LIG    1       -7.199  -0.086   1.478  0.00  0.00    +0.450 C 
BRANCH   7  11
ATOM      8  C   LIG    1       -7.651  -1.959   6.100  0.00  0.00    +0.250 C 
ATOM      9  C   LIG    1       -7.119  -1.327   4.840  0.00  0.00    +0.190 A 
ATOM     10  N   LIG    1       -7.788  -1.109   3.733  0.00  0.00    -0.470 NA
ATOM     11  C   LIG    1       -6.914  -0.532   2.889  0.00  0.00    +0.140 A 
ATOM     12  N   LIG    1       -5.778  -0.435   3.513  0.00  0.00    -0.360 NA
ATOM     13  O   LIG    1       -5.876  -0.881   4.636  0.00  0.00    +0.090 OA
ENDBRANCH   7  11
ENDBRANCH   2   7
ENDBRANCH   1   6
BRANCH   1  14
ATOM     14  C   LIG    1       -4.873   2.431   0.039  0.00  0.00    +0.330 C 
BRANCH  14  15
ATOM     15  N   LIG    1       -3.408   2.443   0.031  0.00  0.00    -0.580 N 
ATOM     16  C   LIG    1       -2.638   1.339   0.022  0.00  0.00    +0.580 C 
ATOM     17  C   LIG    1       -1.220   1.755   0.017  0.00  0.00    -0.140 A 
ATOM     18  C   LIG    1       -0.013   1.076   0.008  0.00  0.00    +0.100 A 
ATOM     19  C   LIG    1        1.177   1.788   0.000  0.00  0.00    +0.050 A 
ATOM     20  C   LIG    1        1.166   3.170   0.008  0.00  0.00    +0.050 A 
ATOM     21  C   LIG    1       -0.035   3.863   0.024  0.00  0.00    +0.100 A 
ATOM     22  C   LIG    1       -1.231   3.165   0.031  0.00  0.00    -0.140 A 
ATOM     23  O   LIG    1       -3.041   0.194   0.017  0.00  0.00    -0.460 OA
ATOM     24  C   LIG    1       -2.656   3.558   0.048  0.00  0.00    +0.570 C 
ATOM     25  O   LIG    1       -3.077   4.697   0.058  0.00  0.00    -0.450 OA
ENDBRANCH  14  15
ENDBRANCH   1  14
TORSDOF 5
