REMARK  Name = ZINCqH00000098Nl.0
REMARK                            x       y       z     vdW  Elec       q    Type
REMARK                         _______ _______ _______ _____ _____    ______ ____
ROOT
ATOM      1  N   LIG    1       -1.191   1.867   0.018  0.00  0.00    -0.720 N 
ATOM      2  H   LIG    1       -1.204   2.837   0.023  0.00  0.00    +0.400 HD
ATOM      3  C   LIG    1       -0.014   1.209   0.009  0.00  0.00    +0.520 C 
ATOM      4  O   LIG    1        0.002  -0.004   0.002  0.00  0.00    -0.510 OA
ENDROOT
BRANCH   1   6
ATOM      5  C   LIG    1       -2.816   0.740   1.456  0.00  0.00    +0.040 C 
ATOM      6  C   LIG    1       -2.449   1.117   0.020  0.00  0.00    +0.290 C 
BRANCH   6   7
ATOM      7  C   LIG    1       -3.543   1.969  -0.571  0.00  0.00    -0.100 A 
ATOM      8  C   LIG    1       -3.612   3.316  -0.268  0.00  0.00    +0.000 A 
ATOM      9  C   LIG    1       -4.615   4.090  -0.814  0.00  0.00    +0.000 A 
ATOM     10  C   LIG    1       -5.562   3.526  -1.658  0.00  0.00    -0.070 A 
ATOM     11  C   LIG    1       -6.640   4.425  -2.204  0.00  0.00    +0.080 C 
ATOM     12  C   LIG    1       -7.309   3.785  -3.419  0.00  0.00    +0.020 C 
ATOM     13  C   LIG    1       -7.732   2.360  -3.043  0.00  0.00    +0.020 C 
ATOM     14  C   LIG    1       -6.474   1.509  -2.883  0.00  0.00    +0.080 C 
ATOM     15  C   LIG    1       -5.492   2.184  -1.961  0.00  0.00    -0.070 A 
ATOM     16  C   LIG    1       -4.481   1.407  -1.412  0.00  0.00    +0.010 A 
ENDBRANCH   6   7
ENDBRANCH   1   6
BRANCH   3  17
ATOM     17  C   LIG    1        1.280   1.980   0.001  0.00  0.00    +0.240 C 
BRANCH  17  18
ATOM     18  O   LIG    1        2.379   1.066  -0.015  0.00  0.00    -0.280 OA
BRANCH  18  19
ATOM     19  C   LIG    1        3.627   1.603  -0.024  0.00  0.00    +0.140 A 
ATOM     20  C   LIG    1        3.792   2.980  -0.024  0.00  0.00    -0.010 A 
ATOM     21  C   LIG    1        5.062   3.523  -0.029  0.00  0.00    +0.080 A 
ATOM     22  C   LIG    1        6.169   2.695  -0.044  0.00  0.00    +0.070 A 
ATOM     23  C   LIG    1        6.008   1.321  -0.049  0.00  0.00    -0.000 A 
ATOM     24  C   LIG    1        4.740   0.773  -0.039  0.00  0.00    +0.070 A 
BRANCH  23  25
ATOM     25  N   LIG    1        7.195   0.437  -0.065  0.00  0.00    +0.020 N 
ATOM     26  O   LIG    1        8.313   0.920  -0.073  0.00  0.00    -0.150 OA
ATOM     27  O   LIG    1        7.054  -0.772  -0.070  0.00  0.00    -0.150 OA
ENDBRANCH  23  25
ENDBRANCH  18  19
ENDBRANCH  17  18
ENDBRANCH   3  17
TORSDOF 6
