REMARK  Name = ZINCrg00000aYx4x.0
REMARK                            x       y       z     vdW  Elec       q    Type
REMARK                         _______ _______ _______ _____ _____    ______ ____
ROOT
ATOM      1  C   LIG    1       -0.258   0.153   0.540  0.00  0.00    +0.510 C 
ATOM      2  N   LIG    1       -0.532   1.469   0.649  0.00  0.00    -0.610 N 
ATOM      3  C   LIG    1       -1.837   1.999   0.230  0.00  0.00    +0.270 C 
ATOM      4  C   LIG    1       -1.615   3.143  -0.757  0.00  0.00    +0.030 C 
ATOM      5  C   LIG    1       -0.686   4.184  -0.128  0.00  0.00    +0.040 C 
ATOM      6  C   LIG    1        0.668   3.541   0.181  0.00  0.00    +0.020 C 
ATOM      7  C   LIG    1        0.470   2.400   1.185  0.00  0.00    +0.280 C 
ATOM      8  O   LIG    1        0.850  -0.260   0.810  0.00  0.00    -0.510 OA
ENDROOT
BRANCH   5   9
ATOM      9  C   LIG    1       -0.487   5.346  -1.103  0.00  0.00    +0.100 C 
ATOM     10  C   LIG    1       -0.727   6.761  -0.574  0.00  0.00    +0.040 C 
ATOM     11  C   LIG    1       -1.731   6.124  -1.537  0.00  0.00    +0.040 C 
BRANCH   9  12
ATOM     12  N   LIG    1        0.577   5.165  -2.093  0.00  0.00    -0.670 N 
ATOM     13  H   LIG    1        1.100   4.348  -2.099  0.00  0.00    +0.410 HD
ATOM     14  C   LIG    1        0.829   6.133  -2.996  0.00  0.00    +0.610 C 
ATOM     15  O   LIG    1        0.173   7.157  -2.989  0.00  0.00    -0.510 OA
BRANCH  14  16
ATOM     16  C   LIG    1        1.903   5.951  -3.995  0.00  0.00    +0.000 A 
ATOM     17  N   LIG    1        2.660   4.879  -4.076  0.00  0.00    -0.550 NA
ATOM     18  S   LIG    1        3.663   5.075  -5.254  0.00  0.00    +0.740 S 
ATOM     19  N   LIG    1        3.214   6.493  -5.723  0.00  0.00    -0.580 NA
ATOM     20  C   LIG    1        2.232   6.891  -4.969  0.00  0.00    +0.310 A 
ENDBRANCH  14  16
ENDBRANCH   9  12
ENDBRANCH   5   9
BRANCH   1  21
ATOM     21  C   LIG    1       -1.329  -0.804   0.082  0.00  0.00    +0.170 C 
BRANCH  21  22
ATOM     22  C   LIG    1       -1.547  -0.642  -1.423  0.00  0.00    -0.040 C 
ATOM     23  C   LIG    1       -2.648  -1.612  -1.918  0.00  0.00    +0.020 C 
ATOM     24  C   LIG    1       -2.062  -2.102  -3.269  0.00  0.00    +0.200 C 
ATOM     25  O   LIG    1       -0.646  -2.203  -3.008  0.00  0.00    -0.370 OA
ATOM     26  C   LIG    1       -0.287  -1.069  -2.200  0.00  0.00    +0.220 C 
ENDBRANCH  21  22
BRANCH  21  28
ATOM     27  C   LIG    1       -1.911  -2.924   1.037  0.00  0.00    +0.200 C 
ATOM     28  O   LIG    1       -0.920  -2.144   0.363  0.00  0.00    -0.350 OA
ENDBRANCH  21  28
ENDBRANCH   1  21
TORSDOF 6
