REMARK  Name = ZINCpe000000YD9s.0
REMARK                            x       y       z     vdW  Elec       q    Type
REMARK                         _______ _______ _______ _____ _____    ______ ____
ROOT
ATOM      1  C   LIG    1       -0.870  10.623  -4.807  0.00  0.00    -0.140 A 
ATOM      2  C   LIG    1       -1.669  10.780  -3.674  0.00  0.00    +0.110 A 
ATOM      3  C   LIG    1       -1.222  10.326  -2.450  0.00  0.00    +0.030 A 
ATOM      4  C   LIG    1        0.020   9.725  -2.344  0.00  0.00    +0.010 A 
ATOM      5  C   LIG    1        0.817   9.566  -3.464  0.00  0.00    -0.030 A 
ATOM      6  C   LIG    1        0.380  10.011  -4.694  0.00  0.00    +0.170 A 
ENDROOT
BRANCH   1  10
ATOM      7  N   LIG    1       -2.551  11.694  -6.229  0.00  0.00    -0.850 N 
ATOM      8  H   LIG    1       -2.863  12.009  -7.092  0.00  0.00    +0.410 HD
ATOM      9  H   LIG    1       -3.108  11.804  -5.443  0.00  0.00    +0.400 HD
ATOM     10  C   LIG    1       -1.344  11.104  -6.123  0.00  0.00    +0.570 C 
ATOM     11  O   LIG    1       -0.646  10.966  -7.108  0.00  0.00    -0.520 OA
ENDBRANCH   1  10
BRANCH   5  12
ATOM     12  N   LIG    1        2.142   8.917  -3.341  0.00  0.00    +0.030 N 
ATOM     13  O   LIG    1        2.485   8.430  -2.279  0.00  0.00    -0.110 OA
ATOM     14  O   LIG    1        2.888   8.870  -4.303  0.00  0.00    -0.180 OA
ENDBRANCH   5  12
BRANCH   4  15
ATOM     15  C   LIG    1        0.504   9.236  -1.003  0.00  0.00    +0.250 C 
BRANCH  15  16
ATOM     16  N   LIG    1        0.412   7.770  -0.954  0.00  0.00    -0.520 NA
ATOM     17  C   LIG    1        1.190   7.231   0.170  0.00  0.00    +0.210 C 
ATOM     18  C   LIG    1        1.135   5.702   0.139  0.00  0.00    +0.220 C 
ATOM     19  N   LIG    1       -0.266   5.264   0.214  0.00  0.00    -0.470 N 
ATOM     20  C   LIG    1       -1.044   5.803  -0.910  0.00  0.00    +0.210 C 
ATOM     21  C   LIG    1       -0.989   7.332  -0.879  0.00  0.00    +0.180 C 
BRANCH  19  22
ATOM     22  C   LIG    1       -0.353   3.878   0.260  0.00  0.00    +0.270 A 
ATOM     23  C   LIG    1       -1.598   3.258   0.334  0.00  0.00    +0.210 A 
ATOM     24  N   LIG    1       -1.676   1.941   0.373  0.00  0.00    -0.420 NA
ATOM     25  C   LIG    1       -0.573   1.211   0.352  0.00  0.00    +0.180 A 
ATOM     26  C   LIG    1        0.664   1.822   0.279  0.00  0.00    +0.250 A 
ATOM     27  N   LIG    1        0.750   3.141   0.234  0.00  0.00    -0.480 NA
ENDBRANCH  19  22
ENDBRANCH  15  16
ENDBRANCH   4  15
TORSDOF 5
