REMARK  Name = ZINCrH00000No58r.0
REMARK                            x       y       z     vdW  Elec       q    Type
REMARK                         _______ _______ _______ _____ _____    ______ ____
ROOT
ATOM      1  C   LIG    1       -3.604   2.909   3.435  0.00  0.00    +0.510 C 
ATOM      2  O   LIG    1       -3.106   2.068   4.156  0.00  0.00    -0.480 OA
ENDROOT
BRANCH   1   7
ATOM      3  C   LIG    1       -7.180   3.026   4.683  0.00  0.00    +0.160 A 
ATOM      4  N   LIG    1       -7.685   3.947   3.878  0.00  0.00    -0.460 NA
ATOM      5  C   LIG    1       -6.959   4.543   2.953  0.00  0.00    +0.200 A 
ATOM      6  C   LIG    1       -5.622   4.236   2.780  0.00  0.00    +0.050 A 
ATOM      7  C   LIG    1       -5.031   3.268   3.594  0.00  0.00    -0.010 A 
ATOM      8  C   LIG    1       -5.830   2.647   4.575  0.00  0.00    -0.010 A 
BRANCH   5   9
ATOM      9  C   LIG    1       -7.599   5.583   2.069  0.00  0.00    +0.010 C 
ATOM     10  C   LIG    1       -6.669   6.511   1.284  0.00  0.00    +0.050 C 
ATOM     11  C   LIG    1       -7.453   7.048   2.484  0.00  0.00    +0.050 C 
ENDBRANCH   5   9
BRANCH   3  13
ATOM     12  C   LIG    1       -9.767   3.126   5.571  0.00  0.00    +0.150 C 
ATOM     13  S   LIG    1       -8.206   2.270   5.900  0.00  0.00    -0.030 S 
ENDBRANCH   3  13
BRANCH   8  14
ATOM     14  C   LIG    1       -5.279   1.651   5.444  0.00  0.00    +0.240 C 
ATOM     15  N   LIG    1       -4.842   0.861   6.133  0.00  0.00    -0.360 NA
ENDBRANCH   8  14
ENDBRANCH   1   7
BRANCH   1  16
ATOM     16  O   LIG    1       -2.857   3.514   2.492  0.00  0.00    -0.320 OA
BRANCH  16  17
ATOM     17  C   LIG    1       -1.466   3.112   2.393  0.00  0.00    +0.190 C 
ATOM     18  C   LIG    1       -1.341   1.944   1.413  0.00  0.00    +0.070 C 
BRANCH  17  19
ATOM     19  C   LIG    1       -0.641   4.272   1.900  0.00  0.00    +0.520 C 
ATOM     20  N   LIG    1        0.703   4.178   1.866  0.00  0.00    -0.600 N 
ATOM     21  O   LIG    1       -1.187   5.291   1.532  0.00  0.00    -0.520 OA
BRANCH  20  22
ATOM     22  C   LIG    1        1.358   2.920   2.231  0.00  0.00    +0.210 C 
ATOM     23  C   LIG    1        0.777   2.405   3.550  0.00  0.00    +0.040 C 
ATOM     24  C   LIG    1        2.861   3.155   2.394  0.00  0.00    +0.050 C 
ENDBRANCH  20  22
BRANCH  20  25
ATOM     25  C   LIG    1        1.509   5.334   1.465  0.00  0.00    +0.230 C 
ATOM     26  C   LIG    1        2.232   5.021   0.154  0.00  0.00    +0.030 C 
ATOM     27  C   LIG    1        2.538   5.641   2.555  0.00  0.00    +0.020 C 
ENDBRANCH  20  25
ENDBRANCH  17  19
ENDBRANCH  16  17
ENDBRANCH   1  16
TORSDOF 9
