REMARK  Name = ZINCvU0000000DbX.0
REMARK                            x       y       z     vdW  Elec       q    Type
REMARK                         _______ _______ _______ _____ _____    ______ ____
ROOT
ATOM      1  C   LIG    1        0.823   2.020  -0.706  0.00  0.00    +0.530 C 
ATOM      2  O   LIG    1        1.799   1.295  -0.706  0.00  0.00    -0.490 OA
ENDROOT
BRANCH   1   3
ATOM      3  C   LIG    1        0.982   3.466  -0.517  0.00  0.00    -0.170 C 
ATOM      4  C   LIG    1        2.242   4.005  -0.339  0.00  0.00    +0.310 C 
BRANCH   4   5
ATOM      5  C   LIG    1        2.395   5.402  -0.146  0.00  0.00    -0.220 A 
ATOM      6  C   LIG    1        3.508   6.059   0.351  0.00  0.00    +0.120 A 
ATOM      7  N   LIG    1        3.241   7.378   0.371  0.00  0.00    -0.420 N 
ATOM      8  C   LIG    1        1.978   7.616  -0.091  0.00  0.00    +0.010 A 
ATOM      9  C   LIG    1        1.333   8.972  -0.209  0.00  0.00    +0.130 C 
ATOM     10  C   LIG    1        4.795   5.411   0.791  0.00  0.00    +0.160 C 
ATOM     11  C   LIG    1        1.402   6.449  -0.426  0.00  0.00    +0.000 A 
BRANCH   7  12
ATOM     12  C   LIG    1        4.171   8.413   0.828  0.00  0.00    +0.290 C 
BRANCH  12  13
ATOM     13  C   LIG    1        3.981   8.643   2.329  0.00  0.00    +0.000 C 
ATOM     14  C   LIG    1        4.953   9.724   2.807  0.00  0.00    +0.030 C 
ENDBRANCH  12  13
ENDBRANCH   7  12
ENDBRANCH   4   5
BRANCH   3  15
ATOM     15  C   LIG    1       -0.169   4.319  -0.517  0.00  0.00    +0.270 C 
ATOM     16  N   LIG    1       -1.081   4.996  -0.516  0.00  0.00    -0.420 NA
ENDBRANCH   3  15
ENDBRANCH   1   3
BRANCH   1  17
ATOM     17  O   LIG    1       -0.407   1.494  -0.879  0.00  0.00    -0.290 OA
BRANCH  17  24
ATOM     18  C   LIG    1       -0.782  -4.080  -1.037  0.00  0.00    +0.030 A 
ATOM     19  C   LIG    1       -0.651  -4.753   0.135  0.00  0.00    -0.080 A 
ATOM     20  C   LIG    1       -0.430  -4.041   1.332  0.00  0.00    +0.510 A 
ATOM     21  O   LIG    1       -0.344  -2.702   1.350  0.00  0.00    -0.270 OA
ATOM     22  C   LIG    1       -0.465  -1.972   0.220  0.00  0.00    +0.170 A 
ATOM     23  C   LIG    1       -0.367  -0.590   0.255  0.00  0.00    +0.010 A 
ATOM     24  C   LIG    1       -0.499   0.139  -0.915  0.00  0.00    +0.150 A 
ATOM     25  C   LIG    1       -0.719  -0.506  -2.130  0.00  0.00    +0.010 A 
ATOM     26  C   LIG    1       -0.812  -1.867  -2.183  0.00  0.00    +0.110 A 
ATOM     27  O   LIG    1       -0.315  -4.657   2.377  0.00  0.00    -0.460 OA
ATOM     28  C   LIG    1       -0.687  -2.619  -1.010  0.00  0.00    -0.150 A 
BRANCH  18  29
ATOM     29  C   LIG    1       -1.020  -4.816  -2.330  0.00  0.00    +0.090 C 
BRANCH  29  31
ATOM     30  C   LIG    1       -2.762  -5.615  -3.933  0.00  0.00    +0.030 C 
ATOM     31  C   LIG    1       -2.521  -4.867  -2.620  0.00  0.00    +0.020 C 
ENDBRANCH  29  31
ENDBRANCH  18  29
ENDBRANCH  17  24
ENDBRANCH   1  17
TORSDOF 9
