REMARK  Name = ZINCkj000005iA3w.1
REMARK                            x       y       z     vdW  Elec       q    Type
REMARK                         _______ _______ _______ _____ _____    ______ ____
ROOT
ATOM      1  C   LIG    1       -2.169   2.837   2.853  0.00  0.00    +0.220 C 
ATOM      2  C   LIG    1       -0.791   2.882   3.046  0.00  0.00    -0.110 C 
ATOM      3  C   LIG    1        0.043   2.447   2.036  0.00  0.00    +0.340 C 
ATOM      4  N   LIG    1       -0.452   1.994   0.899  0.00  0.00    -0.440 NA
ATOM      5  C   LIG    1       -1.752   1.931   0.681  0.00  0.00    +0.160 C 
ATOM      6  H   LIG    1        0.157   1.695   0.206  0.00  0.00    +0.450 HD
ATOM      7  C   LIG    1       -0.217   3.397   4.341  0.00  0.00    +0.160 C 
ATOM      8  C   LIG    1       -2.651   2.353   1.639  0.00  0.00    -0.080 C 
ATOM      9  C   LIG    1       -4.133   2.283   1.379  0.00  0.00    +0.160 C 
ENDROOT
BRANCH   1  11
ATOM     10  C   LIG    1       -3.458   2.278   4.768  0.00  0.00    +0.270 C 
ATOM     11  O   LIG    1       -3.022   3.256   3.822  0.00  0.00    -0.320 OA
ENDBRANCH   1  11
BRANCH   5  12
ATOM     12  C   LIG    1       -2.261   1.399  -0.634  0.00  0.00    +0.280 C 
BRANCH  12  13
ATOM     13  N   LIG    1       -2.790   0.043  -0.442  0.00  0.00    -0.530 NA
ATOM     14  C   LIG    1       -1.703  -0.917  -0.206  0.00  0.00    +0.150 C 
ATOM     15  C   LIG    1       -2.300  -2.278   0.168  0.00  0.00    +0.300 C 
ATOM     16  N   LIG    1       -3.260  -2.670  -0.875  0.00  0.00    -0.620 N 
ATOM     17  C   LIG    1       -4.298  -1.703  -1.264  0.00  0.00    +0.290 C 
ATOM     18  C   LIG    1       -3.191  -3.882  -1.460  0.00  0.00    +0.520 C 
ATOM     19  O   LIG    1       -2.276  -4.633  -1.192  0.00  0.00    -0.540 OA
ATOM     20  C   LIG    1       -4.248  -4.305  -2.446  0.00  0.00    +0.110 C 
ATOM     21  C   LIG    1       -3.622  -0.364  -1.581  0.00  0.00    +0.190 C 
ENDBRANCH  12  13
ENDBRANCH   5  12
TORSDOF 3
