REMARK  Name = ZINCpe00000MJIqU.0
REMARK                            x       y       z     vdW  Elec       q    Type
REMARK                         _______ _______ _______ _____ _____    ______ ____
ROOT
ATOM      1  C   LIG    1       -8.739   3.913   5.740  0.00  0.00    +0.160 C 
ATOM      2  O   LIG    1       -9.887   4.667   5.332  0.00  0.00    -0.340 OA
ATOM      3  C   LIG    1      -10.571   5.280   6.426  0.00  0.00    +0.290 C 
ATOM      4  C   LIG    1      -10.814   4.267   7.511  0.00  0.00    +0.490 C 
ATOM      5  N   LIG    1      -10.168   3.095   7.553  0.00  0.00    -0.600 N 
ATOM      6  C   LIG    1      -10.435   2.184   8.669  0.00  0.00    +0.290 C 
ATOM      7  O   LIG    1      -11.623   4.521   8.378  0.00  0.00    -0.530 OA
ATOM      8  C   LIG    1       -9.208   2.689   6.530  0.00  0.00    +0.270 C 
ENDROOT
BRANCH   8   9
ATOM      9  C   LIG    1       -8.022   2.036   7.190  0.00  0.00    -0.120 A 
ATOM     10  C   LIG    1       -7.507   2.560   8.362  0.00  0.00    +0.020 A 
ATOM     11  C   LIG    1       -6.422   1.957   8.970  0.00  0.00    +0.010 A 
ATOM     12  C   LIG    1       -5.845   0.837   8.402  0.00  0.00    +0.030 A 
ATOM     13  C   LIG    1       -6.356   0.317   7.228  0.00  0.00    +0.010 A 
ATOM     14  C   LIG    1       -7.444   0.916   6.622  0.00  0.00    +0.030 A 
ENDBRANCH   8   9
BRANCH   1  17
ATOM     15  N   LIG    1       -6.796   2.820   4.670  0.00  0.00    -0.730 N 
ATOM     16  H   LIG    1       -6.447   2.642   5.557  0.00  0.00    +0.400 HD
ATOM     17  C   LIG    1       -7.970   3.466   4.524  0.00  0.00    +0.530 C 
ATOM     18  O   LIG    1       -8.406   3.688   3.414  0.00  0.00    -0.500 OA
BRANCH  15  19
ATOM     19  C   LIG    1       -6.048   2.385   3.488  0.00  0.00    +0.280 C 
BRANCH  19  20
ATOM     20  C   LIG    1       -4.762   1.681   3.928  0.00  0.00    +0.080 C 
BRANCH  20  22
ATOM     21  C   LIG    1       -2.726   1.610   2.551  0.00  0.00    -0.050 C 
ATOM     22  C   LIG    1       -3.992   1.234   2.712  0.00  0.00    +0.090 C 
BRANCH  21  23
ATOM     23  C   LIG    1       -1.975   1.173   1.366  0.00  0.00    +0.490 C 
ATOM     24  O   LIG    1       -2.511   0.470   0.532  0.00  0.00    -0.510 OA
BRANCH  23  26
ATOM     25  C   LIG    1       -0.013   1.086   0.008  0.00  0.00    +0.260 C 
ATOM     26  O   LIG    1       -0.692   1.554   1.203  0.00  0.00    -0.360 OA
ENDBRANCH  23  26
ENDBRANCH  21  23
ENDBRANCH  20  22
ENDBRANCH  19  20
ENDBRANCH  15  19
ENDBRANCH   1  17
TORSDOF 7
