REMARK  Name = ZINCvU00000005cz.0
REMARK                            x       y       z     vdW  Elec       q    Type
REMARK                         _______ _______ _______ _____ _____    ______ ____
ROOT
ATOM      1  C   LIG    1       -0.802   1.987  -1.117  0.00  0.00    +0.200 C 
ENDROOT
BRANCH   1   4
ATOM      2  N   LIG    1       -1.703   4.167  -1.862  0.00  0.00    -0.730 N 
ATOM      3  H   LIG    1       -2.072   3.714  -2.637  0.00  0.00    +0.400 HD
ATOM      4  C   LIG    1       -1.007   3.470  -0.943  0.00  0.00    +0.520 C 
ATOM      5  O   LIG    1       -0.545   4.036   0.026  0.00  0.00    -0.510 OA
BRANCH   2   6
ATOM      6  C   LIG    1       -1.902   5.608  -1.693  0.00  0.00    +0.240 C 
BRANCH   6   8
ATOM      7  C   LIG    1        0.547   6.022  -1.422  0.00  0.00    +0.020 C 
ATOM      8  C   LIG    1       -0.693   6.359  -2.252  0.00  0.00    +0.000 C 
ENDBRANCH   6   8
BRANCH   6   9
ATOM      9  C   LIG    1       -3.164   6.040  -2.443  0.00  0.00    +0.080 C 
BRANCH   9  10
ATOM     10  C   LIG    1       -4.370   5.394  -1.812  0.00  0.00    -0.090 A 
ATOM     11  C   LIG    1       -4.809   4.163  -2.263  0.00  0.00    +0.040 A 
ATOM     12  C   LIG    1       -5.912   3.567  -1.681  0.00  0.00    -0.020 A 
ATOM     13  C   LIG    1       -6.584   4.208  -0.654  0.00  0.00    +0.100 A 
ATOM     14  C   LIG    1       -6.146   5.443  -0.207  0.00  0.00    -0.010 A 
ATOM     15  F   LIG    1       -7.666   3.629  -0.089  0.00  0.00    -0.140 F 
ATOM     16  C   LIG    1       -5.040   6.035  -0.786  0.00  0.00    +0.040 A 
ENDBRANCH   9  10
ENDBRANCH   6   9
ENDBRANCH   2   6
ENDBRANCH   1   4
BRANCH   1  17
ATOM     17  N   LIG    1       -0.018   1.465   0.010  0.00  0.00    -0.510 NA
ATOM     18  C   LIG    1        1.346   2.010   0.000  0.00  0.00    +0.200 C 
BRANCH  17  19
ATOM     19  C   LIG    1        0.002  -0.004   0.002  0.00  0.00    +0.230 C 
BRANCH  19  20
ATOM     20  C   LIG    1        0.814  -0.502   1.170  0.00  0.00    -0.090 A 
ATOM     21  C   LIG    1        0.717   0.128   2.397  0.00  0.00    +0.080 A 
ATOM     22  C   LIG    1        1.456  -0.331   3.470  0.00  0.00    -0.020 A 
ATOM     23  C   LIG    1        2.303  -1.416   3.314  0.00  0.00    +0.100 A 
ATOM     24  C   LIG    1        2.403  -2.042   2.084  0.00  0.00    -0.020 A 
ATOM     25  F   LIG    1        3.030  -1.862   4.361  0.00  0.00    -0.140 F 
ATOM     26  C   LIG    1        1.658  -1.585   1.013  0.00  0.00    +0.050 A 
ENDBRANCH  19  20
BRANCH  19  27
ATOM     27  C   LIG    1       -1.407  -0.526   0.111  0.00  0.00    -0.080 A 
ATOM     28  C   LIG    1       -2.308   0.088   0.961  0.00  0.00    +0.040 A 
ATOM     29  C   LIG    1       -3.603  -0.389   1.057  0.00  0.00    +0.000 A 
ATOM     30  C   LIG    1       -3.993  -1.484   0.310  0.00  0.00    +0.000 A 
ATOM     31  C   LIG    1       -3.091  -2.101  -0.536  0.00  0.00    +0.000 A 
ATOM     32  C   LIG    1       -1.798  -1.623  -0.635  0.00  0.00    +0.010 A 
ENDBRANCH  19  27
ENDBRANCH  17  19
ENDBRANCH   1  17
TORSDOF 9
