REMARK  Name = ZINCqH0000038wn0.0
REMARK                            x       y       z     vdW  Elec       q    Type
REMARK                         _______ _______ _______ _____ _____    ______ ____
ROOT
ATOM      1  C   LIG    1       -1.943   2.288   1.167  0.00  0.00    +0.040 A 
ATOM      2  C   LIG    1       -1.292   1.927   0.019  0.00  0.00    -0.180 A 
ATOM      3  C   LIG    1       -1.992   2.328  -1.189  0.00  0.00    -0.040 A 
ATOM      4  C   LIG    1       -3.140   2.963  -0.926  0.00  0.00    -0.240 A 
ATOM      5  C   LIG    1       -4.085   3.494  -1.987  0.00  0.00    +0.120 C 
ATOM      6  C   LIG    1       -3.736   2.848  -3.327  0.00  0.00    -0.010 C 
ATOM      7  C   LIG    1       -2.230   2.970  -3.572  0.00  0.00    +0.030 C 
ATOM      8  C   LIG    1       -4.497   3.551  -4.453  0.00  0.00    +0.030 C 
ATOM      9  C   LIG    1       -1.486   2.056  -2.596  0.00  0.00    +0.100 C 
ATOM     10  S   LIG    1       -3.394   3.101   0.806  0.00  0.00    +0.310 S 
ENDROOT
BRANCH   1  12
ATOM     11  C   LIG    1       -2.202   2.428   3.515  0.00  0.00    +0.580 C 
ATOM     12  N   LIG    1       -1.483   2.029   2.447  0.00  0.00    -0.610 N 
ATOM     13  H   LIG    1       -0.644   1.560   2.575  0.00  0.00    +0.430 HD
ATOM     14  O   LIG    1       -3.253   3.016   3.354  0.00  0.00    -0.490 OA
BRANCH  11  19
ATOM     15  C   LIG    1       -0.365   1.392   8.773  0.00  0.00    +0.160 C 
ATOM     16  C   LIG    1       -0.866   1.674   7.381  0.00  0.00    +0.120 A 
ATOM     17  C   LIG    1       -0.126   1.262   6.282  0.00  0.00    +0.240 A 
ATOM     18  N   LIG    1       -0.563   1.503   5.062  0.00  0.00    -0.410 NA
ATOM     19  C   LIG    1       -1.711   2.151   4.884  0.00  0.00    +0.010 A 
ATOM     20  C   LIG    1       -2.453   2.563   5.990  0.00  0.00    +0.320 A 
ATOM     21  N   LIG    1       -2.010   2.314   7.210  0.00  0.00    -0.440 NA
ENDBRANCH  11  19
ENDBRANCH   1  12
BRANCH   2  22
ATOM     22  C   LIG    1       -0.014   1.212   0.009  0.00  0.00    +0.540 C 
ATOM     23  O   LIG    1        0.002  -0.004   0.002  0.00  0.00    -0.490 OA
BRANCH  22  24
ATOM     24  O   LIG    1        1.144   1.903   0.001  0.00  0.00    -0.340 OA
BRANCH  24  25
ATOM     25  C   LIG    1        2.373   1.128  -0.015  0.00  0.00    +0.170 C 
ATOM     26  C   LIG    1        2.818   0.849   1.422  0.00  0.00    +0.040 C 
ATOM     27  C   LIG    1        3.463   1.917  -0.742  0.00  0.00    +0.070 C 
ENDBRANCH  24  25
ENDBRANCH  22  24
ENDBRANCH   2  22
TORSDOF 5
