REMARK  Name = ZINCqH0000008wsq.0
REMARK                            x       y       z     vdW  Elec       q    Type
REMARK                         _______ _______ _______ _____ _____    ______ ____
ROOT
ATOM      1  N   LIG    1       -1.865   6.513  -2.737  0.00  0.00    -1.000 NA
ATOM      2  C   LIG    1       -0.732   6.279  -3.636  0.00  0.00    +0.300 C 
ENDROOT
BRANCH   1   3
ATOM      3  S   LIG    1       -1.609   7.155  -1.232  0.00  0.00    +2.780 S 
ATOM      4  O   LIG    1       -0.378   7.860  -1.300  0.00  0.00    -0.960 OA
ATOM      5  O   LIG    1       -2.833   7.763  -0.842  0.00  0.00    -0.970 OA
BRANCH   3   6
ATOM      6  N   LIG    1       -1.365   5.887  -0.195  0.00  0.00    -1.010 NA
ATOM      7  C   LIG    1       -2.488   5.253   0.516  0.00  0.00    +0.300 C 
ATOM      8  C   LIG    1       -2.596   3.808   0.029  0.00  0.00    +0.070 C 
ATOM      9  C   LIG    1       -1.246   3.140   0.029  0.00  0.00    -0.060 A 
ATOM     10  C   LIG    1       -1.216   1.751   0.017  0.00  0.00    +0.000 A 
ATOM     11  C   LIG    1       -0.013   1.076   0.008  0.00  0.00    +0.000 A 
ATOM     12  C   LIG    1        1.174   1.785   0.000  0.00  0.00    +0.000 A 
ATOM     13  C   LIG    1        1.146   3.165   0.012  0.00  0.00    +0.010 A 
ATOM     14  C   LIG    1       -0.063   3.845   0.028  0.00  0.00    -0.100 A 
ATOM     15  C   LIG    1       -0.022   5.352   0.054  0.00  0.00    +0.360 C 
ENDBRANCH   3   6
ENDBRANCH   1   3
BRANCH   1  17
ATOM     16  C   LIG    1       -3.573   6.987  -4.423  0.00  0.00    +0.070 C 
ATOM     17  C   LIG    1       -3.224   6.180  -3.171  0.00  0.00    +0.350 C 
BRANCH  17  18
ATOM     18  C   LIG    1       -3.305   4.708  -3.483  0.00  0.00    +0.030 A 
ATOM     19  C   LIG    1       -4.340   3.915  -3.175  0.00  0.00    -0.040 A 
ATOM     20  C   LIG    1       -3.989   2.576  -3.664  0.00  0.00    -0.130 A 
ATOM     21  C   LIG    1       -4.627   1.337  -3.654  0.00  0.00    +0.060 A 
ATOM     22  C   LIG    1       -4.001   0.245  -4.216  0.00  0.00    -0.010 A 
ATOM     23  C   LIG    1       -2.745   0.377  -4.790  0.00  0.00    +0.040 A 
ATOM     24  C   LIG    1       -2.104   1.597  -4.806  0.00  0.00    +0.020 A 
ATOM     25  C   LIG    1       -2.716   2.711  -4.245  0.00  0.00    +0.060 A 
ATOM     26  O   LIG    1       -2.353   4.003  -4.117  0.00  0.00    -0.180 OA
ENDBRANCH  17  18
ENDBRANCH   1  17
TORSDOF 4
