REMARK  Name = ZINCpe000000Ylvq.0
REMARK                            x       y       z     vdW  Elec       q    Type
REMARK                         _______ _______ _______ _____ _____    ______ ____
ROOT
ATOM      1  N   LIG    1       -1.871   4.784  -1.341  0.00  0.00    -0.540 NA
ATOM      2  C   LIG    1       -0.656   5.240  -2.031  0.00  0.00    +0.200 C 
ATOM      3  C   LIG    1       -0.995   5.576  -3.486  0.00  0.00    +0.190 C 
ATOM      4  N   LIG    1       -2.035   6.614  -3.516  0.00  0.00    -0.520 NA
ATOM      5  C   LIG    1       -3.250   6.158  -2.826  0.00  0.00    +0.180 C 
ATOM      6  C   LIG    1       -2.911   5.822  -1.372  0.00  0.00    +0.190 C 
ENDROOT
BRANCH   1   7
ATOM      7  C   LIG    1       -1.572   4.380   0.039  0.00  0.00    +0.300 C 
BRANCH   7  13
ATOM      8  C   LIG    1       -2.518   1.429   0.020  0.00  0.00    +0.330 C 
ATOM      9  N   LIG    1       -1.123   1.877   0.017  0.00  0.00    -0.450 N 
ATOM     10  C   LIG    1       -0.013   1.076   0.008  0.00  0.00    +0.110 A 
ATOM     11  C   LIG    1        1.058   1.893   0.002  0.00  0.00    +0.140 A 
ATOM     12  N   LIG    1        0.613   3.159   0.012  0.00  0.00    -0.490 NA
ATOM     13  C   LIG    1       -0.692   3.157   0.024  0.00  0.00    +0.210 A 
ENDBRANCH   7  13
ENDBRANCH   1   7
BRANCH   4  14
ATOM     14  C   LIG    1       -2.334   7.018  -4.896  0.00  0.00    +0.220 C 
BRANCH  14  15
ATOM     15  C   LIG    1       -1.131   7.704  -5.491  0.00  0.00    +0.510 C 
ATOM     16  N   LIG    1       -1.175   8.164  -6.757  0.00  0.00    -0.730 N 
ATOM     17  H   LIG    1       -1.981   8.053  -7.286  0.00  0.00    +0.410 HD
ATOM     18  O   LIG    1       -0.124   7.842  -4.830  0.00  0.00    -0.500 OA
BRANCH  16  19
ATOM     19  C   LIG    1       -0.005   8.830  -7.335  0.00  0.00    +0.280 C 
ATOM     20  C   LIG    1        0.339  10.068  -6.504  0.00  0.00    +0.040 C 
ATOM     21  C   LIG    1        1.560  10.764  -7.107  0.00  0.00    +0.020 C 
ATOM     22  C   LIG    1        1.249  11.186  -8.545  0.00  0.00    +0.020 C 
ATOM     23  C   LIG    1        0.904   9.948  -9.376  0.00  0.00    +0.020 C 
ATOM     24  C   LIG    1       -0.317   9.252  -8.772  0.00  0.00    +0.050 C 
BRANCH  19  25
ATOM     25  C   LIG    1        1.139   7.904  -7.332  0.00  0.00    +0.210 C 
ATOM     26  N   LIG    1        2.021   7.189  -7.330  0.00  0.00    -0.410 NA
ENDBRANCH  19  25
ENDBRANCH  16  19
ENDBRANCH  14  15
ENDBRANCH   4  14
TORSDOF 6
