REMARK  Name = ZINCnE000001Tp41.1
REMARK                            x       y       z     vdW  Elec       q    Type
REMARK                         _______ _______ _______ _____ _____    ______ ____
ROOT
ATOM      1  O   LIG    1        5.291  -2.680   2.659  0.00  0.00    -0.520 OA
ATOM      2  C   LIG    1        5.910  -1.635   2.706  0.00  0.00    +0.540 C 
ATOM      3  N   LIG    1        7.082  -1.576   3.368  0.00  0.00    -0.640 N 
ATOM      4  H   LIG    1        7.543  -0.728   3.462  0.00  0.00    +0.400 HD
ENDROOT
BRANCH   3   5
ATOM      5  C   LIG    1        7.634  -2.738   3.920  0.00  0.00    -0.020 A 
ATOM      6  C   LIG    1        9.011  -2.917   3.929  0.00  0.00    +0.020 A 
ATOM      7  C   LIG    1        9.556  -4.063   4.474  0.00  0.00    -0.140 A 
ATOM      8  C   LIG    1        8.728  -5.036   5.013  0.00  0.00    +0.270 A 
ATOM      9  C   LIG    1        7.351  -4.859   5.005  0.00  0.00    -0.170 A 
ATOM     10 CL   LIG    1        6.314  -6.078   5.679  0.00  0.00    -0.110 Cl
ATOM     11  O   LIG    1        9.264  -6.165   5.549  0.00  0.00    -0.710 OA
ATOM     12  C   LIG    1        6.805  -3.710   4.465  0.00  0.00    +0.070 A 
ENDBRANCH   3   5
BRANCH   2  13
ATOM     13  C   LIG    1        5.377  -0.430   2.036  0.00  0.00    -0.090 A 
ATOM     14  C   LIG    1        6.086   0.772   2.089  0.00  0.00    +0.020 A 
ATOM     15  C   LIG    1        5.586   1.896   1.464  0.00  0.00    +0.030 A 
ATOM     16  C   LIG    1        4.387   1.836   0.780  0.00  0.00    -0.010 A 
ATOM     17  C   LIG    1        3.671   0.646   0.726  0.00  0.00    +0.160 A 
ATOM     18  C   LIG    1        4.164  -0.489   1.350  0.00  0.00    +0.070 A 
BRANCH  17  19
ATOM     19  N   LIG    1        2.454   0.592   0.035  0.00  0.00    -0.560 N 
ATOM     20  C   LIG    1        1.784   1.757  -0.554  0.00  0.00    +0.270 C 
ATOM     21  C   LIG    1        0.327   1.310  -0.805  0.00  0.00    +0.060 C 
ATOM     22  C   LIG    1        0.485  -0.222  -0.942  0.00  0.00    +0.070 C 
ATOM     23  C   LIG    1        1.750  -0.534  -0.173  0.00  0.00    +0.510 C 
ATOM     24  O   LIG    1        2.080  -1.639   0.202  0.00  0.00    -0.490 OA
ENDBRANCH  17  19
ENDBRANCH   2  13
TORSDOF 3
