REMARK  Name = ZINCpe00000MAp8S.0
REMARK                            x       y       z     vdW  Elec       q    Type
REMARK                         _______ _______ _______ _____ _____    ______ ____
ROOT
ATOM      1  N   LIG    1        3.012   0.240  -1.584  0.00  0.00    -1.110 NA
ATOM      2  H   LIG    1        2.902  -0.658  -1.937  0.00  0.00    +0.420 HD
ENDROOT
BRANCH   1   3
ATOM      3  C   LIG    1        3.505   1.312  -2.452  0.00  0.00    +0.250 C 
ATOM      4  C   LIG    1        2.346   1.913  -3.273  0.00  0.00    +0.020 C 
ATOM      5  C   LIG    1        2.725   1.659  -4.748  0.00  0.00    +0.180 C 
ATOM      6  N   LIG    1        3.651   0.497  -4.702  0.00  0.00    -0.470 N 
ATOM      7  C   LIG    1        4.487   0.745  -3.499  0.00  0.00    +0.200 C 
BRANCH   6   8
ATOM      8  C   LIG    1        4.437   0.437  -5.855  0.00  0.00    +0.080 A 
ATOM      9  C   LIG    1        5.276   1.494  -6.182  0.00  0.00    -0.010 A 
ATOM     10  C   LIG    1        6.057   1.429  -7.319  0.00  0.00    +0.020 A 
ATOM     11  C   LIG    1        5.995   0.318  -8.140  0.00  0.00    +0.020 A 
ATOM     12  C   LIG    1        5.156  -0.735  -7.822  0.00  0.00    +0.030 A 
ATOM     13  C   LIG    1        4.377  -0.679  -6.682  0.00  0.00    -0.010 A 
ATOM     14 CL   LIG    1        3.325  -2.001  -6.283  0.00  0.00    -0.050 Cl
ENDBRANCH   6   8
ENDBRANCH   1   3
BRANCH   1  15
ATOM     15  S   LIG    1        2.640   0.559  -0.003  0.00  0.00    +2.780 S 
ATOM     16  O   LIG    1        2.164  -0.660   0.552  0.00  0.00    -0.970 OA
ATOM     17  O   LIG    1        3.744   1.277   0.532  0.00  0.00    -0.970 OA
BRANCH  15  19
ATOM     18  C   LIG    1        1.591   3.052  -0.012  0.00  0.00    +0.310 C 
ATOM     19  N   LIG    1        1.357   1.606  -0.002  0.00  0.00    -0.990 NA
BRANCH  19  20
ATOM     20  C   LIG    1       -0.013   1.086   0.008  0.00  0.00    +0.280 C 
ATOM     21  C   LIG    1       -0.784   1.609  -1.216  0.00  0.00    +0.070 C 
ATOM     22  C   LIG    1       -2.288   1.335  -1.005  0.00  0.00    -0.310 C 
ATOM     23  S   LIG    1       -2.522   1.333   0.809  0.00  0.00    +2.390 S 
ATOM     24  O   LIG    1       -3.284   2.471   1.187  0.00  0.00    -0.930 OA
ATOM     25  O   LIG    1       -2.925   0.037   1.230  0.00  0.00    -0.930 OA
ATOM     26  C   LIG    1       -0.766   1.600   1.262  0.00  0.00    -0.310 C 
ENDBRANCH  19  20
ENDBRANCH  15  19
ENDBRANCH   1  15
TORSDOF 5
