REMARK  Name = ZINCrH000004jzir.0
REMARK                            x       y       z     vdW  Elec       q    Type
REMARK                         _______ _______ _______ _____ _____    ______ ____
ROOT
ATOM      1  C   LIG    1       -2.640  -0.386   0.032  0.00  0.00    +0.330 C 
ATOM      2  N   LIG    1       -1.259  -0.873   0.061  0.00  0.00    -0.530 N 
ATOM      3  C   LIG    1       -1.005  -2.188  -0.082  0.00  0.00    +0.570 C 
ATOM      4  O   LIG    1        0.130  -2.606   0.044  0.00  0.00    -0.450 OA
ENDROOT
BRANCH   2   5
ATOM      5  C   LIG    1       -0.208   0.024   0.237  0.00  0.00    +0.300 A 
ATOM      6  C   LIG    1       -0.473   1.370   0.489  0.00  0.00    +0.010 A 
ATOM      7  C   LIG    1        0.603   2.224   0.657  0.00  0.00    +0.080 A 
ATOM      8  C   LIG    1        1.890   1.685   0.564  0.00  0.00    +0.080 A 
ATOM      9  N   LIG    1        2.045   0.390   0.320  0.00  0.00    -0.200 NA
ATOM     10  N   LIG    1        1.046  -0.400   0.165  0.00  0.00    -0.230 NA
BRANCH   8  11
ATOM     11  C   LIG    1        3.077   2.557   0.736  0.00  0.00    -0.050 A 
ATOM     12  C   LIG    1        2.914   3.919   0.986  0.00  0.00    +0.030 A 
ATOM     13  C   LIG    1        4.022   4.724   1.153  0.00  0.00    +0.010 A 
ATOM     14  C   LIG    1        5.292   4.186   1.059  0.00  0.00    +0.020 A 
ATOM     15  C   LIG    1        5.460   2.836   0.805  0.00  0.00    +0.010 A 
ATOM     16  C   LIG    1        4.359   2.020   0.644  0.00  0.00    +0.060 A 
ENDBRANCH   8  11
ENDBRANCH   2   5
BRANCH   3  17
ATOM     17  C   LIG    1       -2.107  -3.125  -0.392  0.00  0.00    +0.060 A 
ATOM     18  C   LIG    1       -1.862  -4.497  -0.407  0.00  0.00    +0.110 A 
ATOM     19  C   LIG    1       -2.902  -5.364  -0.693  0.00  0.00    +0.080 A 
ATOM     20  C   LIG    1       -4.157  -4.826  -0.966  0.00  0.00    +0.080 A 
ATOM     21  C   LIG    1       -4.326  -3.444  -0.938  0.00  0.00    +0.210 A 
ATOM     22  N   LIG    1       -3.318  -2.649  -0.658  0.00  0.00    -0.410 NA
BRANCH  20  23
ATOM     23  O   LIG    1       -5.204  -5.640  -1.256  0.00  0.00    -0.300 OA
BRANCH  23  24
ATOM     24  C   LIG    1       -6.459  -5.011  -1.524  0.00  0.00    +0.600 C 
ATOM     25  F   LIG    1       -6.857  -4.270  -0.407  0.00  0.00    -0.160 F 
ATOM     26  F   LIG    1       -7.420  -5.989  -1.802  0.00  0.00    -0.120 F 
ATOM     27  F   LIG    1       -6.328  -4.160  -2.627  0.00  0.00    -0.160 F 
ENDBRANCH  23  24
ENDBRANCH  20  23
ENDBRANCH   3  17
TORSDOF 5
