REMARK  Name = ZINCrH000004tZes.0
REMARK                            x       y       z     vdW  Elec       q    Type
REMARK                         _______ _______ _______ _____ _____    ______ ____
ROOT
ATOM      1  O   LIG    1        4.534   2.172  -2.371  0.00  0.00    -0.510 OA
ATOM      2  C   LIG    1        5.319   2.031  -1.458  0.00  0.00    +0.500 C 
ATOM      3  N   LIG    1        6.622   1.804  -1.718  0.00  0.00    -0.720 N 
ATOM      4  H   LIG    1        7.249   1.692  -0.987  0.00  0.00    +0.400 HD
ENDROOT
BRANCH   3   5
ATOM      5  C   LIG    1        7.090   1.728  -3.104  0.00  0.00    +0.390 C 
BRANCH   5   6
ATOM      6  C   LIG    1        8.346   0.899  -3.165  0.00  0.00    -0.100 A 
ATOM      7  C   LIG    1        9.308   1.029  -2.180  0.00  0.00    +0.050 A 
ATOM      8  C   LIG    1       10.459   0.265  -2.232  0.00  0.00    -0.010 A 
ATOM      9  C   LIG    1       10.653  -0.622  -3.277  0.00  0.00    +0.110 A 
ATOM     10  C   LIG    1        9.692  -0.748  -4.265  0.00  0.00    -0.010 A 
ATOM     11  F   LIG    1       11.780  -1.366  -3.331  0.00  0.00    -0.140 F 
ATOM     12  C   LIG    1        8.539   0.013  -4.208  0.00  0.00    +0.070 A 
ENDBRANCH   5   6
BRANCH   5  13
ATOM     13  C   LIG    1        7.378   3.116  -3.614  0.00  0.00    -0.190 A 
ATOM     14  C   LIG    1        7.091   3.561  -4.838  0.00  0.00    +0.020 A 
ATOM     15  C   LIG    1        7.451   4.876  -5.080  0.00  0.00    +0.010 A 
ATOM     16  C   LIG    1        8.030   5.499  -4.052  0.00  0.00    -0.040 A 
ATOM     17  S   LIG    1        8.139   4.400  -2.683  0.00  0.00    +0.110 S 
ENDBRANCH   5  13
ENDBRANCH   3   5
BRANCH   2  18
ATOM     18  C   LIG    1        4.837   2.110  -0.032  0.00  0.00    +0.370 C 
BRANCH  18  19
ATOM     19  N   LIG    1        3.394   2.362  -0.017  0.00  0.00    -0.530 N 
ATOM     20  C   LIG    1        2.796   3.570  -0.005  0.00  0.00    +0.640 A 
ATOM     21  O   LIG    1        1.464   3.409   0.006  0.00  0.00    -0.230 OA
ATOM     22  C   LIG    1        1.175   2.085   0.002  0.00  0.00    +0.040 A 
ATOM     23  C   LIG    1       -0.017   1.377   0.010  0.00  0.00    +0.060 A 
ATOM     24  C   LIG    1        0.002  -0.004   0.002  0.00  0.00    +0.030 A 
ATOM     25  C   LIG    1        1.206  -0.686  -0.013  0.00  0.00    +0.040 A 
ATOM     26  C   LIG    1        2.399   0.011  -0.020  0.00  0.00    +0.030 A 
ATOM     27  O   LIG    1        3.375   4.640  -0.005  0.00  0.00    -0.480 OA
ATOM     28  C   LIG    1        2.388   1.396  -0.013  0.00  0.00    +0.080 A 
ENDBRANCH  18  19
ENDBRANCH   2  18
TORSDOF 5
