REMARK  Name = ZINCCC00000008MF.1
REMARK                            x       y       z     vdW  Elec       q    Type
REMARK                         _______ _______ _______ _____ _____    ______ ____
ROOT
ATOM      1  N   LIG    1       -0.695   1.563   1.223  0.00  0.00    -0.940 N 
ATOM      2  C   LIG    1        0.037   1.149   0.014  0.00  0.00    +0.330 C 
ATOM      3  C   LIG    1       -0.638   1.708  -1.211  0.00  0.00    +0.050 C 
ATOM      4  C   LIG    1       -1.155   0.898  -2.103  0.00  0.00    -0.090 C 
ATOM      5  C   LIG    1       -1.862   1.449  -3.314  0.00  0.00    +0.310 C 
ATOM      6  N   LIG    1       -2.472   0.350  -4.072  0.00  0.00    -0.500 N 
ATOM      7  C   LIG    1       -3.734  -0.060  -3.442  0.00  0.00    +0.280 C 
ATOM      8  C   LIG    1       -3.435  -0.896  -2.197  0.00  0.00    +0.050 C 
ATOM      9  C   LIG    1       -4.634  -1.726  -1.823  0.00  0.00    +0.530 C 
ATOM     10  N   LIG    1       -5.295  -1.445  -0.672  0.00  0.00    -0.710 N 
ATOM     11  H   LIG    1       -5.199  -0.586  -0.229  0.00  0.00    +0.400 HD
ATOM     12  C   LIG    1       -6.131  -2.512  -0.087  0.00  0.00    +0.310 C 
ATOM     13  C   LIG    1       -6.804  -2.000   1.174  0.00  0.00    +0.230 C 
ATOM     14  C   LIG    1       -7.741  -3.063   1.753  0.00  0.00    +0.040 C 
ATOM     15  C   LIG    1       -8.477  -2.470   2.959  0.00  0.00    +0.030 C 
ATOM     16  C   LIG    1       -7.461  -2.049   4.022  0.00  0.00    +0.010 C 
ATOM     17  C   LIG    1       -6.476  -1.039   3.437  0.00  0.00    +0.260 C 
ATOM     18  N   LIG    1       -5.862  -1.606   2.227  0.00  0.00    -0.580 N 
ATOM     19  C   LIG    1       -4.545  -1.757   2.126  0.00  0.00    +0.560 C 
ATOM     20  C   LIG    1       -3.540  -1.254   3.078  0.00  0.00    -0.120 A 
ATOM     21  C   LIG    1       -2.481  -0.492   2.542  0.00  0.00    +0.160 A 
ATOM     22  C   LIG    1       -1.512   0.030   3.365  0.00  0.00    -0.670 A 
ATOM     23  C   LIG    1       -1.574  -0.183   4.731  0.00  0.00    +0.160 A 
ATOM     24  C   LIG    1       -2.596  -0.943   5.267  0.00  0.00    +0.040 A 
ATOM     25  C   LIG    1       -3.561  -1.502   4.442  0.00  0.00    +0.030 A 
ATOM     26 CL   LIG    1       -4.777  -2.521   5.149  0.00  0.00    -0.030 Cl
ATOM     27  O   LIG    1       -4.088  -2.393   1.178  0.00  0.00    -0.530 OA
ATOM     28  O   LIG    1       -5.005  -2.630  -2.542  0.00  0.00    -0.520 OA
ATOM     29  H   LIG    1       -1.837  -0.436  -4.092  0.00  0.00    +0.430 HD
ATOM     30  H   LIG    1       -2.652   0.654  -5.018  0.00  0.00    +0.440 HD
ATOM     31  S   LIG    1       -0.189   0.973   2.693  0.00  0.00    +2.680 S 
ATOM     32  O   LIG    1        0.864   0.056   2.417  0.00  0.00    -0.930 OA
ATOM     33  O   LIG    1       -0.024   2.102   3.542  0.00  0.00    -0.920 OA
ENDROOT
BRANCH   1  39
ATOM     34  C   LIG    1       -1.593   3.806   1.362  0.00  0.00    +0.160 A 
ATOM     35  C   LIG    1       -2.671   4.671   1.281  0.00  0.00    -0.060 A 
ATOM     36  C   LIG    1       -3.930   4.182   0.985  0.00  0.00    +0.070 A 
ATOM     37  C   LIG    1       -4.117   2.830   0.767  0.00  0.00    -0.030 A 
ATOM     38  C   LIG    1       -3.045   1.960   0.840  0.00  0.00    +0.030 A 
ATOM     39  C   LIG    1       -1.781   2.442   1.143  0.00  0.00    +0.090 A 
BRANCH  34  41
ATOM     40  C   LIG    1       -0.237   5.693   1.867  0.00  0.00    +0.250 C 
ATOM     41  O   LIG    1       -0.354   4.285   1.655  0.00  0.00    -0.300 OA
ENDBRANCH  34  41
ENDBRANCH   1  39
TORSDOF 2
