REMARK  Name = ZINCrg00000SjSn6.0
REMARK                            x       y       z     vdW  Elec       q    Type
REMARK                         _______ _______ _______ _____ _____    ______ ____
ROOT
ATOM      1  N   LIG    1       -0.051   1.764   0.343  0.00  0.00    -0.510 NA
ATOM      2  C   LIG    1        1.334   2.256   0.305  0.00  0.00    +0.190 C 
ATOM      3  C   LIG    1        2.130   1.621   1.448  0.00  0.00    +0.200 C 
ATOM      4  N   LIG    1        2.089   0.157   1.315  0.00  0.00    -0.490 NA
ATOM      5  C   LIG    1        0.705  -0.334   1.354  0.00  0.00    +0.200 C 
ATOM      6  C   LIG    1       -0.091   0.301   0.211  0.00  0.00    +0.190 C 
ENDROOT
BRANCH   1   7
ATOM      7  C   LIG    1       -0.867   2.410  -0.693  0.00  0.00    +0.190 C 
ATOM      8  C   LIG    1       -0.259   2.129  -2.069  0.00  0.00    +0.030 C 
BRANCH   7  15
ATOM      9  C   LIG    1       -2.352   8.276  -1.668  0.00  0.00    +0.300 C 
ATOM     10  N   LIG    1       -2.319   6.830  -1.902  0.00  0.00    -0.740 N 
ATOM     11  H   LIG    1       -2.796   6.450  -2.656  0.00  0.00    +0.400 HD
ATOM     12  C   LIG    1       -1.625   6.029  -1.070  0.00  0.00    +0.690 C 
ATOM     13  N   LIG    1       -1.595   4.699  -1.285  0.00  0.00    -0.690 N 
ATOM     14  H   LIG    1       -2.072   4.318  -2.039  0.00  0.00    +0.410 HD
ATOM     15  C   LIG    1       -0.901   3.897  -0.453  0.00  0.00    +0.520 C 
ATOM     16  O   LIG    1       -0.304   4.372   0.489  0.00  0.00    -0.440 OA
ATOM     17  O   LIG    1       -1.026   6.505  -0.126  0.00  0.00    -0.530 OA
ENDBRANCH   7  15
ENDBRANCH   1   7
BRANCH   4  18
ATOM     18  C   LIG    1        2.905  -0.488   2.352  0.00  0.00    +0.270 C 
BRANCH  18  19
ATOM     19  C   LIG    1        4.330  -0.009   2.241  0.00  0.00    -0.070 A 
ATOM     20  C   LIG    1        4.818   0.924   3.136  0.00  0.00    +0.030 A 
ATOM     21  C   LIG    1        6.125   1.363   3.034  0.00  0.00    +0.020 A 
ATOM     22  C   LIG    1        6.944   0.871   2.035  0.00  0.00    +0.040 A 
ATOM     23  C   LIG    1        6.457  -0.062   1.139  0.00  0.00    +0.030 A 
ATOM     24  C   LIG    1        5.151  -0.507   1.245  0.00  0.00    -0.010 A 
ATOM     25 CL   LIG    1        4.541  -1.684   0.124  0.00  0.00    -0.050 Cl
ENDBRANCH  18  19
BRANCH  18  26
ATOM     26  C   LIG    1        2.362  -0.134   3.713  0.00  0.00    +0.430 C 
ATOM     27  O   LIG    1        1.393   0.583   3.808  0.00  0.00    -0.490 OA
BRANCH  26  28
ATOM     28  O   LIG    1        2.953  -0.614   4.818  0.00  0.00    -0.360 OA
ATOM     29  C   LIG    1        2.375  -0.232   6.094  0.00  0.00    +0.250 C 
ENDBRANCH  26  28
ENDBRANCH  18  26
ENDBRANCH   4  18
TORSDOF 6
