REMARK  Name = ZINCpk00000e8VWx.0
REMARK                            x       y       z     vdW  Elec       q    Type
REMARK                         _______ _______ _______ _____ _____    ______ ____
ROOT
ATOM      1  C   LIG    1       -4.675  -0.360   3.788  0.00  0.00    +0.040 C 
ATOM      2  C   LIG    1       -5.179   0.802   2.930  0.00  0.00    +0.050 C 
ATOM      3  C   LIG    1       -3.982   1.544   2.327  0.00  0.00    +0.300 C 
ATOM      4  N   LIG    1       -3.144   0.578   1.603  0.00  0.00    -1.000 NA
ATOM      5  C   LIG    1       -2.684  -0.626   2.308  0.00  0.00    +0.300 C 
ATOM      6  C   LIG    1       -3.891  -1.340   2.913  0.00  0.00    +0.050 C 
ENDROOT
BRANCH   4   7
ATOM      7  S   LIG    1       -2.732   0.839   0.020  0.00  0.00    +2.690 S 
ATOM      8  O   LIG    1       -2.434  -0.436  -0.532  0.00  0.00    -0.950 OA
ATOM      9  O   LIG    1       -3.723   1.706  -0.515  0.00  0.00    -0.950 OA
BRANCH   7  10
ATOM     10  C   LIG    1       -1.222   1.748   0.017  0.00  0.00    -0.690 A 
ATOM     11  C   LIG    1       -0.013   1.076   0.008  0.00  0.00    +0.160 A 
ATOM     12  C   LIG    1        1.179   1.781   0.000  0.00  0.00    -0.010 A 
ATOM     13  C   LIG    1        1.169   3.159   0.007  0.00  0.00    +0.130 A 
ATOM     14  C   LIG    1       -0.050   3.846   0.022  0.00  0.00    -0.190 A 
ATOM     15  C   LIG    1       -1.249   3.127   0.030  0.00  0.00    +0.190 A 
BRANCH  14  16
ATOM     16  C   LIG    1       -0.070   5.317   0.029  0.00  0.00    +0.390 C 
ATOM     17  O   LIG    1       -1.128   5.909   0.042  0.00  0.00    -0.450 OA
ATOM     18  C   LIG    1        1.225   6.088   0.021  0.00  0.00    +0.080 C 
ENDBRANCH  14  16
ENDBRANCH   7  10
ENDBRANCH   4   7
BRANCH   1  19
ATOM     19  C   LIG    1       -5.849  -1.071   4.411  0.00  0.00    +0.470 C 
ATOM     20  O   LIG    1       -6.973  -0.688   4.190  0.00  0.00    -0.500 OA
BRANCH  19  21
ATOM     21  O   LIG    1       -5.645  -2.131   5.210  0.00  0.00    -0.340 OA
BRANCH  21  22
ATOM     22  C   LIG    1       -6.822  -2.767   5.774  0.00  0.00    +0.230 C 
BRANCH  22  24
ATOM     23  C   LIG    1       -7.440  -4.759   7.343  0.00  0.00    +0.090 C 
ATOM     24  C   LIG    1       -6.400  -3.928   6.637  0.00  0.00    +0.350 C 
ATOM     25  O   LIG    1       -5.229  -4.192   6.763  0.00  0.00    -0.430 OA
ENDBRANCH  22  24
ENDBRANCH  21  22
ENDBRANCH  19  21
ENDBRANCH   1  19
TORSDOF 7
