REMARK  Name = ZINCqH0000008mpo.0
REMARK                            x       y       z     vdW  Elec       q    Type
REMARK                         _______ _______ _______ _____ _____    ______ ____
ROOT
ATOM      1  N   LIG    1       -2.731   1.537   0.065  0.00  0.00    -0.740 N 
ATOM      2  H   LIG    1       -2.277   1.224  -0.733  0.00  0.00    +0.400 HD
ATOM      3  C   LIG    1       -2.030   1.765   1.194  0.00  0.00    +0.710 C 
ATOM      4  N   LIG    1       -0.698   1.558   1.213  0.00  0.00    -0.610 N 
ATOM      5  C   LIG    1       -0.013   1.086   0.008  0.00  0.00    +0.280 C 
ATOM      6  O   LIG    1       -2.599   2.157   2.194  0.00  0.00    -0.590 OA
ENDROOT
BRANCH   1   8
ATOM      7  C   LIG    1       -4.896   0.515   0.567  0.00  0.00    +0.040 C 
ATOM      8  C   LIG    1       -4.178   1.762   0.044  0.00  0.00    +0.300 C 
BRANCH   8   9
ATOM      9  C   LIG    1       -4.623   2.042  -1.369  0.00  0.00    -0.100 A 
ATOM     10  C   LIG    1       -4.071   1.331  -2.419  0.00  0.00    +0.040 A 
ATOM     11  C   LIG    1       -4.479   1.582  -3.714  0.00  0.00    -0.010 A 
ATOM     12  C   LIG    1       -5.438   2.556  -3.962  0.00  0.00    +0.160 A 
ATOM     13  C   LIG    1       -5.986   3.271  -2.906  0.00  0.00    +0.030 A 
ATOM     14  C   LIG    1       -5.577   3.012  -1.612  0.00  0.00    +0.060 A 
BRANCH  12  15
ATOM     15  N   LIG    1       -5.851   2.816  -5.276  0.00  0.00    -0.330 N 
ATOM     16  C   LIG    1       -5.397   2.199  -6.390  0.00  0.00    +0.230 A 
ATOM     17  C   LIG    1       -6.046   2.733  -7.450  0.00  0.00    -0.100 A 
ATOM     18  C   LIG    1       -6.921   3.714  -6.970  0.00  0.00    +0.250 A 
ATOM     19  N   LIG    1       -6.805   3.765  -5.668  0.00  0.00    -0.290 NA
ENDBRANCH  12  15
ENDBRANCH   8   9
ENDBRANCH   1   8
BRANCH   4  20
ATOM     20  C   LIG    1        0.063   1.806   2.440  0.00  0.00    +0.330 C 
ATOM     21  C   LIG    1        1.124   2.877   2.174  0.00  0.00    +0.040 C 
BRANCH  20  22
ATOM     22  C   LIG    1        0.736   0.531   2.880  0.00  0.00    +0.120 A 
ATOM     23  C   LIG    1        1.061   0.355   4.211  0.00  0.00    -0.020 A 
ATOM     24  C   LIG    1        1.680  -0.822   4.605  0.00  0.00    +0.070 A 
ATOM     25  C   LIG    1        1.949  -1.781   3.641  0.00  0.00    -0.050 A 
ATOM     26  C   LIG    1        1.594  -1.534   2.328  0.00  0.00    +0.260 A 
ATOM     27  N   LIG    1        1.002  -0.406   1.990  0.00  0.00    -0.470 NA
ENDBRANCH  20  22
ENDBRANCH   4  20
TORSDOF 5
