REMARK  Name = ZINCnE00000rhnaX.0
REMARK                            x       y       z     vdW  Elec       q    Type
REMARK                         _______ _______ _______ _____ _____    ______ ____
ROOT
ATOM      1  C   LIG    1       -1.878   1.409   3.304  0.00  0.00    +0.180 A 
ATOM      2  C   LIG    1       -2.027   2.764   3.542  0.00  0.00    +0.040 A 
ATOM      3  C   LIG    1       -1.519   3.690   2.626  0.00  0.00    -0.130 A 
ATOM      4  C   LIG    1       -0.859   3.238   1.478  0.00  0.00    +0.130 A 
ATOM      5  C   LIG    1       -0.722   1.881   1.250  0.00  0.00    -0.200 A 
ATOM      6  F   LIG    1       -0.360   4.127   0.591  0.00  0.00    -0.110 F 
ATOM      7  C   LIG    1       -1.225   0.969   2.157  0.00  0.00    +0.010 A 
ENDROOT
BRANCH   5   8
ATOM      8  C   LIG    1       -0.017   1.395   0.010  0.00  0.00    +0.520 C 
ATOM      9  F   LIG    1       -0.694   1.858  -1.124  0.00  0.00    -0.170 F 
ATOM     10  F   LIG    1        1.296   1.879  -0.000  0.00  0.00    -0.170 F 
ATOM     11  F   LIG    1        0.002  -0.004   0.002  0.00  0.00    -0.180 F 
ENDBRANCH   5   8
BRANCH   3  12
ATOM     12  C   LIG    1       -1.673   5.135   2.871  0.00  0.00    +0.520 C 
ATOM     13  O   LIG    1       -1.228   5.942   2.067  0.00  0.00    -0.660 OA
ATOM     14  O   LIG    1       -2.247   5.527   3.878  0.00  0.00    -0.680 OA
ENDBRANCH   3  12
BRANCH   1  15
ATOM     15  N   LIG    1       -2.385   0.479   4.219  0.00  0.00    -0.740 N 
ATOM     16  H   LIG    1       -2.281  -0.471   4.053  0.00  0.00    +0.400 HD
BRANCH  15  17
ATOM     17  C   LIG    1       -3.072   0.941   5.427  0.00  0.00    +0.390 C 
BRANCH  17  23
ATOM     18  C   LIG    1       -5.810  -2.907   7.102  0.00  0.00    +0.140 C 
ATOM     19  C   LIG    1       -4.691  -1.908   6.964  0.00  0.00    -0.000 A 
ATOM     20  C   LIG    1       -3.580  -1.854   7.724  0.00  0.00    -0.020 A 
ATOM     21  N   LIG    1       -2.836  -0.802   7.264  0.00  0.00    -0.560 N 
ATOM     22  H   LIG    1       -1.978  -0.509   7.610  0.00  0.00    +0.420 HD
ATOM     23  C   LIG    1       -3.517  -0.249   6.238  0.00  0.00    +0.200 A 
ATOM     24  C   LIG    1       -3.226  -2.775   8.864  0.00  0.00    +0.130 C 
ATOM     25  N   LIG    1       -4.628  -0.913   6.067  0.00  0.00    -0.470 NA
ENDBRANCH  17  23
ENDBRANCH  15  17
ENDBRANCH   1  15
TORSDOF 5
