REMARK  Name = ZINCrD000000D7Bc.0
REMARK                            x       y       z     vdW  Elec       q    Type
REMARK                         _______ _______ _______ _____ _____    ______ ____
ROOT
ATOM      1  N   LIG    1       -3.629   5.963  -3.411  0.00  0.00    -0.990 NA
ATOM      2  C   LIG    1       -4.576   5.042  -2.764  0.00  0.00    +0.310 C 
ATOM      3  C   LIG    1       -4.105   4.790  -1.327  0.00  0.00    +0.170 C 
ATOM      4  N   LIG    1       -2.709   4.334  -1.346  0.00  0.00    -0.530 NA
ATOM      5  C   LIG    1       -1.818   5.367  -1.892  0.00  0.00    +0.190 C 
ATOM      6  C   LIG    1       -2.195   5.642  -3.352  0.00  0.00    +0.300 C 
ENDROOT
BRANCH   1   8
ATOM      7  O   LIG    1       -3.089   7.771  -5.001  0.00  0.00    -0.940 OA
ATOM      8  S   LIG    1       -4.164   7.325  -4.186  0.00  0.00    +2.690 S 
ATOM      9  O   LIG    1       -5.452   7.015  -4.700  0.00  0.00    -0.950 OA
BRANCH   8  10
ATOM     10  C   LIG    1       -4.404   8.564  -2.957  0.00  0.00    -0.680 A 
ATOM     11  C   LIG    1       -5.679   9.015  -2.670  0.00  0.00    +0.140 A 
ATOM     12  C   LIG    1       -5.868   9.983  -1.702  0.00  0.00    +0.010 A 
ATOM     13  C   LIG    1       -4.782  10.509  -1.028  0.00  0.00    +0.090 A 
ATOM     14  C   LIG    1       -3.506  10.063  -1.317  0.00  0.00    +0.010 A 
ATOM     15  C   LIG    1       -3.317   9.090  -2.282  0.00  0.00    +0.050 A 
ATOM     16 CL   LIG    1       -1.715   8.529  -2.647  0.00  0.00    -0.040 Cl
ENDBRANCH   8  10
ENDBRANCH   1   8
BRANCH   4  17
ATOM     17  C   LIG    1       -2.273   3.918  -0.006  0.00  0.00    +0.230 C 
BRANCH  17  18
ATOM     18  C   LIG    1       -0.934   3.232  -0.104  0.00  0.00    -0.060 A 
ATOM     19  C   LIG    1       -0.861   1.874  -0.094  0.00  0.00    +0.050 A 
ATOM     20  C   LIG    1        0.367   1.219  -0.178  0.00  0.00    +0.020 A 
ATOM     21  C   LIG    1        1.528   1.923  -0.282  0.00  0.00    +0.030 A 
ATOM     22  C   LIG    1        1.489   3.326  -0.300  0.00  0.00    -0.100 A 
ATOM     23  C   LIG    1        2.667   4.090  -0.407  0.00  0.00    +0.080 A 
ATOM     24  C   LIG    1        2.553   5.451  -0.419  0.00  0.00    -0.030 A 
ATOM     25  C   LIG    1        1.296   6.045  -0.328  0.00  0.00    +0.290 A 
ATOM     26  N   LIG    1        0.201   5.330  -0.228  0.00  0.00    -0.470 NA
ATOM     27  C   LIG    1        0.243   3.994  -0.210  0.00  0.00    +0.130 A 
ENDBRANCH  17  18
ENDBRANCH   4  17
TORSDOF 4
