REMARK  Name = ZINCqH000005074Q.0
REMARK                            x       y       z     vdW  Elec       q    Type
REMARK                         _______ _______ _______ _____ _____    ______ ____
ROOT
ATOM      1  C   LIG    1       -6.976   5.702   1.567  0.00  0.00    +0.250 C 
ATOM      2  C   LIG    1       -6.805   4.183   1.642  0.00  0.00    +0.030 C 
ATOM      3  C   LIG    1       -6.061   3.696   0.394  0.00  0.00    +0.270 C 
ATOM      4  N   LIG    1       -4.800   4.440   0.275  0.00  0.00    -0.620 N 
ATOM      5  C   LIG    1       -4.842   5.909   0.290  0.00  0.00    +0.310 C 
ATOM      6  C   LIG    1       -3.626   3.788   0.158  0.00  0.00    +0.710 C 
ATOM      7  N   LIG    1       -3.609   2.445   0.044  0.00  0.00    -0.680 N 
ATOM      8  H   LIG    1       -4.443   1.955  -0.031  0.00  0.00    +0.410 HD
ATOM      9  O   LIG    1       -2.582   4.412   0.157  0.00  0.00    -0.560 OA
ATOM     10  C   LIG    1       -5.601   6.371   1.533  0.00  0.00    +0.010 C 
ENDROOT
BRANCH   7  11
ATOM     11  C   LIG    1       -2.389   1.759   0.033  0.00  0.00    +0.180 A 
ATOM     12  C   LIG    1       -1.318   2.233   0.779  0.00  0.00    +0.050 A 
ATOM     13  C   LIG    1       -0.115   1.554   0.767  0.00  0.00    +0.070 A 
ATOM     14  C   LIG    1        0.023   0.402   0.014  0.00  0.00    -0.050 A 
ATOM     15  C   LIG    1       -1.043  -0.073  -0.731  0.00  0.00    -0.010 A 
ATOM     16 CL   LIG    1       -0.865  -1.519  -1.676  0.00  0.00    -0.040 Cl
ATOM     17 CL   LIG    1        1.537  -0.449   0.002  0.00  0.00    -0.050 Cl
ATOM     18  C   LIG    1       -2.247   0.606  -0.727  0.00  0.00    +0.020 A 
ENDBRANCH   7  11
BRANCH   1  20
ATOM     19  C   LIG    1       -8.418   7.317   2.685  0.00  0.00    +0.610 C 
ATOM     20  N   LIG    1       -7.716   6.168   2.743  0.00  0.00    -0.710 N 
ATOM     21  H   LIG    1       -7.701   5.649   3.562  0.00  0.00    +0.410 HD
ATOM     22  O   LIG    1       -8.438   7.967   1.658  0.00  0.00    -0.510 OA
BRANCH  19  27
ATOM     23  C   LIG    1      -11.295   9.914   5.952  0.00  0.00    +0.180 C 
ATOM     24  C   LIG    1      -10.402   8.892   5.295  0.00  0.00    +0.010 A 
ATOM     25  N   LIG    1       -9.927   7.810   5.839  0.00  0.00    -0.340 NA
ATOM     26  O   LIG    1       -9.239   7.181   5.070  0.00  0.00    +0.120 OA
ATOM     27  C   LIG    1       -9.164   7.786   3.869  0.00  0.00    -0.090 A 
ATOM     28  C   LIG    1       -9.913   8.926   3.970  0.00  0.00    +0.050 A 
ENDBRANCH  19  27
ENDBRANCH   1  20
TORSDOF 3
