REMARK  Name = ZINCvU00000009Qo.0
REMARK                            x       y       z     vdW  Elec       q    Type
REMARK                         _______ _______ _______ _____ _____    ______ ____
ROOT
ATOM      1  C   LIG    1        2.154   1.361   0.136  0.00  0.00    -0.170 A 
ATOM      2  C   LIG    1        0.882   1.935   0.187  0.00  0.00    +0.060 A 
ATOM      3  C   LIG    1       -0.237   1.135   0.105  0.00  0.00    -0.010 A 
ATOM      4  C   LIG    1       -0.108  -0.238  -0.027  0.00  0.00    +0.070 A 
ATOM      5  C   LIG    1        1.143  -0.820  -0.079  0.00  0.00    +0.020 A 
ATOM      6  C   LIG    1        2.282  -0.030   0.002  0.00  0.00    +0.210 A 
ENDROOT
BRANCH   1   9
ATOM      7  N   LIG    1        3.232   3.533   0.452  0.00  0.00    -0.660 N 
ATOM      8  H   LIG    1        2.357   3.915   0.626  0.00  0.00    +0.410 HD
ATOM      9  C   LIG    1        3.356   2.211   0.222  0.00  0.00    +0.570 C 
ATOM     10  O   LIG    1        4.460   1.719   0.087  0.00  0.00    -0.530 OA
BRANCH   7  14
ATOM     11  C   LIG    1        6.604   5.984   0.412  0.00  0.00    +0.120 A 
ATOM     12  C   LIG    1        5.392   6.465  -0.059  0.00  0.00    +0.010 A 
ATOM     13  C   LIG    1        4.274   5.654  -0.046  0.00  0.00    +0.030 A 
ATOM     14  C   LIG    1        4.364   4.356   0.438  0.00  0.00    +0.100 A 
ATOM     15  C   LIG    1        5.577   3.876   0.915  0.00  0.00    +0.060 A 
ATOM     16  C   LIG    1        6.695   4.687   0.897  0.00  0.00    -0.060 A 
BRANCH  11  18
ATOM     17  C   LIG    1        8.919   6.222   0.901  0.00  0.00    +0.250 C 
ATOM     18  O   LIG    1        7.704   6.783   0.400  0.00  0.00    -0.320 OA
ENDBRANCH  11  18
ENDBRANCH   7  14
ENDBRANCH   1   9
BRANCH   6  19
ATOM     19  N   LIG    1        3.545  -0.616  -0.051  0.00  0.00    -0.660 N 
ATOM     20  H   LIG    1        4.275  -0.154  -0.491  0.00  0.00    +0.430 HD
ATOM     21  C   LIG    1        3.751  -1.823   0.511  0.00  0.00    +0.520 C 
ATOM     22  O   LIG    1        2.821  -2.437   0.990  0.00  0.00    -0.500 OA
BRANCH  21  23
ATOM     23  C   LIG    1        5.138  -2.411   0.546  0.00  0.00    +0.240 C 
BRANCH  23  24
ATOM     24  O   LIG    1        5.100  -3.687   1.187  0.00  0.00    -0.290 OA
BRANCH  24  25
ATOM     25  C   LIG    1        6.277  -4.356   1.301  0.00  0.00    +0.130 A 
ATOM     26  C   LIG    1        7.445  -3.797   0.806  0.00  0.00    -0.080 A 
ATOM     27  C   LIG    1        8.641  -4.479   0.923  0.00  0.00    +0.050 A 
ATOM     28  C   LIG    1        8.673  -5.719   1.533  0.00  0.00    -0.030 A 
ATOM     29  C   LIG    1        7.510  -6.280   2.028  0.00  0.00    +0.050 A 
ATOM     30  C   LIG    1        6.313  -5.598   1.919  0.00  0.00    -0.100 A 
BRANCH  30  31
ATOM     31  C   LIG    1        5.046  -6.207   2.464  0.00  0.00    +0.030 C 
ATOM     32  C   LIG    1        5.198  -6.437   3.969  0.00  0.00    +0.020 C 
ATOM     33  C   LIG    1        4.781  -7.543   1.768  0.00  0.00    +0.020 C 
ENDBRANCH  30  31
ENDBRANCH  24  25
ENDBRANCH  23  24
ENDBRANCH  21  23
ENDBRANCH   6  19
TORSDOF 8
