REMARK  Name = ZINCAx0000000bLm.0
REMARK                            x       y       z     vdW  Elec       q    Type
REMARK                         _______ _______ _______ _____ _____    ______ ____
ROOT
ATOM      1  C   LIG    1        2.414   3.520  -1.029  0.00  0.00    +0.270 C 
ATOM      2  C   LIG    1        0.952   3.218  -0.637  0.00  0.00    +0.090 C 
ATOM      3  C   LIG    1        0.921   1.667  -0.580  0.00  0.00    +0.180 C 
ATOM      4  C   LIG    1        1.888   1.294  -1.732  0.00  0.00    +0.240 C 
ATOM      5  N   LIG    1        2.950   2.315  -1.678  0.00  0.00    -0.600 N 
ATOM      6  C   LIG    1        4.205   2.168  -2.147  0.00  0.00    +0.550 C 
ATOM      7  O   LIG    1        4.970   3.109  -2.137  0.00  0.00    -0.520 OA
ENDROOT
BRANCH   6   8
ATOM      8  C   LIG    1        4.658   0.835  -2.684  0.00  0.00    -0.060 C 
ATOM      9  C   LIG    1        3.680   0.360  -3.761  0.00  0.00    +0.030 C 
ATOM     10  C   LIG    1        4.140  -0.994  -4.305  0.00  0.00    -0.010 C 
ATOM     11  C   LIG    1        4.179  -2.015  -3.167  0.00  0.00    +0.020 C 
ATOM     12  C   LIG    1        5.157  -1.540  -2.090  0.00  0.00    +0.000 C 
ATOM     13  C   LIG    1        6.554  -1.398  -2.696  0.00  0.00    +0.020 C 
ATOM     14  C   LIG    1        6.515  -0.377  -3.835  0.00  0.00    -0.010 C 
ATOM     15  C   LIG    1        5.537  -0.852  -4.912  0.00  0.00    +0.020 C 
ATOM     16  C   LIG    1        4.697  -0.186  -1.545  0.00  0.00    +0.040 C 
ATOM     17  C   LIG    1        6.055   0.977  -3.290  0.00  0.00    +0.050 C 
ENDBRANCH   6   8
BRANCH   1  18
ATOM     18  C   LIG    1        2.458   4.682  -1.987  0.00  0.00    +0.460 C 
ATOM     19  O   LIG    1        2.893   4.528  -3.104  0.00  0.00    -0.480 OA
BRANCH  18  20
ATOM     20  O   LIG    1        2.014   5.888  -1.601  0.00  0.00    -0.330 OA
BRANCH  20  21
ATOM     21  C   LIG    1        2.087   6.962  -2.576  0.00  0.00    +0.270 C 
BRANCH  21  23
ATOM     22  N   LIG    1        1.517   9.366  -2.694  0.00  0.00    -0.570 N 
ATOM     23  C   LIG    1        1.549   8.231  -1.968  0.00  0.00    +0.520 C 
ATOM     24  O   LIG    1        1.144   8.231  -0.824  0.00  0.00    -0.490 OA
BRANCH  22  25
ATOM     25  C   LIG    1        1.017  10.545  -2.129  0.00  0.00    +0.100 A 
ATOM     26  C   LIG    1        1.870  11.411  -1.458  0.00  0.00    +0.060 A 
ATOM     27  C   LIG    1        1.374  12.575  -0.901  0.00  0.00    +0.020 A 
ATOM     28  C   LIG    1        0.029  12.877  -1.011  0.00  0.00    +0.060 A 
ATOM     29  C   LIG    1       -0.825  12.018  -1.678  0.00  0.00    -0.010 A 
ATOM     30  C   LIG    1       -0.334  10.855  -2.243  0.00  0.00    +0.110 A 
ATOM     31  F   LIG    1       -1.167  10.018  -2.899  0.00  0.00    -0.130 F 
ENDBRANCH  22  25
BRANCH  22  32
ATOM     32  C   LIG    1        2.006   9.365  -4.075  0.00  0.00    +0.310 C 
BRANCH  32  33
ATOM     33  C   LIG    1        0.854   9.029  -5.024  0.00  0.00    +0.180 C 
BRANCH  33  35
ATOM     34  N   LIG    1        1.725   9.028  -7.482  0.00  0.00    -0.420 NA
ATOM     35  C   LIG    1        1.346   9.029  -6.411  0.00  0.00    +0.200 C 
ENDBRANCH  33  35
ENDBRANCH  32  33
ENDBRANCH  22  32
ENDBRANCH  21  23
ENDBRANCH  20  21
ENDBRANCH  18  20
ENDBRANCH   1  18
BRANCH   3  36
ATOM     36  O   LIG    1       -0.394   1.171  -0.835  0.00  0.00    -0.550 OA
ATOM     37  H   LIG    1       -0.445   0.208  -0.905  0.00  0.00    +0.390 HD
ENDBRANCH   3  36
TORSDOF 10
