REMARK  Name = ZINCvU0000000BV8.0
REMARK                            x       y       z     vdW  Elec       q    Type
REMARK                         _______ _______ _______ _____ _____    ______ ____
ROOT
ATOM      1  C   LIG    1        4.847   1.581   0.225  0.00  0.00    -0.010 A 
ATOM      2  C   LIG    1        5.806   2.468   0.716  0.00  0.00    +0.000 A 
ATOM      3  C   LIG    1        7.122   2.068   0.828  0.00  0.00    +0.030 A 
ATOM      4  C   LIG    1        7.495   0.790   0.457  0.00  0.00    +0.000 A 
ATOM      5  C   LIG    1        6.547  -0.100  -0.033  0.00  0.00    +0.150 A 
ATOM      6  C   LIG    1        5.222   0.290  -0.144  0.00  0.00    +0.080 A 
ENDROOT
BRANCH   1  16
ATOM      7  C   LIG    1        3.862   4.495  -0.055  0.00  0.00    +0.330 C 
ATOM      8  N   LIG    1        3.012   3.303  -0.020  0.00  0.00    -0.490 N 
ATOM      9  C   LIG    1        1.634   3.276  -0.105  0.00  0.00    +0.050 A 
ATOM     10  C   LIG    1        0.658   4.253  -0.239  0.00  0.00    +0.010 A 
ATOM     11  C   LIG    1       -0.671   3.889  -0.295  0.00  0.00    +0.030 A 
ATOM     12  C   LIG    1       -1.038   2.553  -0.224  0.00  0.00    +0.000 A 
ATOM     13  C   LIG    1       -0.092   1.577  -0.086  0.00  0.00    +0.070 A 
ATOM     14  C   LIG    1        1.262   1.922  -0.027  0.00  0.00    +0.050 A 
ATOM     15  N   LIG    1        2.402   1.201   0.099  0.00  0.00    -0.470 NA
ATOM     16  C   LIG    1        3.435   2.007   0.104  0.00  0.00    +0.320 A 
ENDBRANCH   1  16
BRANCH   5  17
ATOM     17  N   LIG    1        6.930  -1.393  -0.408  0.00  0.00    -0.680 N 
ATOM     18  H   LIG    1        7.624  -1.856   0.087  0.00  0.00    +0.410 HD
ATOM     19  C   LIG    1        6.333  -1.996  -1.456  0.00  0.00    +0.510 C 
ATOM     20  O   LIG    1        5.405  -1.454  -2.018  0.00  0.00    -0.490 OA
BRANCH  19  21
ATOM     21  C   LIG    1        6.820  -3.341  -1.928  0.00  0.00    +0.180 C 
BRANCH  21  22
ATOM     22  C   LIG    1        5.991  -3.790  -3.104  0.00  0.00    +0.080 A 
ATOM     23  C   LIG    1        6.543  -4.126  -4.275  0.00  0.00    -0.070 A 
ATOM     24  S   LIG    1        5.251  -4.593  -5.379  0.00  0.00    +0.090 S 
ATOM     25  C   LIG    1        4.063  -4.270  -4.119  0.00  0.00    +0.120 A 
ATOM     26  N   LIG    1        4.682  -3.871  -3.044  0.00  0.00    -0.440 NA
BRANCH  25  27
ATOM     27  C   LIG    1        2.600  -4.428  -4.258  0.00  0.00    -0.030 A 
ATOM     28  C   LIG    1        1.759  -4.146  -3.180  0.00  0.00    +0.070 A 
ATOM     29  C   LIG    1        0.394  -4.289  -3.319  0.00  0.00    +0.010 A 
ATOM     30  C   LIG    1       -0.141  -4.724  -4.518  0.00  0.00    +0.030 A 
ATOM     31  C   LIG    1        0.687  -5.011  -5.588  0.00  0.00    +0.010 A 
ATOM     32  C   LIG    1        2.054  -4.866  -5.465  0.00  0.00    +0.020 A 
ENDBRANCH  25  27
ENDBRANCH  21  22
ENDBRANCH  19  21
ENDBRANCH   5  17
TORSDOF 5
