REMARK  Name = ZINCrH000004laYa.1
REMARK                            x       y       z     vdW  Elec       q    Type
REMARK                         _______ _______ _______ _____ _____    ______ ____
ROOT
ATOM      1  C   LIG    1        1.153   3.176   0.008  0.00  0.00    -0.030 A 
ATOM      2  C   LIG    1        1.174   1.780   0.000  0.00  0.00    +0.060 A 
ATOM      3  C   LIG    1       -0.013   1.076   0.008  0.00  0.00    +0.010 A 
ATOM      4  C   LIG    1       -1.221   1.750   0.017  0.00  0.00    -0.050 A 
ATOM      5  C   LIG    1       -1.248   3.133   0.030  0.00  0.00    +0.040 A 
ATOM      6  C   LIG    1       -0.070   3.849   0.022  0.00  0.00    +0.080 A 
ENDROOT
BRANCH   1  10
ATOM      7  C   LIG    1        3.873   5.482  -0.007  0.00  0.00    +0.160 A 
ATOM      8  N   LIG    1        4.473   4.329  -0.018  0.00  0.00    -0.370 NA
ATOM      9  O   LIG    1        3.661   3.427  -0.010  0.00  0.00    +0.090 OA
ATOM     10  C   LIG    1        2.420   3.937  -0.001  0.00  0.00    +0.230 A 
ATOM     11  N   LIG    1        2.550   5.252   0.004  0.00  0.00    -0.470 NA
BRANCH   7  12
ATOM     12  C   LIG    1        4.541   6.833  -0.006  0.00  0.00    +0.210 C 
ATOM     13  C   LIG    1        4.155   7.614  -1.279  0.00  0.00    +0.020 C 
ATOM     14  C   LIG    1        5.449   8.374  -1.664  0.00  0.00    +0.030 C 
ATOM     15  C   LIG    1        6.561   7.349  -1.331  0.00  0.00    +0.030 C 
ATOM     16  C   LIG    1        6.070   6.664  -0.038  0.00  0.00    +0.060 C 
BRANCH  12  18
ATOM     17  C   LIG    1        2.746   7.788   1.264  0.00  0.00    +0.220 C 
ATOM     18  O   LIG    1        4.154   7.569   1.156  0.00  0.00    -0.360 OA
ENDBRANCH  12  18
ENDBRANCH   7  12
ENDBRANCH   1  10
BRANCH   4  19
ATOM     19  C   LIG    1       -2.513   0.974   0.020  0.00  0.00    +0.230 C 
BRANCH  19  20
ATOM     20  N   LIG    1       -2.926   0.714   1.405  0.00  0.00    -0.530 NA
ATOM     21  C   LIG    1       -1.981  -0.190   2.076  0.00  0.00    +0.150 C 
ATOM     22  C   LIG    1       -2.415  -0.385   3.531  0.00  0.00    +0.200 C 
ATOM     23  O   LIG    1       -3.755  -0.884   3.561  0.00  0.00    -0.380 OA
ATOM     24  C   LIG    1       -4.702  -0.027   2.917  0.00  0.00    +0.160 C 
ATOM     25  C   LIG    1       -6.091  -0.666   2.974  0.00  0.00    +0.050 C 
ATOM     26  C   LIG    1       -2.352   0.955   4.268  0.00  0.00    +0.010 C 
ATOM     27  C   LIG    1       -4.291   0.172   1.456  0.00  0.00    +0.160 C 
ENDBRANCH  19  20
ENDBRANCH   4  19
TORSDOF 5
