REMARK  Name = ZINCrH000004sIJS.0
REMARK                            x       y       z     vdW  Elec       q    Type
REMARK                         _______ _______ _______ _____ _____    ______ ____
ROOT
ATOM      1  C   LIG    1        2.090  -0.828   0.796  0.00  0.00    +0.570 C 
ATOM      2  N   LIG    1        1.208  -0.684  -0.213  0.00  0.00    -0.520 N 
ATOM      3  H   LIG    1        1.408  -1.051  -1.089  0.00  0.00    +0.410 HD
ATOM      4  O   LIG    1        1.839  -0.368   1.893  0.00  0.00    -0.510 OA
ENDROOT
BRANCH   1  12
ATOM      5  C   LIG    1        6.862  -2.415   3.583  0.00  0.00    +0.190 C 
ATOM      6  C   LIG    1        6.638  -2.741   2.129  0.00  0.00    +0.120 A 
ATOM      7  N   LIG    1        7.455  -3.393   1.353  0.00  0.00    -0.240 NA
ATOM      8  N   LIG    1        6.912  -3.505   0.069  0.00  0.00    -0.390 N 
ATOM      9  C   LIG    1        5.692  -2.892   0.039  0.00  0.00    +0.340 A 
ATOM     10  N   LIG    1        4.783  -2.718  -0.915  0.00  0.00    -0.500 NA
ATOM     11  C   LIG    1        3.659  -2.078  -0.692  0.00  0.00    +0.380 A 
ATOM     12  C   LIG    1        3.361  -1.545   0.569  0.00  0.00    -0.240 A 
ATOM     13  C   LIG    1        4.283  -1.694   1.606  0.00  0.00    +0.240 A 
ATOM     14  C   LIG    1        7.552  -4.175  -1.065  0.00  0.00    +0.370 C 
ATOM     15  C   LIG    1        5.466  -2.384   1.336  0.00  0.00    -0.230 A 
ENDBRANCH   1  12
BRANCH   2  16
ATOM     16  N   LIG    1        0.002  -0.004   0.002  0.00  0.00    -0.370 N 
BRANCH  16  17
ATOM     17  C   LIG    1       -1.193  -0.720   0.115  0.00  0.00    +0.160 A 
ATOM     18  C   LIG    1       -2.041  -0.492   1.191  0.00  0.00    +0.010 A 
ATOM     19  C   LIG    1       -3.224  -1.197   1.297  0.00  0.00    +0.030 A 
ATOM     20  C   LIG    1       -3.559  -2.136   0.339  0.00  0.00    +0.000 A 
ATOM     21  C   LIG    1       -2.714  -2.370  -0.731  0.00  0.00    +0.030 A 
ATOM     22  C   LIG    1       -1.532  -1.664  -0.845  0.00  0.00    -0.010 A 
ENDBRANCH  16  17
BRANCH  16  23
ATOM     23  C   LIG    1       -0.006   1.389   0.104  0.00  0.00    +0.210 A 
ATOM     24  C   LIG    1       -1.212   2.077   0.152  0.00  0.00    -0.040 A 
ATOM     25  C   LIG    1       -1.216   3.454   0.258  0.00  0.00    +0.050 A 
ATOM     26  C   LIG    1       -0.021   4.149   0.305  0.00  0.00    -0.040 A 
ATOM     27  C   LIG    1        1.181   3.468   0.251  0.00  0.00    +0.040 A 
ATOM     28  C   LIG    1        1.192   2.091   0.150  0.00  0.00    -0.040 A 
ENDBRANCH  16  23
ENDBRANCH   2  16
TORSDOF 4
