REMARK  Name = ZINCrH00000tj19E.0
REMARK                            x       y       z     vdW  Elec       q    Type
REMARK                         _______ _______ _______ _____ _____    ______ ____
ROOT
ATOM      1  C   LIG    1        0.448   5.177  -2.674  0.00  0.00    +0.070 C 
ENDROOT
BRANCH   1   2
ATOM      2  C   LIG    1        1.483   6.265  -2.557  0.00  0.00    +0.550 C 
ATOM      3  N   LIG    1        1.742   7.066  -3.610  0.00  0.00    -0.600 N 
ATOM      4  C   LIG    1        1.029   6.893  -4.886  0.00  0.00    +0.250 C 
ATOM      5  C   LIG    1        0.475   8.261  -5.315  0.00  0.00    +0.220 C 
ATOM      6  O   LIG    1        1.535   9.220  -5.306  0.00  0.00    -0.380 OA
ATOM      7  C   LIG    1        2.115   9.439  -4.017  0.00  0.00    +0.220 C 
ATOM      8  C   LIG    1        2.748   8.135  -3.520  0.00  0.00    +0.270 C 
ATOM      9  O   LIG    1        2.085   6.421  -1.515  0.00  0.00    -0.520 OA
ENDBRANCH   1   2
BRANCH   1  10
ATOM     10  C   LIG    1       -0.927   5.772  -2.510  0.00  0.00    -0.090 A 
ATOM     11  C   LIG    1       -1.264   6.423  -1.337  0.00  0.00    +0.030 A 
ATOM     12  C   LIG    1       -2.523   6.972  -1.189  0.00  0.00    +0.000 A 
ATOM     13  C   LIG    1       -3.449   6.864  -2.209  0.00  0.00    +0.010 A 
ATOM     14  C   LIG    1       -3.115   6.209  -3.380  0.00  0.00    +0.000 A 
ATOM     15  C   LIG    1       -1.854   5.663  -3.530  0.00  0.00    +0.050 A 
ENDBRANCH   1  10
BRANCH   1  16
ATOM     16  S   LIG    1        0.726   3.938  -1.384  0.00  0.00    +0.070 S 
BRANCH  16  25
ATOM     17  N   LIG    1       -0.721   1.571  -1.179  0.00  0.00    -0.470 N 
ATOM     18  C   LIG    1       -1.746   0.921  -1.847  0.00  0.00    +0.060 A 
ATOM     19  C   LIG    1       -2.411  -0.280  -1.652  0.00  0.00    +0.010 A 
ATOM     20  C   LIG    1       -3.422  -0.652  -2.514  0.00  0.00    +0.030 A 
ATOM     21  C   LIG    1       -3.784   0.170  -3.570  0.00  0.00    +0.000 A 
ATOM     22  C   LIG    1       -3.139   1.369  -3.775  0.00  0.00    +0.060 A 
ATOM     23  C   LIG    1       -2.112   1.761  -2.913  0.00  0.00    +0.060 A 
ATOM     24  N   LIG    1       -1.308   2.855  -2.855  0.00  0.00    -0.480 NA
ATOM     25  C   LIG    1       -0.490   2.746  -1.837  0.00  0.00    +0.250 A 
BRANCH  17  27
ATOM     26  C   LIG    1       -0.729   1.579   1.267  0.00  0.00    +0.040 C 
ATOM     27  C   LIG    1       -0.013   1.086   0.008  0.00  0.00    +0.280 C 
ENDBRANCH  17  27
ENDBRANCH  16  25
ENDBRANCH   1  16
TORSDOF 5
