REMARK  Name = ZINCvU0000000B6x.0
REMARK                            x       y       z     vdW  Elec       q    Type
REMARK                         _______ _______ _______ _____ _____    ______ ____
ROOT
ATOM      1  C   LIG    1        1.010   3.519  -0.176  0.00  0.00    -0.060 A 
ATOM      2  C   LIG    1        2.174   4.273  -0.009  0.00  0.00    +0.020 A 
ATOM      3  C   LIG    1        2.090   5.638   0.176  0.00  0.00    +0.040 A 
ATOM      4  C   LIG    1        0.858   6.263   0.195  0.00  0.00    +0.030 A 
ATOM      5  C   LIG    1       -0.306   5.522   0.029  0.00  0.00    +0.150 A 
ATOM      6  C   LIG    1       -0.233   4.151  -0.162  0.00  0.00    +0.110 A 
ENDROOT
BRANCH   1  14
ATOM      7  C   LIG    1        3.454  -3.751  -1.044  0.00  0.00    +0.150 C 
ATOM      8  C   LIG    1        2.896  -2.361  -0.884  0.00  0.00    -0.200 A 
ATOM      9  C   LIG    1        1.609  -2.064  -0.913  0.00  0.00    -0.030 A 
ATOM     10  C   LIG    1        1.306  -0.658  -0.736  0.00  0.00    -0.220 A 
ATOM     11  C   LIG    1        2.448   0.107  -0.569  0.00  0.00    +0.060 A 
ATOM     12  N   LIG    1        2.319   1.468  -0.389  0.00  0.00    -0.590 N 
ATOM     13  H   LIG    1        3.114   2.012  -0.270  0.00  0.00    +0.420 HD
ATOM     14  C   LIG    1        1.097   2.057  -0.373  0.00  0.00    +0.490 A 
ATOM     15  N   LIG    1       -0.014   1.370  -0.528  0.00  0.00    -0.570 NA
ATOM     16  C   LIG    1        0.006   0.044  -0.710  0.00  0.00    +0.550 A 
ATOM     17  O   LIG    1       -1.036  -0.577  -0.853  0.00  0.00    -0.480 OA
ATOM     18  C   LIG    1        0.540  -3.107  -1.115  0.00  0.00    +0.130 C 
ATOM     19  S   LIG    1        3.870  -0.924  -0.633  0.00  0.00    +0.170 S 
ENDBRANCH   1  14
BRANCH   5  20
ATOM     20  N   LIG    1       -1.551   6.160   0.050  0.00  0.00    -0.680 N 
ATOM     21  H   LIG    1       -1.640   7.062  -0.296  0.00  0.00    +0.410 HD
ATOM     22  C   LIG    1       -2.628   5.522   0.550  0.00  0.00    +0.510 C 
ATOM     23  O   LIG    1       -2.500   4.433   1.069  0.00  0.00    -0.480 OA
BRANCH  22  24
ATOM     24  C   LIG    1       -3.990   6.160   0.464  0.00  0.00    +0.220 C 
BRANCH  24  25
ATOM     25  N   LIG    1       -4.987   5.272   1.075  0.00  0.00    -0.520 NA
ATOM     26  C   LIG    1       -5.133   4.032   0.300  0.00  0.00    +0.210 C 
BRANCH  25  27
ATOM     27  C   LIG    1       -6.279   5.954   1.224  0.00  0.00    +0.280 C 
BRANCH  27  28
ATOM     28  C   LIG    1       -7.199   5.109   2.068  0.00  0.00    -0.170 A 
ATOM     29  C   LIG    1       -7.297   5.173   3.397  0.00  0.00    +0.040 A 
ATOM     30  C   LIG    1       -8.216   4.301   3.956  0.00  0.00    +0.030 A 
ATOM     31  C   LIG    1       -8.856   3.521   3.081  0.00  0.00    -0.150 A 
ATOM     32 CL   LIG    1      -10.053   2.332   3.489  0.00  0.00    -0.010 Cl
ATOM     33  S   LIG    1       -8.300   3.885   1.452  0.00  0.00    +0.150 S 
ENDBRANCH  27  28
ENDBRANCH  25  27
ENDBRANCH  24  25
ENDBRANCH  22  24
ENDBRANCH   5  20
TORSDOF 6
