REMARK  Name = ZINCpe000000YSWd.0
REMARK                            x       y       z     vdW  Elec       q    Type
REMARK                         _______ _______ _______ _____ _____    ______ ____
ROOT
ATOM      1  O   LIG    1       -1.540   2.130  -3.753  0.00  0.00    -0.510 OA
ATOM      2  C   LIG    1       -0.543   1.446  -3.655  0.00  0.00    +0.500 C 
ATOM      3  N   LIG    1       -0.067   1.120  -2.437  0.00  0.00    -0.730 N 
ATOM      4  H   LIG    1        0.730   0.573  -2.358  0.00  0.00    +0.400 HD
ENDROOT
BRANCH   3   5
ATOM      5  C   LIG    1       -0.753   1.593  -1.232  0.00  0.00    +0.270 C 
BRANCH   5   6
ATOM      6  C   LIG    1       -0.013   1.086   0.008  0.00  0.00    +0.280 C 
BRANCH   6   7
ATOM      7  N   LIG    1       -0.698   1.558   1.213  0.00  0.00    -0.710 N 
ATOM      8  H   LIG    1       -1.495   2.106   1.135  0.00  0.00    +0.410 HD
BRANCH   7   9
ATOM      9  C   LIG    1       -0.207   1.222   2.469  0.00  0.00    +0.360 A 
ATOM     10  C   LIG    1        0.937   0.436   2.584  0.00  0.00    +0.150 A 
ATOM     11  N   LIG    1        1.401   0.120   3.779  0.00  0.00    -0.400 NA
ATOM     12  C   LIG    1        0.780   0.548   4.865  0.00  0.00    +0.150 A 
ATOM     13  C   LIG    1       -0.355   1.328   4.755  0.00  0.00    +0.280 A 
ATOM     14  N   LIG    1       -0.823   1.654   3.562  0.00  0.00    -0.500 NA
ENDBRANCH   7   9
ENDBRANCH   6   7
ENDBRANCH   5   6
ENDBRANCH   3   5
BRANCH   2  15
ATOM     15  C   LIG    1        0.162   0.960  -4.895  0.00  0.00    +0.330 C 
BRANCH  15  16
ATOM     16  N   LIG    1       -0.547   1.445  -6.082  0.00  0.00    -0.540 N 
ATOM     17  C   LIG    1       -1.534   0.707  -6.637  0.00  0.00    +0.530 C 
ATOM     18  C   LIG    1       -2.202   1.184  -7.900  0.00  0.00    +0.040 C 
ATOM     19  C   LIG    1       -3.136   2.353  -7.597  0.00  0.00    +0.250 C 
ATOM     20  O   LIG    1       -2.509   3.275  -6.710  0.00  0.00    -0.320 OA
ATOM     21  C   LIG    1       -1.211   3.592  -6.961  0.00  0.00    +0.100 A 
ATOM     22  C   LIG    1       -0.883   4.814  -7.523  0.00  0.00    +0.020 A 
ATOM     23  C   LIG    1        0.441   5.120  -7.784  0.00  0.00    +0.020 A 
ATOM     24  C   LIG    1        1.438   4.211  -7.485  0.00  0.00    +0.020 A 
ATOM     25  C   LIG    1        1.119   2.989  -6.921  0.00  0.00    +0.010 A 
ATOM     26  O   LIG    1       -1.883  -0.332  -6.118  0.00  0.00    -0.520 OA
ATOM     27  C   LIG    1       -0.204   2.677  -6.656  0.00  0.00    +0.110 A 
ENDBRANCH  15  16
ENDBRANCH   2  15
TORSDOF 6
