REMARK  Name = ZINCvU000000097b.0
REMARK                            x       y       z     vdW  Elec       q    Type
REMARK                         _______ _______ _______ _____ _____    ______ ____
ROOT
ATOM      1  C   LIG    1        0.819   5.602  -1.367  0.00  0.00    +0.510 C 
ATOM      2  N   LIG    1        0.544   4.697  -0.407  0.00  0.00    -0.610 N 
ATOM      3  C   LIG    1       -0.776   4.661   0.241  0.00  0.00    +0.290 C 
ATOM      4  C   LIG    1       -1.456   3.334  -0.113  0.00  0.00    +0.120 C 
ATOM      5  C   LIG    1       -0.459   2.207   0.059  0.00  0.00    -0.170 A 
ATOM      6  C   LIG    1        0.878   2.357   0.112  0.00  0.00    -0.110 A 
ATOM      7  C   LIG    1        1.572   1.161   0.263  0.00  0.00    +0.020 A 
ATOM      8  C   LIG    1        0.822   0.066   0.337  0.00  0.00    -0.040 A 
ATOM      9  S   LIG    1       -0.875   0.505   0.211  0.00  0.00    +0.110 S 
ATOM     10  C   LIG    1        1.556   3.720   0.020  0.00  0.00    +0.370 C 
ATOM     11  O   LIG    1        1.913   5.618  -1.890  0.00  0.00    -0.500 OA
ENDROOT
BRANCH  10  12
ATOM     12  C   LIG    1        2.104   4.109   1.369  0.00  0.00    -0.080 A 
ATOM     13  C   LIG    1        1.511   5.131   2.087  0.00  0.00    +0.000 A 
ATOM     14  C   LIG    1        2.011   5.485   3.326  0.00  0.00    +0.000 A 
ATOM     15  C   LIG    1        3.109   4.824   3.843  0.00  0.00    +0.000 A 
ATOM     16  C   LIG    1        3.705   3.805   3.123  0.00  0.00    +0.000 A 
ATOM     17  C   LIG    1        3.202   3.448   1.885  0.00  0.00    +0.010 A 
ENDBRANCH  10  12
BRANCH   1  18
ATOM     18  C   LIG    1       -0.233   6.595  -1.790  0.00  0.00    +0.060 C 
BRANCH  18  30
ATOM     19  C   LIG    1        3.827   8.828  -2.049  0.00  0.00    +0.110 C 
ATOM     20  C   LIG    1        2.706   7.995  -2.613  0.00  0.00    +0.520 C 
ATOM     21  N   LIG    1        1.425   8.311  -2.337  0.00  0.00    -0.560 N 
ATOM     22  C   LIG    1        1.136   9.406  -1.531  0.00  0.00    +0.240 C 
ATOM     23  C   LIG    1        0.017  10.107  -1.745  0.00  0.00    -0.040 C 
ATOM     24  C   LIG    1       -0.905   9.683  -2.816  0.00  0.00    -0.030 A 
ATOM     25  C   LIG    1       -1.919  10.530  -3.261  0.00  0.00    +0.020 A 
ATOM     26  C   LIG    1       -2.760  10.111  -4.280  0.00  0.00    +0.010 A 
ATOM     27  C   LIG    1       -2.595   8.863  -4.853  0.00  0.00    +0.000 A 
ATOM     28  C   LIG    1       -1.593   8.016  -4.409  0.00  0.00    +0.030 A 
ATOM     29  C   LIG    1       -0.754   8.416  -3.393  0.00  0.00    -0.100 A 
ATOM     30  C   LIG    1        0.332   7.501  -2.885  0.00  0.00    +0.320 C 
ATOM     31  O   LIG    1        2.955   7.038  -3.317  0.00  0.00    -0.480 OA
ENDBRANCH  18  30
ENDBRANCH   1  18
TORSDOF 3
