REMARK  Name = ZINCqH0000008w8C.0
REMARK                            x       y       z     vdW  Elec       q    Type
REMARK                         _______ _______ _______ _____ _____    ______ ____
ROOT
ATOM      1  C   LIG    1       -1.738   6.708   0.679  0.00  0.00    +0.190 A 
ATOM      2  N   LIG    1       -1.235   6.850  -0.524  0.00  0.00    -0.310 NA
ATOM      3  N   LIG    1       -1.023   5.573  -1.058  0.00  0.00    -0.340 NA
ATOM      4  C   LIG    1       -1.410   4.692  -0.168  0.00  0.00    +0.420 A 
ATOM      5  N   LIG    1       -1.859   5.370   0.930  0.00  0.00    -0.460 N 
ENDROOT
BRANCH   4   6
ATOM      6  N   LIG    1       -1.366   3.312  -0.312  0.00  0.00    -0.450 N 
ATOM      7  C   LIG    1       -0.824   2.937  -1.625  0.00  0.00    +0.220 C 
ATOM      8  C   LIG    1       -0.925   1.421  -1.807  0.00  0.00    +0.030 C 
ATOM      9  C   LIG    1       -0.140   0.725  -0.692  0.00  0.00    +0.000 C 
ATOM     10  C   LIG    1       -0.691   1.169   0.666  0.00  0.00    +0.040 C 
ATOM     11  C   LIG    1       -0.598   2.692   0.775  0.00  0.00    +0.190 C 
ENDBRANCH   4   6
BRANCH   5  12
ATOM     12  C   LIG    1       -2.378   4.769   2.161  0.00  0.00    +0.190 C 
ATOM     13  C   LIG    1       -3.157   5.676   3.116  0.00  0.00    +0.070 C 
ATOM     14  C   LIG    1       -1.747   5.209   3.483  0.00  0.00    +0.060 C 
ENDBRANCH   5  12
BRANCH   1  15
ATOM     15  S   LIG    1       -2.180   8.013   1.778  0.00  0.00    +0.090 S 
BRANCH  15  17
ATOM     16  C   LIG    1       -0.255   9.560   0.601  0.00  0.00    +0.090 C 
ATOM     17  C   LIG    1       -1.767   9.503   0.829  0.00  0.00    -0.010 C 
BRANCH  17  18
ATOM     18  C   LIG    1       -2.205  10.724   1.596  0.00  0.00    +0.540 C 
ATOM     19  N   LIG    1       -2.477  11.870   0.940  0.00  0.00    -0.660 N 
ATOM     20  H   LIG    1       -2.502  11.879  -0.030  0.00  0.00    +0.410 HD
ATOM     21  O   LIG    1       -2.313  10.676   2.803  0.00  0.00    -0.500 OA
BRANCH  19  22
ATOM     22  C   LIG    1       -2.723  13.045   1.658  0.00  0.00    +0.140 A 
ATOM     23  C   LIG    1       -3.566  14.017   1.135  0.00  0.00    -0.020 A 
ATOM     24  C   LIG    1       -3.811  15.174   1.848  0.00  0.00    +0.030 A 
ATOM     25  C   LIG    1       -3.208  15.371   3.077  0.00  0.00    -0.010 A 
ATOM     26  C   LIG    1       -2.364  14.407   3.598  0.00  0.00    +0.030 A 
ATOM     27  C   LIG    1       -2.120  13.246   2.893  0.00  0.00    +0.020 A 
ENDBRANCH  19  22
ENDBRANCH  17  18
ENDBRANCH  15  17
ENDBRANCH   1  15
TORSDOF 6
