REMARK  Name = ZINCrg00000SjSM5.0
REMARK                            x       y       z     vdW  Elec       q    Type
REMARK                         _______ _______ _______ _____ _____    ______ ____
ROOT
ATOM      1  N   LIG    1        7.559   2.184   0.894  0.00  0.00    -0.730 N 
ATOM      2  H   LIG    1        7.870   2.593   0.071  0.00  0.00    +0.400 HD
ATOM      3  C   LIG    1        6.239   2.017   1.106  0.00  0.00    +0.710 C 
ATOM      4  N   LIG    1        5.351   2.418   0.175  0.00  0.00    -0.740 N 
ATOM      5  H   LIG    1        5.662   2.828  -0.648  0.00  0.00    +0.400 HD
ATOM      6  O   LIG    1        5.848   1.503   2.136  0.00  0.00    -0.560 OA
ENDROOT
BRANCH   4   7
ATOM      7  C   LIG    1        3.915   2.236   0.405  0.00  0.00    +0.260 C 
ATOM      8  C   LIG    1        3.132   3.267  -0.414  0.00  0.00    +0.040 C 
ATOM      9  C   LIG    1        1.656   3.227   0.002  0.00  0.00    +0.180 C 
ATOM     10  C   LIG    1        1.205   1.787   0.000  0.00  0.00    +0.270 A 
ATOM     11  N   LIG    1       -0.016   1.331   0.009  0.00  0.00    -0.540 NA
ATOM     12  C   LIG    1        0.002  -0.004   0.002  0.00  0.00    +0.420 A 
ATOM     13  N   LIG    1        1.246  -0.414  -0.012  0.00  0.00    -0.310 NA
ATOM     14  N   LIG    1        2.044   0.734  -0.013  0.00  0.00    -0.370 N 
ATOM     15  C   LIG    1        3.504   0.823  -0.024  0.00  0.00    +0.310 C 
ENDBRANCH   4   7
BRANCH   1  19
ATOM     16  N   LIG    1       10.113   0.222   1.101  0.00  0.00    -0.610 N 
ATOM     17  C   LIG    1       10.672   1.557   0.856  0.00  0.00    +0.260 C 
ATOM     18  C   LIG    1        9.855   2.519   1.753  0.00  0.00    +0.060 C 
ATOM     19  C   LIG    1        8.524   1.747   1.906  0.00  0.00    +0.250 C 
ATOM     20  C   LIG    1        8.904   0.299   1.685  0.00  0.00    +0.500 C 
ATOM     21  O   LIG    1        8.219  -0.653   1.991  0.00  0.00    -0.500 OA
BRANCH  16  22
ATOM     22  C   LIG    1       10.785  -1.032   0.755  0.00  0.00    +0.350 C 
BRANCH  22  27
ATOM     23  C   LIG    1        9.303  -2.597  -4.607  0.00  0.00    +0.090 C 
ATOM     24  C   LIG    1        9.690  -2.189  -3.208  0.00  0.00    -0.080 A 
ATOM     25  C   LIG    1       10.794  -1.384  -3.004  0.00  0.00    -0.010 A 
ATOM     26  C   LIG    1       11.149  -1.010  -1.721  0.00  0.00    +0.020 A 
ATOM     27  C   LIG    1       10.398  -1.440  -0.643  0.00  0.00    -0.120 A 
ATOM     28  C   LIG    1        9.296  -2.249  -0.847  0.00  0.00    +0.030 A 
ATOM     29  C   LIG    1        8.940  -2.620  -2.130  0.00  0.00    +0.000 A 
ENDBRANCH  22  27
ENDBRANCH  16  22
ENDBRANCH   1  19
TORSDOF 4
