REMARK  Name = ZINCkj000005hiHu.0
REMARK                            x       y       z     vdW  Elec       q    Type
REMARK                         _______ _______ _______ _____ _____    ______ ____
ROOT
ATOM      1  C   LIG    1        4.603   0.535   1.765  0.00  0.00    +0.320 C 
ATOM      2  N   LIG    1        5.393   1.705   1.360  0.00  0.00    -0.390 N 
ATOM      3  H   LIG    1        5.388   2.388   2.103  0.00  0.00    +0.420 HD
ENDROOT
BRANCH   2   4
ATOM      4  C   LIG    1        6.775   1.291   1.084  0.00  0.00    +0.300 C 
BRANCH   4   5
ATOM      5  C   LIG    1        7.440   0.834   2.384  0.00  0.00    +0.110 C 
ATOM      6  C   LIG    1        7.310   1.936   3.440  0.00  0.00    -0.020 C 
ATOM      7  C   LIG    1        8.046   1.502   4.711  0.00  0.00    +0.230 C 
ATOM      8  O   LIG    1        9.414   1.231   4.399  0.00  0.00    -0.370 OA
ATOM      9  C   LIG    1        9.598   0.177   3.451  0.00  0.00    +0.220 C 
ATOM     10  C   LIG    1        8.925   0.558   2.130  0.00  0.00    +0.020 C 
BRANCH   5  11
ATOM     11  O   LIG    1        6.805  -0.357   2.852  0.00  0.00    -0.560 OA
ATOM     12  H   LIG    1        7.177  -0.704   3.675  0.00  0.00    +0.400 HD
ENDBRANCH   5  11
ENDBRANCH   4   5
ENDBRANCH   2   4
BRANCH   2  13
ATOM     13  C   LIG    1        4.807   2.296   0.149  0.00  0.00    +0.370 C 
BRANCH  13  14
ATOM     14  C   LIG    1        3.434   2.831   0.464  0.00  0.00    -0.170 A 
ATOM     15  C   LIG    1        3.128   4.104   0.800  0.00  0.00    +0.290 A 
ATOM     16  N   LIG    1        1.810   4.185   1.003  0.00  0.00    -0.480 NA
ATOM     17  C   LIG    1        1.265   2.993   0.805  0.00  0.00    +0.260 A 
ATOM     18  C   LIG    1       -0.065   2.533   0.884  0.00  0.00    +0.080 A 
ATOM     19  C   LIG    1       -0.334   1.226   0.622  0.00  0.00    +0.080 A 
ATOM     20  C   LIG    1        0.713   0.356   0.276  0.00  0.00    +0.050 A 
ATOM     21  C   LIG    1        1.981   0.811   0.203  0.00  0.00    +0.180 A 
ATOM     22  N   LIG    1        2.265   2.120   0.464  0.00  0.00    -0.350 N 
ENDBRANCH  13  14
ENDBRANCH   2  13
TORSDOF 5
