REMARK  Name = ZINCkj000005hiHu.1
REMARK                            x       y       z     vdW  Elec       q    Type
REMARK                         _______ _______ _______ _____ _____    ______ ____
ROOT
ATOM      1  C   LIG    1       -0.407   1.107  -0.230  0.00  0.00    +0.320 C 
ATOM      2  N   LIG    1       -0.851   1.544   1.100  0.00  0.00    -0.390 N 
ATOM      3  H   LIG    1       -1.829   1.326   1.217  0.00  0.00    +0.410 HD
ENDROOT
BRANCH   2   4
ATOM      4  C   LIG    1       -0.653   2.994   1.231  0.00  0.00    +0.310 C 
BRANCH   4   5
ATOM      5  C   LIG    1       -1.297   3.481   2.530  0.00  0.00    +0.110 C 
ATOM      6  C   LIG    1       -2.754   3.013   2.588  0.00  0.00    -0.030 C 
ATOM      7  C   LIG    1       -3.412   3.571   3.852  0.00  0.00    +0.230 C 
ATOM      8  O   LIG    1       -3.318   4.997   3.847  0.00  0.00    -0.370 OA
ATOM      9  C   LIG    1       -1.978   5.493   3.842  0.00  0.00    +0.220 C 
ATOM     10  C   LIG    1       -1.262   5.012   2.577  0.00  0.00    +0.020 C 
BRANCH   5  11
ATOM     11  O   LIG    1       -0.579   2.953   3.647  0.00  0.00    -0.560 OA
ATOM     12  H   LIG    1       -0.933   3.222   4.506  0.00  0.00    +0.400 HD
ENDBRANCH   5  11
ENDBRANCH   4   5
ENDBRANCH   2   4
BRANCH   2  13
ATOM     13  C   LIG    1       -0.068   0.848   2.130  0.00  0.00    +0.390 C 
BRANCH  13  14
ATOM     14  C   LIG    1       -0.287  -0.638   2.009  0.00  0.00    -0.160 A 
ATOM     15  C   LIG    1        0.493  -1.511   1.335  0.00  0.00    +0.280 A 
ATOM     16  N   LIG    1       -0.028  -2.734   1.462  0.00  0.00    -0.480 NA
ATOM     17  C   LIG    1       -1.126  -2.665   2.203  0.00  0.00    +0.260 A 
ATOM     18  C   LIG    1       -2.042  -3.644   2.635  0.00  0.00    +0.090 A 
ATOM     19  C   LIG    1       -3.101  -3.273   3.405  0.00  0.00    +0.070 A 
ATOM     20  C   LIG    1       -3.266  -1.923   3.756  0.00  0.00    +0.050 A 
ATOM     21  C   LIG    1       -2.380  -0.996   3.334  0.00  0.00    +0.190 A 
ATOM     22  N   LIG    1       -1.311  -1.356   2.566  0.00  0.00    -0.350 N 
ENDBRANCH  13  14
ENDBRANCH   2  13
TORSDOF 5
