REMARK  Name = ZINC580000002IMk.0
REMARK                            x       y       z     vdW  Elec       q    Type
REMARK                         _______ _______ _______ _____ _____    ______ ____
ROOT
ATOM      1  C   LIG    1        1.286   1.562  -0.002  0.00  0.00    +0.180 C 
ENDROOT
BRANCH   1   2
ATOM      2  C   LIG    1        1.145   3.085   0.008  0.00  0.00    +0.390 C 
ATOM      3  F   LIG    1        0.456   3.482   1.159  0.00  0.00    -0.200 F 
ATOM      4  F   LIG    1        0.434   3.495  -1.126  0.00  0.00    -0.200 F 
ENDBRANCH   1   2
BRANCH   1   5
ATOM      5  O   LIG    1       -0.011   0.963   0.007  0.00  0.00    -0.560 OA
ATOM      6  H   LIG    1        0.002  -0.004   0.002  0.00  0.00    +0.390 HD
ENDBRANCH   1   5
TORSDOF 2
