REMARK  Name = ZINCrg000009DEsP.0
REMARK                            x       y       z     vdW  Elec       q    Type
REMARK                         _______ _______ _______ _____ _____    ______ ____
ROOT
ATOM      1  C   LIG    1       -4.218   1.425   1.642  0.00  0.00    +0.560 C 
ATOM      2  N   LIG    1       -2.930   1.739   1.401  0.00  0.00    -0.720 N 
ATOM      3  H   LIG    1       -2.287   1.738   2.127  0.00  0.00    +0.400 HD
ATOM      4  O   LIG    1       -5.024   1.426   0.732  0.00  0.00    -0.530 OA
ENDROOT
BRANCH   1   8
ATOM      5  C   LIG    1       -5.463   0.430   5.579  0.00  0.00    +0.170 A 
ATOM      6  C   LIG    1       -6.386   0.431   4.538  0.00  0.00    +0.020 A 
ATOM      7  C   LIG    1       -5.986   0.753   3.261  0.00  0.00    +0.090 A 
ATOM      8  C   LIG    1       -4.651   1.079   3.010  0.00  0.00    -0.130 A 
ATOM      9  C   LIG    1       -3.724   1.071   4.056  0.00  0.00    +0.060 A 
ATOM     10  C   LIG    1       -4.132   0.754   5.332  0.00  0.00    +0.000 A 
BRANCH   5  12
ATOM     11  C   LIG    1       -6.736   0.903   7.526  0.00  0.00    +0.550 C 
ATOM     12  N   LIG    1       -5.871   0.104   6.871  0.00  0.00    -0.580 N 
ATOM     13  C   LIG    1       -5.359  -1.107   7.516  0.00  0.00    +0.300 C 
ATOM     14  O   LIG    1       -7.235   1.855   6.957  0.00  0.00    -0.520 OA
BRANCH  11  16
ATOM     15  C   LIG    1       -7.931   1.412   9.575  0.00  0.00    +0.160 C 
ATOM     16  C   LIG    1       -7.077   0.624   8.929  0.00  0.00    -0.090 C 
ENDBRANCH  11  16
ENDBRANCH   5  12
ENDBRANCH   1   8
BRANCH   2  17
ATOM     17  C   LIG    1       -2.501   2.082   0.043  0.00  0.00    +0.380 C 
BRANCH  17  18
ATOM     18  C   LIG    1       -1.026   2.390   0.045  0.00  0.00    -0.140 A 
ATOM     19  C   LIG    1        0.009   1.499   0.040  0.00  0.00    -0.040 A 
ATOM     20  C   LIG    1        0.035   0.028   0.030  0.00  0.00    +0.590 C 
ATOM     21  N   LIG    1        1.228  -0.553   0.307  0.00  0.00    -0.620 N 
ATOM     22  C   LIG    1        2.377   0.230   0.747  0.00  0.00    +0.300 C 
ATOM     23  C   LIG    1        2.485   1.574   0.030  0.00  0.00    +0.340 C 
ATOM     24  C   LIG    1        1.367  -2.004   0.160  0.00  0.00    +0.310 C 
ATOM     25  O   LIG    1       -0.959  -0.630  -0.214  0.00  0.00    -0.500 OA
ATOM     26  N   LIG    1        1.175   2.234   0.039  0.00  0.00    -0.280 N 
ATOM     27  N   LIG    1        0.883   3.476   0.048  0.00  0.00    -0.260 NA
ATOM     28  C   LIG    1       -0.418   3.652   0.055  0.00  0.00    +0.200 A 
ENDBRANCH  17  18
ENDBRANCH   2  17
TORSDOF 5
