REMARK  Name = ZINCwl0000000cuv.0
REMARK                            x       y       z     vdW  Elec       q    Type
REMARK                         _______ _______ _______ _____ _____    ______ ____
ROOT
ATOM      1  C   LIG    1       -3.636   0.433  -1.032  0.00  0.00    +0.510 C 
ATOM      2  N   LIG    1       -4.283   1.597  -1.240  0.00  0.00    -0.720 N 
ATOM      3  H   LIG    1       -4.077   2.133  -2.022  0.00  0.00    +0.400 HD
ATOM      4  O   LIG    1       -3.894  -0.237  -0.054  0.00  0.00    -0.510 OA
ENDROOT
BRANCH   1  12
ATOM      5  C   LIG    1       -3.962   0.426  -4.057  0.00  0.00    +0.090 C 
ATOM      6  C   LIG    1       -3.281  -0.663  -3.226  0.00  0.00    +0.160 C 
ATOM      7  O   LIG    1       -2.295  -1.330  -4.023  0.00  0.00    -0.360 OA
ATOM      8  C   LIG    1       -1.745  -2.483  -3.382  0.00  0.00    +0.290 C 
ATOM      9  C   LIG    1       -1.316  -2.133  -1.984  0.00  0.00    +0.490 C 
ATOM     10  N   LIG    1       -1.726  -1.018  -1.367  0.00  0.00    -0.580 N 
ATOM     11  O   LIG    1       -0.572  -2.887  -1.395  0.00  0.00    -0.520 OA
ATOM     12  C   LIG    1       -2.594  -0.036  -2.014  0.00  0.00    +0.210 C 
BRANCH  10  13
ATOM     13  C   LIG    1       -1.293  -0.775   0.011  0.00  0.00    +0.340 C 
BRANCH  13  14
ATOM     14  C   LIG    1        0.002  -0.004   0.002  0.00  0.00    -0.110 A 
ATOM     15  C   LIG    1       -0.017   1.378   0.010  0.00  0.00    +0.000 A 
ATOM     16  C   LIG    1        1.171   2.086   0.002  0.00  0.00    +0.000 A 
ATOM     17  C   LIG    1        2.377   1.411  -0.015  0.00  0.00    +0.010 A 
ATOM     18  C   LIG    1        2.396   0.029  -0.022  0.00  0.00    +0.000 A 
ATOM     19  C   LIG    1        1.208  -0.679  -0.013  0.00  0.00    +0.040 A 
ENDBRANCH  13  14
ENDBRANCH  10  13
ENDBRANCH   1  12
BRANCH   2  20
ATOM     20  C   LIG    1       -5.296   2.053  -0.286  0.00  0.00    +0.320 C 
BRANCH  20  21
ATOM     21  C   LIG    1       -5.863   3.372  -0.747  0.00  0.00    -0.100 A 
ATOM     22  C   LIG    1       -5.282   4.556  -0.334  0.00  0.00    +0.030 A 
ATOM     23  C   LIG    1       -5.799   5.765  -0.761  0.00  0.00    +0.040 A 
ATOM     24  C   LIG    1       -6.903   5.790  -1.592  0.00  0.00    -0.090 A 
ATOM     25  C   LIG    1       -7.488   4.605  -2.001  0.00  0.00    +0.000 A 
ATOM     26  C   LIG    1       -6.968   3.396  -1.578  0.00  0.00    +0.030 A 
BRANCH  24  27
ATOM     27  C   LIG    1       -7.470   7.108  -2.054  0.00  0.00    +0.260 C 
BRANCH  27  28
ATOM     28  N   LIG    1       -8.487   7.565  -1.098  0.00  0.00    -0.530 NA
ATOM     29  C   LIG    1       -9.652   6.670  -1.100  0.00  0.00    +0.210 C 
ATOM     30  C   LIG    1      -10.660   7.147  -0.051  0.00  0.00    +0.280 C 
ATOM     31  N   LIG    1      -11.076   8.521  -0.361  0.00  0.00    -0.510 N 
ATOM     32  C   LIG    1       -9.905   9.407  -0.331  0.00  0.00    +0.280 C 
ATOM     33  H   LIG    1      -11.493   8.547  -1.279  0.00  0.00    +0.430 HD
ATOM     34  H   LIG    1      -11.749   8.831   0.324  0.00  0.00    +0.430 HD
ATOM     35  C   LIG    1       -8.891   8.950  -1.382  0.00  0.00    +0.200 C 
ENDBRANCH  27  28
ENDBRANCH  24  27
ENDBRANCH  20  21
ENDBRANCH   2  20
TORSDOF 7
