REMARK  Name = ZINCkj000018RC6l.0
REMARK                            x       y       z     vdW  Elec       q    Type
REMARK                         _______ _______ _______ _____ _____    ______ ____
ROOT
ATOM      1  C   LIG    1       -1.331   2.074   0.020  0.00  0.00    +0.030 C 
ATOM      2  C   LIG    1       -1.078   3.587   0.027  0.00  0.00    +0.080 C 
ATOM      3  C   LIG    1       -2.392   4.322  -0.255  0.00  0.00    +0.060 C 
ATOM      4  C   LIG    1       -2.812   4.085  -1.710  0.00  0.00    +0.300 C 
ATOM      5  N   LIG    1       -2.768   2.649  -1.984  0.00  0.00    -0.450 N 
ATOM      6  C   LIG    1       -3.337   1.964  -2.994  0.00  0.00    +0.110 A 
ATOM      7  N   LIG    1       -3.028   0.704  -2.826  0.00  0.00    -0.270 NA
ATOM      8  N   LIG    1       -2.300   0.572  -1.770  0.00  0.00    -0.240 NA
ATOM      9  C   LIG    1       -2.134   1.679   1.260  0.00  0.00    +0.110 C 
ATOM     10  C   LIG    1       -2.114   1.734  -1.224  0.00  0.00    +0.220 A 
ENDROOT
BRANCH   6  11
ATOM     11  C   LIG    1       -4.172   2.540  -4.109  0.00  0.00    +0.300 C 
ATOM     12  C   LIG    1       -5.661   2.189  -3.903  0.00  0.00    +0.090 C 
ATOM     13  C   LIG    1       -6.209   1.921  -5.320  0.00  0.00    +0.090 C 
ATOM     14  C   LIG    1       -5.005   2.134  -6.263  0.00  0.00    +0.280 C 
ATOM     15  N   LIG    1       -3.812   1.910  -5.405  0.00  0.00    -0.510 N 
ATOM     16  H   LIG    1       -3.646   0.922  -5.283  0.00  0.00    +0.440 HD
ATOM     17  H   LIG    1       -3.000   2.359  -5.803  0.00  0.00    +0.440 HD
ENDBRANCH   6  11
BRANCH   1  18
ATOM     18  C   LIG    1       -0.016   1.338   0.009  0.00  0.00    +0.480 C 
ATOM     19  O   LIG    1        1.022   1.956   0.003  0.00  0.00    -0.490 OA
BRANCH  18  20
ATOM     20  O   LIG    1        0.002  -0.004   0.002  0.00  0.00    -0.330 OA
BRANCH  20  22
ATOM     21  C   LIG    1        1.125  -2.165  -0.020  0.00  0.00    +0.070 C 
ATOM     22  C   LIG    1        1.305  -0.646  -0.014  0.00  0.00    +0.200 C 
ENDBRANCH  20  22
ENDBRANCH  18  20
ENDBRANCH   1  18
TORSDOF 4
