REMARK  Name = ZINCpe00000gMV49.0
REMARK                            x       y       z     vdW  Elec       q    Type
REMARK                         _______ _______ _______ _____ _____    ______ ____
ROOT
ATOM      1  C   LIG    1       -2.436   2.720   6.871  0.00  0.00    +0.170 C 
ATOM      2  C   LIG    1       -1.648   3.778   7.648  0.00  0.00    +0.170 C 
ATOM      3  N   LIG    1       -2.432   5.020   7.707  0.00  0.00    -0.520 NA
ATOM      4  C   LIG    1       -2.734   5.510   6.355  0.00  0.00    +0.160 C 
ATOM      5  C   LIG    1       -3.512   4.435   5.590  0.00  0.00    +0.230 C 
ATOM      6  O   LIG    1       -2.748   3.226   5.570  0.00  0.00    -0.380 OA
ENDROOT
BRANCH   1   7
ATOM      7  C   LIG    1       -1.593   1.450   6.736  0.00  0.00    +0.350 C 
BRANCH   7  11
ATOM      8  C   LIG    1       -3.098  -2.137   3.577  0.00  0.00    +0.110 C 
ATOM      9  C   LIG    1       -3.051  -1.163   4.726  0.00  0.00    -0.240 A 
ATOM     10  C   LIG    1       -2.053  -0.289   4.988  0.00  0.00    +0.230 A 
ATOM     11  N   LIG    1       -2.390   0.400   6.098  0.00  0.00    -0.370 N 
ATOM     12  N   LIG    1       -3.637  -0.067   6.533  0.00  0.00    -0.290 NA
ATOM     13  C   LIG    1       -4.035  -1.000   5.707  0.00  0.00    +0.230 A 
ENDBRANCH   7  11
ENDBRANCH   1   7
BRANCH   3  14
ATOM     14  C   LIG    1       -1.734   6.045   8.495  0.00  0.00    +0.220 C 
BRANCH  14  15
ATOM     15  C   LIG    1       -2.662   7.207   8.741  0.00  0.00    +0.510 C 
ATOM     16  N   LIG    1       -2.235   8.273   9.447  0.00  0.00    -0.650 N 
ATOM     17  H   LIG    1       -1.356   8.262   9.858  0.00  0.00    +0.400 HD
ATOM     18  O   LIG    1       -3.793   7.183   8.303  0.00  0.00    -0.500 OA
BRANCH  16  19
ATOM     19  C   LIG    1       -3.064   9.401   9.589  0.00  0.00    -0.010 A 
ATOM     20  C   LIG    1       -3.496   9.933  10.761  0.00  0.00    +0.080 A 
ATOM     21  N   LIG    1       -4.270  11.008  10.462  0.00  0.00    -0.370 N 
ATOM     22  N   LIG    1       -4.310  11.135   9.068  0.00  0.00    -0.290 NA
ATOM     23  C   LIG    1       -4.944  11.881  11.427  0.00  0.00    +0.360 C 
ATOM     24  C   LIG    1       -3.175   9.423  12.142  0.00  0.00    +0.140 C 
ATOM     25  C   LIG    1       -3.585  10.180   8.546  0.00  0.00    +0.090 A 
ATOM     26  C   LIG    1       -3.354   9.951   7.074  0.00  0.00    +0.150 C 
ENDBRANCH  16  19
ENDBRANCH  14  15
ENDBRANCH   3  14
TORSDOF 5
