REMARK  Name = ZINCtV000002GTLD.0
REMARK                            x       y       z     vdW  Elec       q    Type
REMARK                         _______ _______ _______ _____ _____    ______ ____
ROOT
ATOM      1  C   LIG    1        0.003  -0.004   0.008  0.00  0.00    +0.040 A 
ATOM      2  C   LIG    1        1.210  -0.703  -0.009  0.00  0.00    -0.070 A 
ATOM      3  C   LIG    1        1.189  -2.092  -0.019  0.00  0.00    +0.380 A 
ATOM      4  N   LIG    1        0.043  -2.752  -0.011  0.00  0.00    -0.470 NA
ATOM      5  C   LIG    1       -1.127  -2.124   0.005  0.00  0.00    +0.210 A 
ATOM      6  C   LIG    1       -1.188  -0.736   0.021  0.00  0.00    -0.050 A 
ENDROOT
BRANCH   1  11
ATOM      7  C   LIG    1       -0.075   5.755   0.045  0.00  0.00    +0.090 C 
ATOM      8  C   LIG    1       -0.055   4.248   0.035  0.00  0.00    -0.070 A 
ATOM      9  C   LIG    1        1.154   3.575   0.019  0.00  0.00    +0.010 A 
ATOM     10  C   LIG    1        1.178   2.195   0.010  0.00  0.00    +0.030 A 
ATOM     11  C   LIG    1       -0.017   1.480   0.018  0.00  0.00    -0.060 A 
ATOM     12  C   LIG    1       -1.232   2.163   0.029  0.00  0.00    +0.040 A 
ATOM     13  C   LIG    1       -1.245   3.543   0.043  0.00  0.00    +0.010 A 
ENDBRANCH   1  11
BRANCH   5  14
ATOM     14  C   LIG    1       -2.383  -2.913   0.012  0.00  0.00    -0.050 A 
ATOM     15  C   LIG    1       -3.616  -2.265   0.035  0.00  0.00    +0.020 A 
ATOM     16  C   LIG    1       -4.782  -3.004   0.036  0.00  0.00    +0.000 A 
ATOM     17  C   LIG    1       -4.727  -4.386   0.026  0.00  0.00    +0.010 A 
ATOM     18  C   LIG    1       -3.506  -5.035   0.009  0.00  0.00    +0.000 A 
ATOM     19  C   LIG    1       -2.334  -4.306   0.002  0.00  0.00    +0.070 A 
ENDBRANCH   5  14
BRANCH   3  20
ATOM     20  N   LIG    1        2.390  -2.798  -0.035  0.00  0.00    -0.660 N 
ATOM     21  H   LIG    1        3.232  -2.322  -0.115  0.00  0.00    +0.420 HD
ATOM     22  C   LIG    1        2.382  -4.142   0.059  0.00  0.00    +0.590 C 
ATOM     23  O   LIG    1        1.327  -4.746   0.066  0.00  0.00    -0.470 OA
BRANCH  22  24
ATOM     24  C   LIG    1        3.654  -4.881   0.155  0.00  0.00    -0.250 A 
ATOM     25  C   LIG    1        3.817  -6.232   0.261  0.00  0.00    +0.090 A 
ATOM     26  O   LIG    1        5.126  -6.495   0.319  0.00  0.00    -0.170 OA
ATOM     27  C   LIG    1        5.845  -5.364   0.264  0.00  0.00    -0.010 A 
ATOM     28  C   LIG    1        7.349  -5.281   0.310  0.00  0.00    +0.170 C 
ATOM     29  C   LIG    1        2.709  -7.253   0.303  0.00  0.00    +0.190 C 
ATOM     30  C   LIG    1        5.011  -4.317   0.162  0.00  0.00    -0.030 A 
ENDBRANCH  22  24
ENDBRANCH   3  20
TORSDOF 4
