REMARK  Name = ZINCrg000000r56N.0
REMARK                            x       y       z     vdW  Elec       q    Type
REMARK                         _______ _______ _______ _____ _____    ______ ____
ROOT
ATOM      1  N   LIG    1       -2.185   1.504   1.902  0.00  0.00    -0.950 N 
ATOM      2  C   LIG    1       -3.257   2.067   1.066  0.00  0.00    +0.300 C 
ATOM      3  C   LIG    1       -4.258   2.802   1.930  0.00  0.00    +0.300 C 
ATOM      4  N   LIG    1       -4.872   1.903   2.912  0.00  0.00    -0.590 N 
ATOM      5  C   LIG    1       -4.074   1.297   3.978  0.00  0.00    +0.320 C 
ATOM      6  C   LIG    1       -3.361   0.072   3.439  0.00  0.00    -0.110 A 
ATOM      7  C   LIG    1       -3.625  -1.178   3.948  0.00  0.00    +0.020 A 
ATOM      8  C   LIG    1       -2.877  -2.264   3.526  0.00  0.00    +0.040 A 
ATOM      9  C   LIG    1       -1.871  -2.092   2.594  0.00  0.00    +0.030 A 
ATOM     10  C   LIG    1       -1.621  -0.842   2.060  0.00  0.00    +0.000 A 
ATOM     11  C   LIG    1       -6.189   1.630   2.831  0.00  0.00    +0.590 C 
ATOM     12  O   LIG    1       -6.870   2.165   1.976  0.00  0.00    -0.510 OA
ATOM     13  C   LIG    1       -2.381   0.246   2.465  0.00  0.00    +0.170 A 
ENDROOT
BRANCH  11  14
ATOM     14  C   LIG    1       -6.805   0.685   3.777  0.00  0.00    -0.220 A 
ATOM     15  C   LIG    1       -8.135   0.401   3.914  0.00  0.00    +0.150 A 
ATOM     16  O   LIG    1       -8.273  -0.509   4.883  0.00  0.00    -0.110 OA
ATOM     17  C   LIG    1       -7.079  -0.844   5.400  0.00  0.00    -0.560 A 
ATOM     18 CL   LIG    1       -9.425   1.104   2.989  0.00  0.00    +0.090 Cl
ATOM     19  C   LIG    1       -6.117  -0.156   4.768  0.00  0.00    +0.120 A 
BRANCH  17  20
ATOM     20  S   LIG    1       -6.819  -2.010   6.695  0.00  0.00    +2.730 S 
ATOM     21  O   LIG    1       -5.481  -2.469   6.558  0.00  0.00    -0.930 OA
ATOM     22  O   LIG    1       -7.943  -2.878   6.686  0.00  0.00    -0.930 OA
BRANCH  20  23
ATOM     23  N   LIG    1       -6.883  -1.177   8.125  0.00  0.00    -1.240 NA
ATOM     24  H   LIG    1       -6.761  -1.645   8.965  0.00  0.00    +0.430 HD
ATOM     25  H   LIG    1       -7.042  -0.220   8.121  0.00  0.00    +0.420 HD
ENDBRANCH  20  23
ENDBRANCH  17  20
ENDBRANCH  11  14
BRANCH   1  27
ATOM     26  C   LIG    1        0.319   1.830   0.827  0.00  0.00    -0.280 C 
ATOM     27  S   LIG    1       -0.785   2.347   2.171  0.00  0.00    +2.600 S 
ATOM     28  O   LIG    1       -1.160   3.708   2.012  0.00  0.00    -0.940 OA
ATOM     29  O   LIG    1       -0.315   1.857   3.419  0.00  0.00    -0.940 OA
ENDBRANCH   1  27
TORSDOF 4
