REMARK  Name = ZINCpe000000Uhx0.0
REMARK                            x       y       z     vdW  Elec       q    Type
REMARK                         _______ _______ _______ _____ _____    ______ ____
ROOT
ATOM      1  C   LIG    1       -1.754   3.402   2.297  0.00  0.00    +0.560 C 
ATOM      2  N   LIG    1       -1.133   2.922   1.201  0.00  0.00    -0.600 N 
ATOM      3  C   LIG    1       -1.313   3.563  -0.110  0.00  0.00    +0.280 C 
ATOM      4  C   LIG    1        0.070   3.831  -0.715  0.00  0.00    +0.170 C 
ATOM      5  N   LIG    1        0.842   2.582  -0.734  0.00  0.00    -0.690 NA
ATOM      6  H   LIG    1        1.711   2.702  -1.234  0.00  0.00    +0.350 HD
ATOM      7  C   LIG    1        1.082   2.081   0.626  0.00  0.00    +0.180 C 
ATOM      8  C   LIG    1       -0.259   1.742   1.286  0.00  0.00    +0.320 C 
ATOM      9  O   LIG    1       -1.659   2.813   3.356  0.00  0.00    -0.510 OA
ENDROOT
BRANCH   1  16
ATOM     10  N   LIG    1       -4.705   8.175   2.254  0.00  0.00    -0.540 N 
ATOM     11  C   LIG    1       -4.489   8.557   3.526  0.00  0.00    +0.680 A 
ATOM     12  N   LIG    1       -3.711   7.650   4.146  0.00  0.00    -0.640 N 
ATOM     13  H   LIG    1       -3.411   7.694   5.068  0.00  0.00    +0.440 HD
ATOM     14  C   LIG    1       -3.410   6.638   3.237  0.00  0.00    +0.080 A 
ATOM     15  C   LIG    1       -2.666   5.477   3.325  0.00  0.00    +0.100 A 
ATOM     16  C   LIG    1       -2.548   4.643   2.210  0.00  0.00    -0.120 A 
ATOM     17  C   LIG    1       -3.179   4.988   1.011  0.00  0.00    +0.070 A 
ATOM     18  C   LIG    1       -3.925   6.143   0.929  0.00  0.00    +0.030 A 
ATOM     19  O   LIG    1       -4.930   9.569   4.038  0.00  0.00    -0.550 OA
ATOM     20  C   LIG    1       -4.044   6.974   2.035  0.00  0.00    +0.120 A 
BRANCH  10  22
ATOM     21  C   LIG    1       -6.958   8.435   1.338  0.00  0.00    +0.030 C 
ATOM     22  C   LIG    1       -5.504   8.905   1.265  0.00  0.00    +0.310 C 
ENDBRANCH  10  22
ENDBRANCH   1  16
BRANCH   8  23
ATOM     23  C   LIG    1       -0.035   1.380   2.731  0.00  0.00    -0.210 A 
ATOM     24  C   LIG    1       -0.480   0.262   3.350  0.00  0.00    +0.240 A 
ATOM     25  N   LIG    1       -0.068   0.312   4.635  0.00  0.00    -0.480 N 
ATOM     26  H   LIG    1       -0.240  -0.358   5.315  0.00  0.00    +0.440 HD
ATOM     27  N   LIG    1        0.646   1.504   4.813  0.00  0.00    -0.290 NA
ATOM     28  C   LIG    1        0.665   2.143   3.672  0.00  0.00    +0.250 A 
ENDBRANCH   8  23
TORSDOF 3
