REMARK  Name = ZINCrD00000hQ5vZ.0
REMARK                            x       y       z     vdW  Elec       q    Type
REMARK                         _______ _______ _______ _____ _____    ______ ____
ROOT
ATOM      1  N   LIG    1       -0.562   5.275  -3.053  0.00  0.00    -0.730 N 
ATOM      2  H   LIG    1        0.363   4.983  -3.032  0.00  0.00    +0.390 HD
ATOM      3  C   LIG    1       -0.952   6.330  -2.310  0.00  0.00    +0.710 C 
ATOM      4  N   LIG    1       -0.058   6.979  -1.538  0.00  0.00    -0.680 N 
ATOM      5  H   LIG    1        0.848   6.641  -1.457  0.00  0.00    +0.410 HD
ATOM      6  O   LIG    1       -2.111   6.696  -2.337  0.00  0.00    -0.560 OA
ENDROOT
BRANCH   4   7
ATOM      7  C   LIG    1       -0.437   8.141  -0.853  0.00  0.00    +0.170 A 
ATOM      8  C   LIG    1        0.123   8.427   0.389  0.00  0.00    +0.020 A 
ATOM      9  C   LIG    1       -0.241   9.567   1.073  0.00  0.00    +0.070 A 
ATOM     10  C   LIG    1       -1.171  10.437   0.523  0.00  0.00    -0.010 A 
ATOM     11  O   LIG    1       -1.719  11.603   0.933  0.00  0.00    -0.210 OA
ATOM     12  C   LIG    1       -2.577  12.017  -0.012  0.00  0.00    +0.250 A 
ATOM     13  N   LIG    1       -2.600  11.173  -1.000  0.00  0.00    -0.480 NA
ATOM     14  C   LIG    1       -3.396  13.280   0.061  0.00  0.00    +0.220 C 
ATOM     15  C   LIG    1       -1.739  10.156  -0.729  0.00  0.00    +0.050 A 
ATOM     16  C   LIG    1       -1.361   9.002  -1.417  0.00  0.00    +0.080 A 
ENDBRANCH   4   7
BRANCH   1  22
ATOM     17  C   LIG    1       -1.063   3.131  -4.121  0.00  0.00    +0.240 C 
ATOM     18  O   LIG    1       -1.983   2.463  -4.987  0.00  0.00    -0.360 OA
ATOM     19  C   LIG    1       -2.101   3.055  -6.282  0.00  0.00    +0.210 C 
ATOM     20  C   LIG    1       -2.613   4.491  -6.140  0.00  0.00    +0.010 C 
ATOM     21  C   LIG    1       -1.654   5.281  -5.244  0.00  0.00    +0.010 C 
ATOM     22  C   LIG    1       -1.534   4.570  -3.892  0.00  0.00    +0.240 C 
BRANCH  17  25
ATOM     23  N   LIG    1       -0.258   1.556  -0.932  0.00  0.00    -0.370 N 
ATOM     24  C   LIG    1        0.098   2.269  -2.021  0.00  0.00    +0.230 A 
ATOM     25  C   LIG    1       -0.999   2.408  -2.801  0.00  0.00    -0.230 A 
ATOM     26  C   LIG    1       -2.065   1.765  -2.162  0.00  0.00    +0.260 A 
ATOM     27  N   LIG    1       -1.622   1.255  -1.042  0.00  0.00    -0.290 NA
BRANCH  23  29
ATOM     28  C   LIG    1        0.030   1.662   1.494  0.00  0.00    +0.040 C 
ATOM     29  C   LIG    1        0.624   1.171   0.172  0.00  0.00    +0.320 C 
ENDBRANCH  23  29
ENDBRANCH  17  25
ENDBRANCH   1  22
TORSDOF 4
