REMARK  Name = ZINCrH000004nxrW.0
REMARK                            x       y       z     vdW  Elec       q    Type
REMARK                         _______ _______ _______ _____ _____    ______ ____
ROOT
ATOM      1  C   LIG    1        3.801  -2.494   3.128  0.00  0.00    +0.270 A 
ATOM      2  N   LIG    1        3.965  -2.775   1.856  0.00  0.00    -0.240 NA
ATOM      3  N   LIG    1        5.204  -3.021   1.617  0.00  0.00    -0.280 NA
ATOM      4  C   LIG    1        5.907  -2.913   2.722  0.00  0.00    +0.100 A 
ATOM      5  N   LIG    1        5.041  -2.569   3.721  0.00  0.00    -0.310 N 
ENDROOT
BRANCH   1  11
ATOM      6  C   LIG    1        1.337  -2.112   3.059  0.00  0.00    +0.170 A 
ATOM      7  C   LIG    1        0.148  -1.793   3.694  0.00  0.00    -0.080 A 
ATOM      8  C   LIG    1        0.137  -1.519   5.049  0.00  0.00    +0.070 A 
ATOM      9  C   LIG    1        1.311  -1.561   5.780  0.00  0.00    -0.030 A 
ATOM     10  C   LIG    1        2.504  -1.877   5.162  0.00  0.00    +0.100 A 
ATOM     11  C   LIG    1        2.527  -2.156   3.796  0.00  0.00    -0.060 A 
BRANCH   6  13
ATOM     12  C   LIG    1        0.096  -2.318   1.043  0.00  0.00    +0.240 C 
ATOM     13  O   LIG    1        1.348  -2.381   1.728  0.00  0.00    -0.280 OA
ENDBRANCH   6  13
ENDBRANCH   1  11
BRANCH   5  14
ATOM     14  N   LIG    1        5.342  -2.347   5.035  0.00  0.00    -0.580 N 
ATOM     15  H   LIG    1        6.255  -1.929   5.131  0.00  0.00    +0.380 HD
ATOM     16  H   LIG    1        5.277  -3.201   5.569  0.00  0.00    +0.370 HD
ENDBRANCH   5  14
BRANCH   4  17
ATOM     17  S   LIG    1        7.644  -3.159   2.884  0.00  0.00    +0.080 S 
BRANCH  17  18
ATOM     18  C   LIG    1        8.064  -3.569   1.171  0.00  0.00    +0.120 C 
BRANCH  18  19
ATOM     19  C   LIG    1        9.545  -3.827   1.065  0.00  0.00    +0.550 C 
ATOM     20  N   LIG    1       10.089  -4.152  -0.124  0.00  0.00    -0.680 N 
ATOM     21  H   LIG    1        9.519  -4.292  -0.896  0.00  0.00    +0.420 HD
ATOM     22  O   LIG    1       10.248  -3.742   2.050  0.00  0.00    -0.500 OA
BRANCH  20  23
ATOM     23  C   LIG    1       11.477  -4.289  -0.245  0.00  0.00    +0.150 A 
ATOM     24  C   LIG    1       12.261  -3.187  -0.565  0.00  0.00    -0.020 A 
ATOM     25  C   LIG    1       13.631  -3.325  -0.678  0.00  0.00    +0.050 A 
ATOM     26  C   LIG    1       14.222  -4.560  -0.484  0.00  0.00    +0.070 A 
ATOM     27  C   LIG    1       13.445  -5.660  -0.172  0.00  0.00    +0.050 A 
ATOM     28 CL   LIG    1       11.519  -1.638  -0.815  0.00  0.00    -0.040 Cl
ATOM     29  C   LIG    1       12.074  -5.529  -0.051  0.00  0.00    -0.020 A 
ATOM     30 CL   LIG    1       11.100  -6.911   0.341  0.00  0.00    -0.040 Cl
ENDBRANCH  20  23
ENDBRANCH  18  19
ENDBRANCH  17  18
ENDBRANCH   4  17
TORSDOF 7
