REMARK  Name = ZINCrH000004v7uy.0
REMARK                            x       y       z     vdW  Elec       q    Type
REMARK                         _______ _______ _______ _____ _____    ______ ____
ROOT
ATOM      1  O   LIG    1        2.288   1.239   1.098  0.00  0.00    -0.480 OA
ATOM      2  C   LIG    1        2.178   0.775   2.218  0.00  0.00    +0.570 C 
ATOM      3  N   LIG    1        3.163   0.955   3.121  0.00  0.00    -0.660 N 
ATOM      4  H   LIG    1        3.047   0.645   4.032  0.00  0.00    +0.410 HD
ENDROOT
BRANCH   3   5
ATOM      5  C   LIG    1        4.352   1.590   2.742  0.00  0.00    +0.120 A 
ATOM      6  C   LIG    1        4.784   1.528   1.424  0.00  0.00    +0.070 A 
ATOM      7  C   LIG    1        5.954   2.159   1.050  0.00  0.00    -0.030 A 
ATOM      8  C   LIG    1        6.704   2.845   1.994  0.00  0.00    +0.090 A 
ATOM      9  C   LIG    1        6.277   2.902   3.313  0.00  0.00    +0.030 A 
ATOM     10  C   LIG    1        5.104   2.276   3.687  0.00  0.00    +0.030 A 
BRANCH   8  11
ATOM     11  O   LIG    1        7.860   3.461   1.627  0.00  0.00    -0.320 OA
BRANCH  11  12
ATOM     12  C   LIG    1        8.239   3.361   0.253  0.00  0.00    +0.590 C 
ATOM     13  F   LIG    1        7.241   3.925  -0.549  0.00  0.00    -0.200 F 
ATOM     14  F   LIG    1        8.406   2.015  -0.089  0.00  0.00    -0.200 F 
ENDBRANCH  11  12
ENDBRANCH   8  11
ENDBRANCH   3   5
BRANCH   2  15
ATOM     15  C   LIG    1        0.976   0.022   2.585  0.00  0.00    -0.170 A 
ATOM     16  C   LIG    1       -0.047  -0.301   1.738  0.00  0.00    -0.610 A 
ATOM     17  C   LIG    1       -1.049  -1.019   2.345  0.00  0.00    +0.070 A 
ATOM     18  C   LIG    1       -0.859  -1.272   3.646  0.00  0.00    -0.050 A 
ATOM     19  S   LIG    1        0.617  -0.609   4.186  0.00  0.00    +0.270 S 
BRANCH  16  20
ATOM     20  S   LIG    1       -0.074   0.152   0.035  0.00  0.00    +2.710 S 
ATOM     21  O   LIG    1        0.134   1.557  -0.009  0.00  0.00    -0.920 OA
ATOM     22  O   LIG    1        0.760  -0.779  -0.641  0.00  0.00    -0.940 OA
BRANCH  20  23
ATOM     23  N   LIG    1       -1.613  -0.111  -0.517  0.00  0.00    -1.000 NA
ATOM     24  C   LIG    1       -1.959  -1.365  -1.200  0.00  0.00    +0.290 C 
ATOM     25  C   LIG    1       -3.173  -1.987  -0.494  0.00  0.00    +0.010 C 
ATOM     26  C   LIG    1       -4.309  -0.963  -0.449  0.00  0.00    +0.020 C 
ATOM     27  C   LIG    1       -3.862   0.262   0.352  0.00  0.00    +0.010 C 
ATOM     28  C   LIG    1       -2.657   0.907  -0.339  0.00  0.00    +0.290 C 
ENDBRANCH  20  23
ENDBRANCH  16  20
ENDBRANCH   2  15
TORSDOF 6
