REMARK  Name = ZINCpe00000VVGDP.0
REMARK                            x       y       z     vdW  Elec       q    Type
REMARK                         _______ _______ _______ _____ _____    ______ ____
ROOT
ATOM      1  N   LIG    1       -0.749   3.044   1.275  0.00  0.00    -0.730 N 
ATOM      2  H   LIG    1       -0.063   3.536   1.753  0.00  0.00    +0.400 HD
ATOM      3  C   LIG    1       -1.720   3.708   0.618  0.00  0.00    +0.520 C 
ATOM      4  O   LIG    1       -2.578   3.094   0.021  0.00  0.00    -0.510 OA
ENDROOT
BRANCH   1   6
ATOM      5  C   LIG    1       -0.013   1.086   0.008  0.00  0.00    +0.040 C 
ATOM      6  C   LIG    1       -0.729   1.579   1.267  0.00  0.00    +0.290 C 
BRANCH   6   7
ATOM      7  C   LIG    1        0.000   1.080   2.488  0.00  0.00    -0.090 A 
ATOM      8  C   LIG    1        1.140   1.728   2.924  0.00  0.00    +0.020 A 
ATOM      9  C   LIG    1        1.812   1.272   4.042  0.00  0.00    +0.030 A 
ATOM     10  C   LIG    1        1.344   0.164   4.731  0.00  0.00    +0.050 A 
ATOM     11  O   LIG    1        2.020  -0.278   5.826  0.00  0.00    -0.310 OA
ATOM     12  C   LIG    1        1.315  -1.161   6.705  0.00  0.00    +0.220 C 
ATOM     13  C   LIG    1        0.617  -2.230   5.854  0.00  0.00    +0.220 C 
ATOM     14  O   LIG    1       -0.286  -1.572   4.959  0.00  0.00    -0.310 OA
ATOM     15  C   LIG    1        0.195  -0.486   4.294  0.00  0.00    +0.060 A 
ATOM     16  C   LIG    1       -0.476  -0.022   3.173  0.00  0.00    +0.040 A 
ENDBRANCH   6   7
ENDBRANCH   1   6
BRANCH   3  17
ATOM     17  C   LIG    1       -1.741   5.215   0.626  0.00  0.00    +0.220 C 
BRANCH  17  18
ATOM     18  N   LIG    1       -2.889   5.694  -0.154  0.00  0.00    -0.510 NA
ATOM     19  C   LIG    1       -2.738   5.354  -1.576  0.00  0.00    +0.210 C 
BRANCH  18  20
ATOM     20  C   LIG    1       -3.082   7.139   0.024  0.00  0.00    +0.220 C 
BRANCH  20  21
ATOM     21  C   LIG    1       -4.398   7.550  -0.585  0.00  0.00    +0.520 C 
ATOM     22  N   LIG    1       -4.788   8.839  -0.540  0.00  0.00    -0.710 N 
ATOM     23  H   LIG    1       -4.222   9.502  -0.116  0.00  0.00    +0.400 HD
ATOM     24  O   LIG    1       -5.106   6.720  -1.115  0.00  0.00    -0.510 OA
BRANCH  22  25
ATOM     25  C   LIG    1       -6.067   9.238  -1.132  0.00  0.00    +0.220 C 
ATOM     26  C   LIG    1       -6.090  10.519  -1.969  0.00  0.00    +0.010 C 
ATOM     27  C   LIG    1       -6.737  10.499  -0.583  0.00  0.00    +0.010 C 
ENDBRANCH  22  25
ENDBRANCH  20  21
ENDBRANCH  18  20
ENDBRANCH  17  18
ENDBRANCH   3  17
TORSDOF 7
