REMARK  Name = ZINCrg000000r0fp.1
REMARK                            x       y       z     vdW  Elec       q    Type
REMARK                         _______ _______ _______ _____ _____    ______ ____
ROOT
ATOM      1  N   LIG    1        5.478  -1.559  -1.503  0.00  0.00    -0.760 N 
ATOM      2  H   LIG    1        5.803  -1.982  -0.693  0.00  0.00    +0.390 HD
ATOM      3  C   LIG    1        6.142  -1.724  -2.664  0.00  0.00    +0.510 C 
ATOM      4  O   LIG    1        5.735  -1.194  -3.676  0.00  0.00    -0.490 OA
ENDROOT
BRANCH   1   5
ATOM      5  C   LIG    1        4.263  -0.740  -1.464  0.00  0.00    +0.310 C 
BRANCH   5   6
ATOM      6  C   LIG    1        3.710  -0.717  -0.038  0.00  0.00    +0.250 C 
BRANCH   6  12
ATOM      7  C   LIG    1        2.380   1.409  -0.013  0.00  0.00    +0.170 A 
ATOM      8  C   LIG    1        1.170   2.086   0.002  0.00  0.00    -0.050 A 
ATOM      9  C   LIG    1       -0.017   1.378   0.010  0.00  0.00    +0.090 A 
ATOM     10  C   LIG    1        0.002  -0.004   0.002  0.00  0.00    +0.000 A 
ATOM     11  C   LIG    1        1.208  -0.681  -0.014  0.00  0.00    +0.030 A 
ATOM     12  C   LIG    1        2.396   0.022  -0.021  0.00  0.00    -0.180 A 
BRANCH   7  14
ATOM     13  C   LIG    1        3.456   3.530  -0.011  0.00  0.00    +0.260 C 
ATOM     14  O   LIG    1        3.548   2.104  -0.020  0.00  0.00    -0.310 OA
ENDBRANCH   7  14
ENDBRANCH   6  12
BRANCH   6  15
ATOM     15  N   LIG    1        3.503  -2.094   0.430  0.00  0.00    -0.640 N 
ATOM     16  H   LIG    1        4.382  -2.589   0.418  0.00  0.00    +0.430 HD
ATOM     17  H   LIG    1        2.846  -2.561  -0.178  0.00  0.00    +0.440 HD
ATOM     18  H   LIG    1        3.138  -2.079   1.370  0.00  0.00    +0.440 HD
ENDBRANCH   6  15
ENDBRANCH   5   6
ENDBRANCH   1   5
BRANCH   3  19
ATOM     19  C   LIG    1        7.391  -2.566  -2.704  0.00  0.00    +0.140 C 
BRANCH  19  20
ATOM     20  C   LIG    1        7.937  -2.589  -4.109  0.00  0.00    -0.270 A 
ATOM     21  C   LIG    1        8.907  -1.713  -4.482  0.00  0.00    +0.230 A 
ATOM     22  N   LIG    1        9.383  -1.754  -5.755  0.00  0.00    -0.280 N 
ATOM     23  N   LIG    1       10.358  -0.999  -6.418  0.00  0.00    -0.480 NA
ATOM     24  C   LIG    1       10.454  -1.443  -7.685  0.00  0.00    +0.450 A 
ATOM     25  C   LIG    1        9.545  -2.487  -7.854  0.00  0.00    -0.240 A 
ATOM     26  O   LIG    1       11.207  -1.007  -8.540  0.00  0.00    -0.630 OA
ATOM     27  C   LIG    1        8.882  -2.672  -6.643  0.00  0.00    +0.250 A 
ATOM     28  N   LIG    1        7.927  -3.530  -6.266  0.00  0.00    -0.500 NA
ATOM     29  C   LIG    1        9.448  -0.709  -3.497  0.00  0.00    +0.130 C 
ATOM     30  C   LIG    1        7.453  -3.515  -5.039  0.00  0.00    +0.200 A 
ATOM     31  C   LIG    1        6.381  -4.495  -4.636  0.00  0.00    +0.120 C 
ENDBRANCH  19  20
ENDBRANCH   3  19
TORSDOF 7
