REMARK  Name = ZINCkj000005hqkX.0
REMARK                            x       y       z     vdW  Elec       q    Type
REMARK                         _______ _______ _______ _____ _____    ______ ____
ROOT
ATOM      1  C   LIG    1       -2.890   0.497  -0.582  0.00  0.00    +0.280 C 
ENDROOT
BRANCH   1   9
ATOM      2  C   LIG    1        1.041   3.995   0.272  0.00  0.00    +0.320 C 
ATOM      3  N   LIG    1       -0.216   3.832  -0.477  0.00  0.00    -0.370 N 
ATOM      4  C   LIG    1       -1.346   3.757   0.430  0.00  0.00    +0.270 C 
ATOM      5  C   LIG    1       -1.889   2.348   0.658  0.00  0.00    +0.190 C 
ATOM      6  C   LIG    1       -0.789   1.483   1.314  0.00  0.00    -0.000 C 
ATOM      7  C   LIG    1       -0.005   0.891   0.124  0.00  0.00    -0.000 C 
ATOM      8  C   LIG    1       -0.713   1.461  -1.126  0.00  0.00    +0.180 C 
ATOM      9  N   LIG    1       -2.104   1.731  -0.677  0.00  0.00    -0.490 NA
ATOM     10  C   LIG    1       -0.079   2.802  -1.489  0.00  0.00    +0.260 C 
ATOM     11  H   LIG    1       -0.330   4.726  -0.997  0.00  0.00    +0.430 HD
ENDBRANCH   1   9
BRANCH   1  12
ATOM     12  C   LIG    1       -3.067  -0.093  -1.957  0.00  0.00    +0.180 A 
ATOM     13  C   LIG    1       -2.518  -1.303  -2.256  0.00  0.00    -0.140 A 
ATOM     14  C   LIG    1       -2.703  -1.827  -3.552  0.00  0.00    +0.520 A 
ATOM     15  N   LIG    1       -3.417  -1.107  -4.444  0.00  0.00    -0.620 N 
ATOM     16  H   LIG    1       -3.557  -1.447  -5.341  0.00  0.00    +0.420 HD
ATOM     17  C   LIG    1       -3.934   0.084  -4.086  0.00  0.00    +0.440 A 
ATOM     18  O   LIG    1       -2.228  -2.907  -3.861  0.00  0.00    -0.520 OA
ATOM     19  N   LIG    1       -3.767   0.567  -2.883  0.00  0.00    -0.530 NA
BRANCH  17  20
ATOM     20  C   LIG    1       -4.729   0.875  -5.093  0.00  0.00    -0.020 C 
ATOM     21  C   LIG    1       -4.459   2.379  -5.182  0.00  0.00    +0.070 C 
ATOM     22  C   LIG    1       -5.759   1.870  -4.556  0.00  0.00    +0.090 C 
ENDBRANCH  17  20
ENDBRANCH   1  12
TORSDOF 3
