REMARK  Name = ZINCkj000005hqkX.1
REMARK                            x       y       z     vdW  Elec       q    Type
REMARK                         _______ _______ _______ _____ _____    ______ ____
ROOT
ATOM      1  C   LIG    1        1.188   3.581   0.009  0.00  0.00    +0.270 C 
ENDROOT
BRANCH   1   9
ATOM      2  C   LIG    1        4.239   6.006   4.064  0.00  0.00    +0.310 C 
ATOM      3  N   LIG    1        3.814   5.575   2.725  0.00  0.00    -0.390 N 
ATOM      4  C   LIG    1        3.775   4.107   2.678  0.00  0.00    +0.290 C 
ATOM      5  C   LIG    1        3.253   3.663   1.301  0.00  0.00    +0.180 C 
ATOM      6  C   LIG    1        4.008   4.484   0.228  0.00  0.00    +0.000 C 
ATOM      7  C   LIG    1        3.182   5.779   0.075  0.00  0.00    +0.000 C 
ATOM      8  C   LIG    1        2.009   5.616   1.070  0.00  0.00    +0.170 C 
ATOM      9  N   LIG    1        1.847   4.141   1.196  0.00  0.00    -0.480 NA
ATOM     10  C   LIG    1        2.469   6.134   2.443  0.00  0.00    +0.280 C 
ATOM     11  H   LIG    1        4.473   5.914   2.040  0.00  0.00    +0.420 HD
ENDBRANCH   1   9
BRANCH   1  12
ATOM     12  C   LIG    1       -0.226   4.097  -0.070  0.00  0.00    +0.180 A 
ATOM     13  C   LIG    1       -0.604   4.893  -1.109  0.00  0.00    -0.140 A 
ATOM     14  C   LIG    1       -1.934   5.359  -1.153  0.00  0.00    +0.520 A 
ATOM     15  N   LIG    1       -2.779   4.996  -0.164  0.00  0.00    -0.620 N 
ATOM     16  H   LIG    1       -3.699   5.304  -0.173  0.00  0.00    +0.420 HD
ATOM     17  C   LIG    1       -2.342   4.205   0.836  0.00  0.00    +0.440 A 
ATOM     18  O   LIG    1       -2.314   6.074  -2.065  0.00  0.00    -0.530 OA
ATOM     19  N   LIG    1       -1.110   3.775   0.877  0.00  0.00    -0.530 NA
BRANCH  17  20
ATOM     20  C   LIG    1       -3.298   3.809   1.932  0.00  0.00    -0.020 C 
ATOM     21  C   LIG    1       -2.784   3.866   3.372  0.00  0.00    +0.080 C 
ATOM     22  C   LIG    1       -3.005   2.514   2.691  0.00  0.00    +0.090 C 
ENDBRANCH  17  20
ENDBRANCH   1  12
TORSDOF 3
