REMARK  Name = ZINCqH0000050cPf.0
REMARK                            x       y       z     vdW  Elec       q    Type
REMARK                         _______ _______ _______ _____ _____    ______ ____
ROOT
ATOM      1  C   LIG    1        4.869   1.438  -0.253  0.00  0.00    +0.270 C 
ENDROOT
BRANCH   1   2
ATOM      2  C   LIG    1        3.558   2.170  -0.122  0.00  0.00    +0.520 C 
ATOM      3  N   LIG    1        2.407   1.477  -0.013  0.00  0.00    -0.670 N 
ATOM      4  H   LIG    1        2.428   0.509   0.047  0.00  0.00    +0.420 HD
ATOM      5  O   LIG    1        3.538   3.383  -0.116  0.00  0.00    -0.480 OA
BRANCH   3   6
ATOM      6  C   LIG    1        1.187   2.151   0.013  0.00  0.00    +0.210 A 
ATOM      7  C   LIG    1        1.089   3.391   0.625  0.00  0.00    +0.040 A 
ATOM      8  C   LIG    1       -0.122   4.058   0.650  0.00  0.00    +0.010 A 
ATOM      9  C   LIG    1       -1.245   3.494   0.065  0.00  0.00    +0.030 A 
ATOM     10  C   LIG    1       -1.164   2.265  -0.554  0.00  0.00    +0.110 A 
ATOM     11 CL   LIG    1       -0.236   5.611   1.418  0.00  0.00    -0.050 Cl
ATOM     12  C   LIG    1        0.051   1.577  -0.581  0.00  0.00    -0.050 A 
BRANCH  12  13
ATOM     13  C   LIG    1        0.140   0.297  -1.216  0.00  0.00    +0.250 C 
ATOM     14  N   LIG    1        0.211  -0.719  -1.720  0.00  0.00    -0.400 NA
ENDBRANCH  12  13
ENDBRANCH   3   6
ENDBRANCH   1   2
BRANCH   1  15
ATOM     15  O   LIG    1        5.952   2.400  -0.354  0.00  0.00    -0.330 OA
BRANCH  15  16
ATOM     16  C   LIG    1        7.194   1.908  -0.477  0.00  0.00    +0.470 C 
ATOM     17  O   LIG    1        7.371   0.713  -0.499  0.00  0.00    -0.480 OA
BRANCH  16  18
ATOM     18  C   LIG    1        8.369   2.846  -0.588  0.00  0.00    +0.290 C 
BRANCH  18  19
ATOM     19  O   LIG    1        9.574   2.088  -0.708  0.00  0.00    -0.290 OA
BRANCH  19  27
ATOM     20  C   LIG    1       11.969   0.608  -0.935  0.00  0.00    +0.110 C 
ATOM     21  C   LIG    1       11.942   2.114  -0.932  0.00  0.00    -0.090 A 
ATOM     22  C   LIG    1       13.120   2.826  -1.049  0.00  0.00    +0.070 A 
ATOM     23  C   LIG    1       13.097   4.210  -1.041  0.00  0.00    -0.060 A 
ATOM     24  C   LIG    1       11.893   4.883  -0.921  0.00  0.00    +0.070 A 
ATOM     25  C   LIG    1       10.713   4.174  -0.810  0.00  0.00    -0.050 A 
ATOM     26 CL   LIG    1       14.579   5.103  -1.181  0.00  0.00    -0.070 Cl
ATOM     27  C   LIG    1       10.734   2.787  -0.818  0.00  0.00    +0.130 A 
ENDBRANCH  19  27
ENDBRANCH  18  19
ENDBRANCH  16  18
ENDBRANCH  15  16
ENDBRANCH   1  15
TORSDOF 8
