REMARK  Name = ZINCpk00000FaILu.0
REMARK                            x       y       z     vdW  Elec       q    Type
REMARK                         _______ _______ _______ _____ _____    ______ ____
ROOT
ATOM      1  C   LIG    1       -7.436   4.307   1.172  0.00  0.00    +0.250 C 
ATOM      2  C   LIG    1       -7.043   2.903   0.684  0.00  0.00    +0.310 C 
ATOM      3  N   LIG    1       -5.744   3.001   0.002  0.00  0.00    -0.610 N 
ATOM      4  C   LIG    1       -5.587   4.025  -1.044  0.00  0.00    +0.250 C 
ATOM      5  C   LIG    1       -6.052   5.370  -0.476  0.00  0.00    +0.230 C 
ATOM      6  C   LIG    1       -4.729   2.174   0.320  0.00  0.00    +0.520 C 
ATOM      7  O   LIG    1       -4.877   1.336   1.185  0.00  0.00    -0.500 OA
ATOM      8  O   LIG    1       -7.362   5.221   0.075  0.00  0.00    -0.360 OA
ENDROOT
BRANCH   6   9
ATOM      9  C   LIG    1       -3.409   2.289  -0.398  0.00  0.00    +0.190 C 
ATOM     10  C   LIG    1       -2.674   3.590   0.015  0.00  0.00    +0.110 C 
ATOM     11  C   LIG    1       -1.225   3.142   0.022  0.00  0.00    -0.150 A 
ATOM     12  C   LIG    1       -0.041   3.844   0.018  0.00  0.00    +0.040 A 
ATOM     13  C   LIG    1        1.167   3.163   0.008  0.00  0.00    +0.070 A 
ATOM     14  C   LIG    1        1.175   1.779   0.000  0.00  0.00    +0.040 A 
ATOM     15  C   LIG    1       -0.013   1.076   0.008  0.00  0.00    +0.040 A 
ATOM     16  F   LIG    1        2.331   3.848   0.004  0.00  0.00    -0.130 F 
ATOM     17  C   LIG    1       -1.229   1.753   0.017  0.00  0.00    +0.100 A 
ATOM     18  O   LIG    1       -2.500   1.264   0.038  0.00  0.00    -0.270 OA
ENDBRANCH   6   9
BRANCH   1  22
ATOM     19  C   LIG    1      -10.580   4.477   2.986  0.00  0.00    +0.190 A 
ATOM     20  N   LIG    1      -10.936   3.973   1.836  0.00  0.00    -0.290 NA
ATOM     21  N   LIG    1       -9.904   3.855   1.077  0.00  0.00    -0.260 NA
ATOM     22  C   LIG    1       -8.843   4.278   1.709  0.00  0.00    +0.170 A 
ATOM     23  N   LIG    1       -9.241   4.680   2.940  0.00  0.00    -0.570 N 
ATOM     24  H   LIG    1       -8.681   5.041   3.645  0.00  0.00    +0.430 HD
BRANCH  19  26
ATOM     25  C   LIG    1      -12.628   5.684   3.690  0.00  0.00    +0.050 C 
ATOM     26  C   LIG    1      -11.489   4.772   4.151  0.00  0.00    +0.140 C 
ENDBRANCH  19  26
ENDBRANCH   1  22
TORSDOF 3
