REMARK  Name = ZINCpk00000eb9TO.1
REMARK                            x       y       z     vdW  Elec       q    Type
REMARK                         _______ _______ _______ _____ _____    ______ ____
ROOT
ATOM      1  N   LIG    1        8.259   1.794  -0.743  0.00  0.00    -0.720 N 
ATOM      2  H   LIG    1        7.632   2.429  -1.124  0.00  0.00    +0.410 HD
ATOM      3  C   LIG    1        9.579   2.062  -0.754  0.00  0.00    +0.540 C 
ATOM      4  O   LIG    1       10.363   1.268  -0.278  0.00  0.00    -0.530 OA
ENDROOT
BRANCH   3   5
ATOM      5  C   LIG    1       10.083   3.347  -1.360  0.00  0.00    +0.090 C 
ATOM      6  C   LIG    1       11.554   3.648  -1.030  0.00  0.00    +0.000 C 
ATOM      7  C   LIG    1       11.698   4.135  -2.482  0.00  0.00    +0.160 C 
ATOM      8  C   LIG    1       10.520   3.207  -2.828  0.00  0.00    -0.050 C 
ATOM      9  C   LIG    1        9.530   3.815  -3.823  0.00  0.00    +0.060 C 
ATOM     10  C   LIG    1       10.949   1.788  -3.206  0.00  0.00    +0.070 C 
BRANCH   5  11
ATOM     11  N   LIG    1        9.181   4.481  -1.120  0.00  0.00    -0.820 NA
ATOM     12  H   LIG    1        9.587   5.343  -1.455  0.00  0.00    +0.370 HD
ATOM     13  H   LIG    1        8.940   4.551  -0.143  0.00  0.00    +0.340 HD
ENDBRANCH   5  11
BRANCH   7  14
ATOM     14  O   LIG    1       11.402   5.523  -2.652  0.00  0.00    -0.550 OA
ATOM     15  H   LIG    1       12.123   6.113  -2.393  0.00  0.00    +0.380 HD
ENDBRANCH   7  14
ENDBRANCH   3   5
BRANCH   1  16
ATOM     16  C   LIG    1        7.769   0.545  -0.154  0.00  0.00    +0.330 C 
BRANCH  16  20
ATOM     17  C   LIG    1        3.509   0.391  -0.473  0.00  0.00    +0.090 A 
ATOM     18  C   LIG    1        4.103   0.963   0.642  0.00  0.00    +0.060 A 
ATOM     19  C   LIG    1        5.480   1.006   0.745  0.00  0.00    +0.040 A 
ATOM     20  C   LIG    1        6.268   0.490  -0.268  0.00  0.00    -0.070 A 
ATOM     21  C   LIG    1        5.680  -0.076  -1.384  0.00  0.00    +0.030 A 
ATOM     22  C   LIG    1        4.303  -0.127  -1.491  0.00  0.00    +0.110 A 
ATOM     23  F   LIG    1        3.728  -0.679  -2.582  0.00  0.00    -0.120 F 
BRANCH  17  29
ATOM     24  C   LIG    1        1.849  -2.195  -0.516  0.00  0.00    +0.180 C 
ATOM     25  C   LIG    1        1.342  -0.778  -0.600  0.00  0.00    +0.220 A 
ATOM     26  N   LIG    1        0.091  -0.421  -0.707  0.00  0.00    -0.480 NA
ATOM     27  C   LIG    1        0.013   0.917  -0.756  0.00  0.00    +0.160 A 
ATOM     28  C   LIG    1        1.262   1.414  -0.677  0.00  0.00    +0.130 A 
ATOM     29  N   LIG    1        2.111   0.342  -0.578  0.00  0.00    -0.420 N 
ENDBRANCH  17  29
ENDBRANCH  16  20
ENDBRANCH   1  16
TORSDOF 6
