REMARK  Name = ZINCqH0000036ZfW.0
REMARK                            x       y       z     vdW  Elec       q    Type
REMARK                         _______ _______ _______ _____ _____    ______ ____
ROOT
ATOM      1  N   LIG    1        4.016   2.936   0.987  0.00  0.00    -0.700 N 
ATOM      2  H   LIG    1        4.241   2.700   1.900  0.00  0.00    +0.410 HD
ATOM      3  C   LIG    1        3.888   4.231   0.637  0.00  0.00    +0.600 C 
ATOM      4  O   LIG    1        3.605   4.527  -0.508  0.00  0.00    -0.520 OA
ENDROOT
BRANCH   1  15
ATOM      5  C   LIG    1        5.912   0.512  -0.367  0.00  0.00    +0.080 C 
ATOM      6  C   LIG    1        4.578   0.597   0.377  0.00  0.00    +0.180 C 
ATOM      7  O   LIG    1        3.687  -0.446  -0.054  0.00  0.00    -0.290 OA
ATOM      8  C   LIG    1        2.407   0.017  -0.026  0.00  0.00    +0.140 A 
ATOM      9  C   LIG    1        1.204  -0.685  -0.017  0.00  0.00    -0.040 A 
ATOM     10  C   LIG    1        0.002  -0.004   0.002  0.00  0.00    +0.140 A 
ATOM     11  C   LIG    1       -0.017   1.381   0.010  0.00  0.00    -0.040 A 
ATOM     12  C   LIG    1        1.175   2.083   0.002  0.00  0.00    +0.110 A 
ATOM     13  F   LIG    1       -1.160  -0.692   0.013  0.00  0.00    -0.130 F 
ATOM     14  C   LIG    1        2.374   1.406  -0.012  0.00  0.00    -0.200 A 
ATOM     15  C   LIG    1        3.813   1.884  -0.012  0.00  0.00    +0.290 C 
ENDBRANCH   1  15
BRANCH   3  16
ATOM     16  C   LIG    1        4.092   5.289   1.642  0.00  0.00    +0.000 A 
ATOM     17  C   LIG    1        3.982   6.614   1.344  0.00  0.00    -0.020 A 
ATOM     18  S   LIG    1        4.282   7.529   2.757  0.00  0.00    +0.250 S 
ATOM     19  C   LIG    1        4.552   6.054   3.679  0.00  0.00    +0.070 A 
ATOM     20  N   LIG    1        4.402   5.024   2.903  0.00  0.00    -0.400 NA
BRANCH  19  21
ATOM     21  C   LIG    1        4.896   5.997   5.115  0.00  0.00    +0.170 A 
ATOM     22  N   LIG    1        5.075   4.820   5.704  0.00  0.00    -0.420 NA
ATOM     23  C   LIG    1        5.383   4.726   6.981  0.00  0.00    +0.270 A 
ATOM     24  C   LIG    1        5.531   5.857   7.763  0.00  0.00    +0.020 A 
ATOM     25  C   LIG    1        5.353   7.109   7.191  0.00  0.00    +0.060 A 
ATOM     26  C   LIG    1        5.036   7.181   5.843  0.00  0.00    +0.060 A 
ATOM     27  F   LIG    1        4.859   8.379   5.244  0.00  0.00    -0.120 F 
ENDBRANCH  19  21
ENDBRANCH   3  16
TORSDOF 3
