REMARK  Name = ZINCvU00000006Pc.0
REMARK                            x       y       z     vdW  Elec       q    Type
REMARK                         _______ _______ _______ _____ _____    ______ ____
ROOT
ATOM      1  C   LIG    1        4.359   2.320   4.961  0.00  0.00    -0.150 A 
ATOM      2  C   LIG    1        5.094   1.206   5.369  0.00  0.00    +0.110 A 
ATOM      3  C   LIG    1        5.983   1.316   6.419  0.00  0.00    +0.010 A 
ATOM      4  C   LIG    1        6.139   2.525   7.073  0.00  0.00    +0.160 A 
ATOM      5  C   LIG    1        5.410   3.632   6.676  0.00  0.00    -0.690 A 
ATOM      6  C   LIG    1        4.522   3.537   5.625  0.00  0.00    +0.200 A 
ENDROOT
BRANCH   1   8
ATOM      7  O   LIG    1        2.766   3.180   3.484  0.00  0.00    -0.520 OA
ATOM      8  C   LIG    1        3.409   2.209   3.834  0.00  0.00    +0.560 C 
ATOM      9  N   LIG    1        3.254   1.033   3.195  0.00  0.00    -0.720 N 
ATOM     10  H   LIG    1        3.767   0.258   3.475  0.00  0.00    +0.400 HD
BRANCH   9  11
ATOM     11  C   LIG    1        2.312   0.924   2.079  0.00  0.00    +0.250 C 
ATOM     12  C   LIG    1        2.992   1.338   0.802  0.00  0.00    -0.010 C 
ATOM     13  C   LIG    1        2.031   2.040  -0.177  0.00  0.00    +0.010 C 
ATOM     14  C   LIG    1        0.649   1.362  -0.247  0.00  0.00    +0.000 C 
ATOM     15  C   LIG    1        0.745  -0.139  -0.265  0.00  0.00    +0.010 C 
ATOM     16  C   LIG    1        0.606  -0.655   1.182  0.00  0.00    +0.010 C 
ATOM     17  C   LIG    1        1.847  -0.539   1.934  0.00  0.00    +0.020 C 
ENDBRANCH   9  11
ENDBRANCH   1   8
BRANCH   5  18
ATOM     18  S   LIG    1        5.616   5.168   7.516  0.00  0.00    +2.690 S 
ATOM     19  O   LIG    1        5.215   6.181   6.604  0.00  0.00    -0.930 OA
ATOM     20  O   LIG    1        6.904   5.127   8.115  0.00  0.00    -0.940 OA
BRANCH  18  21
ATOM     21  N   LIG    1        4.522   5.198   8.759  0.00  0.00    -1.050 N 
ATOM     22  H   LIG    1        3.844   5.890   8.791  0.00  0.00    +0.440 HD
BRANCH  21  23
ATOM     23  C   LIG    1        4.577   4.225   9.761  0.00  0.00    +0.170 A 
ATOM     24  C   LIG    1        5.803   3.734  10.188  0.00  0.00    +0.060 A 
ATOM     25  C   LIG    1        5.854   2.776  11.182  0.00  0.00    -0.150 A 
ATOM     26  C   LIG    1        4.685   2.299  11.745  0.00  0.00    +0.080 A 
ATOM     27  C   LIG    1        3.461   2.782  11.319  0.00  0.00    +0.070 A 
ATOM     28  C   LIG    1        3.403   3.744  10.329  0.00  0.00    -0.030 A 
ATOM     29 CL   LIG    1        1.866   4.349   9.794  0.00  0.00    -0.040 Cl
BRANCH  25  30
ATOM     30  C   LIG    1        7.185   2.247  11.650  0.00  0.00    +0.510 C 
ATOM     31  F   LIG    1        7.952   3.300  12.161  0.00  0.00    -0.170 F 
ATOM     32  F   LIG    1        7.858   1.659  10.573  0.00  0.00    -0.170 F 
ATOM     33  F   LIG    1        6.981   1.291  12.651  0.00  0.00    -0.170 F 
ENDBRANCH  25  30
ENDBRANCH  21  23
ENDBRANCH  18  21
ENDBRANCH   5  18
TORSDOF 6
