REMARK  Name = ZINCqH0000003Ydq.0
REMARK                            x       y       z     vdW  Elec       q    Type
REMARK                         _______ _______ _______ _____ _____    ______ ____
ROOT
ATOM      1  C   LIG    1        1.210   2.055   0.005  0.00  0.00    -0.140 A 
ATOM      2  C   LIG    1        2.420   1.360  -0.018  0.00  0.00    +0.050 A 
ATOM      3  C   LIG    1        2.420  -0.020  -0.032  0.00  0.00    +0.000 A 
ATOM      4  C   LIG    1        1.223  -0.714  -0.023  0.00  0.00    +0.060 A 
ATOM      5  C   LIG    1        0.020  -0.030  -0.001  0.00  0.00    -0.120 A 
ATOM      6  C   LIG    1        0.006   1.349   0.013  0.00  0.00    +0.100 A 
ENDROOT
BRANCH   1   9
ATOM      7  N   LIG    1        2.368   4.213   0.011  0.00  0.00    -0.720 N 
ATOM      8  H   LIG    1        3.210   3.732  -0.004  0.00  0.00    +0.400 HD
ATOM      9  C   LIG    1        1.204   3.534   0.019  0.00  0.00    +0.560 C 
ATOM     10  O   LIG    1        0.148   4.136   0.039  0.00  0.00    -0.530 OA
BRANCH   7  11
ATOM     11  C   LIG    1        2.361   5.678   0.025  0.00  0.00    +0.230 C 
ATOM     12  C   LIG    1        2.215   6.201  -1.405  0.00  0.00    +0.020 C 
BRANCH  11  14
ATOM     13  C   LIG    1        3.762   5.769   2.092  0.00  0.00    +0.020 C 
ATOM     14  C   LIG    1        3.674   6.188   0.623  0.00  0.00    +0.020 C 
ENDBRANCH  11  14
ENDBRANCH   7  11
ENDBRANCH   1   9
BRANCH   5  15
ATOM     15  C   LIG    1       -1.279  -0.795   0.009  0.00  0.00    +0.340 C 
BRANCH  15  16
ATOM     16  N   LIG    1       -1.718  -1.029  -1.369  0.00  0.00    -0.740 N 
ATOM     17  H   LIG    1       -1.185  -0.702  -2.110  0.00  0.00    +0.400 HD
ATOM     18  C   LIG    1       -2.864  -1.698  -1.607  0.00  0.00    +0.710 C 
ATOM     19  N   LIG    1       -3.268  -1.913  -2.874  0.00  0.00    -0.590 N 
ATOM     20  C   LIG    1       -2.526  -1.320  -3.990  0.00  0.00    +0.290 C 
ATOM     21  O   LIG    1       -3.532  -2.109  -0.677  0.00  0.00    -0.570 OA
BRANCH  19  22
ATOM     22  C   LIG    1       -4.396  -2.704  -3.125  0.00  0.00    +0.150 A 
ATOM     23  C   LIG    1       -4.264  -3.912  -3.796  0.00  0.00    +0.040 A 
ATOM     24  C   LIG    1       -5.378  -4.692  -4.038  0.00  0.00    +0.000 A 
ATOM     25  C   LIG    1       -6.627  -4.265  -3.621  0.00  0.00    +0.100 A 
ATOM     26  C   LIG    1       -6.762  -3.058  -2.955  0.00  0.00    +0.000 A 
ATOM     27  F   LIG    1       -7.716  -5.027  -3.864  0.00  0.00    -0.140 F 
ATOM     28  C   LIG    1       -5.650  -2.278  -2.707  0.00  0.00    +0.060 A 
ENDBRANCH  19  22
ENDBRANCH  15  16
ENDBRANCH   5  15
TORSDOF 6
