REMARK  Name = ZINCkj000005hGHV.0
REMARK                            x       y       z     vdW  Elec       q    Type
REMARK                         _______ _______ _______ _____ _____    ______ ____
ROOT
ATOM      1  C   LIG    1       -2.757   1.444   2.541  0.00  0.00    +0.400 C 
ENDROOT
BRANCH   1   4
ATOM      2  N   LIG    1       -5.934  -0.293   2.866  0.00  0.00    -0.280 N 
ATOM      3  C   LIG    1       -4.599  -0.245   3.087  0.00  0.00    +0.210 A 
ATOM      4  C   LIG    1       -4.171   0.922   2.551  0.00  0.00    -0.100 A 
ATOM      5  N   LIG    1       -5.248   1.518   2.029  0.00  0.00    -0.240 NA
ATOM      6  N   LIG    1       -6.276   0.773   2.232  0.00  0.00    -0.020 NA
BRANCH   2   7
ATOM      7  C   LIG    1       -6.832  -1.376   3.274  0.00  0.00    +0.440 C 
BRANCH   7   8
ATOM      8  C   LIG    1       -7.962  -0.809   4.095  0.00  0.00    +0.450 C 
ATOM      9  O   LIG    1       -8.011   0.378   4.316  0.00  0.00    -0.480 OA
BRANCH   8  11
ATOM     10  C   LIG    1       -9.971  -1.008   5.361  0.00  0.00    +0.290 C 
ATOM     11  O   LIG    1       -8.914  -1.623   4.579  0.00  0.00    -0.350 OA
ENDBRANCH   8  11
ENDBRANCH   7   8
ENDBRANCH   2   7
ENDBRANCH   1   4
BRANCH   1  12
ATOM     12  N   LIG    1       -2.107   1.071   1.277  0.00  0.00    -0.510 N 
ATOM     13  H   LIG    1       -2.095   0.066   1.189  0.00  0.00    +0.430 HD
ATOM     14  H   LIG    1       -2.619   1.470   0.505  0.00  0.00    +0.430 HD
BRANCH  12  15
ATOM     15  C   LIG    1       -0.729   1.579   1.267  0.00  0.00    +0.170 C 
ATOM     16  C   LIG    1       -0.750   3.109   1.275  0.00  0.00    +0.030 C 
ATOM     17  C   LIG    1        0.686   3.639   1.264  0.00  0.00    +0.040 C 
ATOM     18  C   LIG    1        1.402   3.145   0.006  0.00  0.00    +0.020 C 
ATOM     19  C   LIG    1        1.423   1.615  -0.003  0.00  0.00    +0.000 C 
ATOM     20  C   LIG    1        2.139   1.122  -1.262  0.00  0.00    +0.030 C 
ATOM     21  C   LIG    1       -0.013   1.086   0.008  0.00  0.00    -0.010 C 
ATOM     22  C   LIG    1       -0.753   1.593  -1.232  0.00  0.00    +0.040 C 
ENDBRANCH  12  15
ENDBRANCH   1  12
TORSDOF 6
