REMARK  Name = ZINCrD000000BibC.0
REMARK                            x       y       z     vdW  Elec       q    Type
REMARK                         _______ _______ _______ _____ _____    ______ ____
ROOT
ATOM      1  C   LIG    1       -3.449   2.164   5.473  0.00  0.00    -0.170 A 
ATOM      2  C   LIG    1       -2.738   1.010   5.811  0.00  0.00    +0.070 A 
ATOM      3  C   LIG    1       -2.644   0.623   7.131  0.00  0.00    -0.010 A 
ATOM      4  C   LIG    1       -3.253   1.371   8.125  0.00  0.00    +0.070 A 
ATOM      5  C   LIG    1       -3.959   2.514   7.806  0.00  0.00    +0.010 A 
ATOM      6  C   LIG    1       -4.059   2.923   6.483  0.00  0.00    +0.210 A 
ENDROOT
BRANCH   1   8
ATOM      7  O   LIG    1       -4.247   3.537   3.762  0.00  0.00    -0.540 OA
ATOM      8  C   LIG    1       -3.553   2.585   4.063  0.00  0.00    +0.570 C 
ATOM      9  N   LIG    1       -2.878   1.914   3.108  0.00  0.00    -0.720 N 
ATOM     10  H   LIG    1       -2.324   1.155   3.348  0.00  0.00    +0.410 HD
BRANCH   9  11
ATOM     11  C   LIG    1       -2.981   2.332   1.708  0.00  0.00    +0.300 C 
BRANCH  11  12
ATOM     12  C   LIG    1       -2.124   1.412   0.837  0.00  0.00    +0.140 C 
ATOM     13  C   LIG    1       -2.217   1.835  -0.646  0.00  0.00    +0.010 C 
ATOM     14  C   LIG    1       -0.791   1.602  -1.194  0.00  0.00    +0.000 C 
ATOM     15  C   LIG    1       -0.005   1.066   0.023  0.00  0.00    +0.190 C 
ATOM     16  O   LIG    1       -0.725   1.556   1.176  0.00  0.00    -0.370 OA
ENDBRANCH  11  12
ENDBRANCH   9  11
ENDBRANCH   1   8
BRANCH   6  17
ATOM     17  N   LIG    1       -4.767   4.078   6.159  0.00  0.00    -0.640 N 
ATOM     18  H   LIG    1       -5.269   4.123   5.331  0.00  0.00    +0.430 HD
ATOM     19  C   LIG    1       -4.754   5.134   6.997  0.00  0.00    +0.490 C 
ATOM     20  O   LIG    1       -4.051   5.115   7.985  0.00  0.00    -0.470 OA
BRANCH  19  21
ATOM     21  C   LIG    1       -5.613   6.337   6.707  0.00  0.00    +0.340 C 
ATOM     22  F   LIG    1       -6.812   5.923   6.118  0.00  0.00    -0.180 F 
ATOM     23  F   LIG    1       -4.935   7.194   5.832  0.00  0.00    -0.170 F 
BRANCH  21  24
ATOM     24  C   LIG    1       -5.910   7.065   7.993  0.00  0.00    -0.150 A 
ATOM     25  C   LIG    1       -7.032   6.736   8.729  0.00  0.00    +0.050 A 
ATOM     26  C   LIG    1       -7.302   7.400   9.911  0.00  0.00    +0.010 A 
ATOM     27  C   LIG    1       -6.455   8.400  10.351  0.00  0.00    +0.040 A 
ATOM     28  C   LIG    1       -5.335   8.732   9.612  0.00  0.00    +0.010 A 
ATOM     29  C   LIG    1       -5.062   8.064   8.433  0.00  0.00    +0.060 A 
ENDBRANCH  21  24
ENDBRANCH  19  21
ENDBRANCH   6  17
TORSDOF 6
