REMARK  Name = ZINCc70000002FLI.0
REMARK                            x       y       z     vdW  Elec       q    Type
REMARK                         _______ _______ _______ _____ _____    ______ ____
ROOT
ATOM      1  N   LIG    1       -2.483  -0.594  -0.199  0.00  0.00    -0.320 N 
ATOM      2  C   LIG    1       -3.430  -1.147   0.585  0.00  0.00    +0.440 A 
ATOM      3  N   LIG    1       -2.852  -1.444   1.768  0.00  0.00    -0.460 N 
ATOM      4  H   LIG    1       -3.286  -1.852   2.534  0.00  0.00    +0.470 HD
ATOM      5  N   LIG    1       -1.508  -1.057   1.683  0.00  0.00    -0.250 NA
ATOM      6  S   LIG    1       -5.065  -1.423   0.159  0.00  0.00    -0.560 S 
ATOM      7  C   LIG    1       -1.308  -0.549   0.510  0.00  0.00    +0.300 A 
ENDROOT
BRANCH   7   8
ATOM      8  C   LIG    1        0.002  -0.004   0.002  0.00  0.00    +0.270 C 
ATOM      9  C   LIG    1        1.152  -0.389   0.959  0.00  0.00    +0.040 C 
ATOM     10  C   LIG    1        2.073   0.852   0.957  0.00  0.00    +0.020 C 
ATOM     11  C   LIG    1        1.370   1.839  -0.001  0.00  0.00    +0.220 C 
ATOM     12  O   LIG    1       -0.018   1.440   0.010  0.00  0.00    -0.370 OA
ENDBRANCH   7   8
BRANCH   1  13
ATOM     13  N   LIG    1       -2.662  -0.154  -1.479  0.00  0.00    -0.570 N 
ATOM     14  H   LIG    1       -2.394   0.814  -1.570  0.00  0.00    +0.370 HD
ATOM     15  H   LIG    1       -3.615  -0.295  -1.780  0.00  0.00    +0.400 HD
ENDBRANCH   1  13
TORSDOF 2
