REMARK  Name = ZINCrH000004sCr7.0
REMARK                            x       y       z     vdW  Elec       q    Type
REMARK                         _______ _______ _______ _____ _____    ______ ____
ROOT
ATOM      1  N   LIG    1        0.064  -2.709   2.597  0.00  0.00    -0.670 N 
ATOM      2  H   LIG    1        0.018  -2.223   3.435  0.00  0.00    +0.410 HD
ATOM      3  C   LIG    1        0.210  -2.039   1.436  0.00  0.00    +0.520 C 
ATOM      4  O   LIG    1        0.364  -2.649   0.399  0.00  0.00    -0.510 OA
ENDROOT
BRANCH   1   9
ATOM      5  C   LIG    1       -0.713  -6.150   1.531  0.00  0.00    -0.040 A 
ATOM      6  C   LIG    1       -0.187  -6.876   2.598  0.00  0.00    +0.020 A 
ATOM      7  C   LIG    1        0.415  -6.217   3.651  0.00  0.00    +0.030 A 
ATOM      8  C   LIG    1        0.499  -4.838   3.652  0.00  0.00    +0.000 A 
ATOM      9  C   LIG    1       -0.023  -4.105   2.592  0.00  0.00    +0.140 A 
ATOM     10  C   LIG    1       -0.635  -4.759   1.534  0.00  0.00    +0.080 A 
BRANCH   5  16
ATOM     11  C   LIG    1       -2.811  -6.004  -2.869  0.00  0.00    +0.180 C 
ATOM     12  C   LIG    1       -2.353  -6.804  -1.677  0.00  0.00    +0.320 A 
ATOM     13  N   LIG    1       -2.539  -8.109  -1.673  0.00  0.00    -0.520 NA
ATOM     14  C   LIG    1       -2.152  -8.851  -0.646  0.00  0.00    +0.330 A 
ATOM     15  C   LIG    1       -1.543  -8.241   0.436  0.00  0.00    -0.080 A 
ATOM     16  C   LIG    1       -1.360  -6.856   0.398  0.00  0.00    +0.220 A 
ATOM     17  N   LIG    1       -1.782  -6.180  -0.668  0.00  0.00    -0.510 NA
ENDBRANCH   5  16
ENDBRANCH   1   9
BRANCH   3  18
ATOM     18  C   LIG    1        0.184  -0.532   1.427  0.00  0.00    +0.080 C 
BRANCH  18  19
ATOM     19  C   LIG    1        0.372  -0.027  -0.005  0.00  0.00    +0.220 C 
BRANCH  19  20
ATOM     20  C   LIG    1        0.346   1.479  -0.013  0.00  0.00    +0.180 A 
ATOM     21  N   LIG    1        1.376   2.279   0.125  0.00  0.00    -0.470 NA
ATOM     22  C   LIG    1        0.878   3.526   0.052  0.00  0.00    +0.180 A 
ATOM     23  N   LIG    1       -0.405   3.424  -0.123  0.00  0.00    -0.380 NA
ATOM     24  O   LIG    1       -0.731   2.256  -0.170  0.00  0.00    +0.080 OA
BRANCH  22  25
ATOM     25  C   LIG    1        1.664   4.808   0.156  0.00  0.00    +0.020 C 
ATOM     26  C   LIG    1        2.368   4.866   1.514  0.00  0.00    +0.060 C 
ATOM     27  C   LIG    1        0.716   6.001   0.022  0.00  0.00    +0.050 C 
ATOM     28  C   LIG    1        2.708   4.858  -0.962  0.00  0.00    +0.060 C 
ENDBRANCH  22  25
ENDBRANCH  19  20
ENDBRANCH  18  19
ENDBRANCH   3  18
TORSDOF 6
