REMARK  Name = ZINCrg00000fROuC.0
REMARK                            x       y       z     vdW  Elec       q    Type
REMARK                         _______ _______ _______ _____ _____    ______ ____
ROOT
ATOM      1  N   LIG    1        4.821   3.023   9.013  0.00  0.00    -0.670 N 
ATOM      2  H   LIG    1        5.713   2.833   8.682  0.00  0.00    +0.420 HD
ATOM      3  C   LIG    1        3.748   2.780   8.236  0.00  0.00    +0.520 C 
ATOM      4  O   LIG    1        2.630   2.927   8.683  0.00  0.00    -0.480 OA
ENDROOT
BRANCH   1   8
ATOM      5  C   LIG    1        4.311   4.589  12.839  0.00  0.00    -0.150 A 
ATOM      6  C   LIG    1        5.357   3.699  12.580  0.00  0.00    +0.110 A 
ATOM      7  C   LIG    1        5.523   3.183  11.315  0.00  0.00    -0.020 A 
ATOM      8  C   LIG    1        4.651   3.547  10.294  0.00  0.00    +0.190 A 
ATOM      9  C   LIG    1        3.611   4.437  10.546  0.00  0.00    +0.000 A 
ATOM     10  C   LIG    1        3.436   4.953  11.811  0.00  0.00    +0.100 A 
BRANCH   5  11
ATOM     11  C   LIG    1        4.130   5.144  14.193  0.00  0.00    +0.510 C 
ATOM     12  O   LIG    1        4.892   4.828  15.086  0.00  0.00    -0.510 OA
BRANCH  11  14
ATOM     13  C   LIG    1        3.004   6.508  15.797  0.00  0.00    +0.260 C 
ATOM     14  O   LIG    1        3.121   6.002  14.441  0.00  0.00    -0.360 OA
ENDBRANCH  11  14
ENDBRANCH   5  11
ENDBRANCH   1   8
BRANCH   3  15
ATOM     15  C   LIG    1        3.936   2.326   6.811  0.00  0.00    +0.280 C 
BRANCH  15  16
ATOM     16  O   LIG    1        2.639   2.134   6.189  0.00  0.00    -0.300 OA
BRANCH  16  17
ATOM     17  C   LIG    1        2.631   1.726   4.905  0.00  0.00    +0.570 C 
ATOM     18  O   LIG    1        3.679   1.536   4.322  0.00  0.00    -0.460 OA
BRANCH  17  19
ATOM     19  C   LIG    1        1.344   1.509   4.206  0.00  0.00    +0.250 A 
ATOM     20  N   LIG    1        1.214   1.111   2.954  0.00  0.00    -0.260 NA
ATOM     21  N   LIG    1       -0.160   1.034   2.692  0.00  0.00    -0.320 N 
ATOM     22  C   LIG    1       -0.882   0.686   1.590  0.00  0.00    +0.200 A 
ATOM     23  C   LIG    1       -2.236   0.717   1.653  0.00  0.00    -0.040 A 
ATOM     24  C   LIG    1       -2.858   1.095   2.852  0.00  0.00    +0.420 A 
ATOM     25  N   LIG    1       -2.137   1.425   3.898  0.00  0.00    -0.450 NA
ATOM     26  C   LIG    1       -0.185   0.279   0.317  0.00  0.00    +0.160 C 
ATOM     27  C   LIG    1       -0.799   1.403   3.845  0.00  0.00    +0.450 A 
ATOM     28  N   LIG    1        0.134   1.684   4.742  0.00  0.00    -0.470 NA
ENDBRANCH  17  19
ENDBRANCH  16  17
ENDBRANCH  15  16
ENDBRANCH   3  15
TORSDOF 7
