REMARK  Name = ZINCrD000001YLPK.0
REMARK                            x       y       z     vdW  Elec       q    Type
REMARK                         _______ _______ _______ _____ _____    ______ ____
ROOT
ATOM      1  C   LIG    1        0.248   1.318  -0.231  0.00  0.00    +0.560 C 
ATOM      2  N   LIG    1        1.353   2.089  -0.248  0.00  0.00    -0.710 N 
ATOM      3  H   LIG    1        1.274   3.052  -0.163  0.00  0.00    +0.410 HD
ATOM      4  O   LIG    1        0.348   0.111  -0.337  0.00  0.00    -0.510 OA
ENDROOT
BRANCH   2   5
ATOM      5  C   LIG    1        2.674   1.473  -0.394  0.00  0.00    +0.310 C 
ATOM      6  C   LIG    1        3.241   1.147   0.990  0.00  0.00    -0.000 C 
ATOM      7  C   LIG    1        4.723   0.784   0.831  0.00  0.00    +0.250 C 
ATOM      8  O   LIG    1        5.422   1.939   0.366  0.00  0.00    -0.310 OA
ATOM      9  C   LIG    1        4.907   2.608  -0.698  0.00  0.00    +0.150 A 
ATOM     10  C   LIG    1        5.729   3.496  -1.385  0.00  0.00    -0.120 A 
ATOM     11  C   LIG    1        5.241   4.197  -2.469  0.00  0.00    +0.050 A 
ATOM     12  C   LIG    1        3.931   4.017  -2.874  0.00  0.00    -0.030 A 
ATOM     13  C   LIG    1        3.113   3.136  -2.195  0.00  0.00    -0.030 A 
ATOM     14  C   LIG    1        1.685   2.943  -2.639  0.00  0.00    +0.090 C 
ATOM     15  C   LIG    1        7.156   3.692  -0.944  0.00  0.00    +0.100 C 
ATOM     16  C   LIG    1        3.597   2.429  -1.108  0.00  0.00    -0.180 A 
ENDBRANCH   2   5
BRANCH   1  21
ATOM     17  C   LIG    1       -2.453   3.900   0.165  0.00  0.00    +0.130 A 
ATOM     18  C   LIG    1       -3.592   3.101   0.177  0.00  0.00    +0.040 A 
ATOM     19  C   LIG    1       -3.482   1.730   0.057  0.00  0.00    +0.000 A 
ATOM     20  C   LIG    1       -2.234   1.140  -0.077  0.00  0.00    +0.160 A 
ATOM     21  C   LIG    1       -1.083   1.938  -0.089  0.00  0.00    -0.150 A 
ATOM     22  C   LIG    1       -1.201   3.324   0.039  0.00  0.00    +0.080 A 
BRANCH  17  24
ATOM     23  C   LIG    1       -1.730   6.101  -0.381  0.00  0.00    +0.550 C 
ATOM     24  N   LIG    1       -2.574   5.290   0.287  0.00  0.00    -0.670 N 
ATOM     25  H   LIG    1       -3.266   5.669   0.852  0.00  0.00    +0.420 HD
ATOM     26  O   LIG    1       -0.810   5.627  -1.021  0.00  0.00    -0.520 OA
BRANCH  23  28
ATOM     27  C   LIG    1       -1.087   8.359  -0.995  0.00  0.00    +0.160 C 
ATOM     28  C   LIG    1       -1.921   7.558  -0.336  0.00  0.00    -0.090 C 
ENDBRANCH  23  28
ENDBRANCH  17  24
BRANCH  20  29
ATOM     29  O   LIG    1       -2.129  -0.208  -0.195  0.00  0.00    -0.480 OA
ATOM     30  H   LIG    1       -2.038  -0.671   0.650  0.00  0.00    +0.400 HD
ENDBRANCH  20  29
ENDBRANCH   1  21
TORSDOF 5
