REMARK  Name = ZINCqH0000009Dgs.0
REMARK                            x       y       z     vdW  Elec       q    Type
REMARK                         _______ _______ _______ _____ _____    ______ ____
ROOT
ATOM      1  C   LIG    1        0.969   4.018   1.457  0.00  0.00    +0.040 C 
ENDROOT
BRANCH   1  12
ATOM      2  C   LIG    1       -0.715   8.059   3.074  0.00  0.00    +0.050 C 
ATOM      3  C   LIG    1        0.704   7.652   2.668  0.00  0.00    +0.310 C 
ATOM      4  C   LIG    1        1.697   8.174   3.693  0.00  0.00    -0.120 A 
ATOM      5  C   LIG    1        2.337   7.367   4.561  0.00  0.00    -0.180 A 
ATOM      6  S   LIG    1        3.390   8.320   5.598  0.00  0.00    +0.110 S 
ATOM      7  C   LIG    1        2.910   9.801   4.782  0.00  0.00    -0.040 A 
ATOM      8  C   LIG    1        2.174   5.863   4.633  0.00  0.00    +0.110 C 
ATOM      9  C   LIG    1        0.879   5.465   3.917  0.00  0.00    +0.280 C 
ATOM     10  C   LIG    1        2.030   9.518   3.828  0.00  0.00    +0.020 A 
ATOM     11  N   LIG    1        0.811   6.186   2.637  0.00  0.00    -0.610 N 
ATOM     12  C   LIG    1        0.853   5.521   1.466  0.00  0.00    +0.530 C 
ATOM     13  O   LIG    1        0.795   6.131   0.419  0.00  0.00    -0.530 OA
ENDBRANCH   1  12
BRANCH   1  14
ATOM     14  C   LIG    1        0.995   3.517   0.011  0.00  0.00    +0.330 C 
BRANCH  14  15
ATOM     15  N   LIG    1        1.109   2.057   0.003  0.00  0.00    -0.550 N 
ATOM     16  C   LIG    1       -0.015   1.294   0.009  0.00  0.00    +0.590 A 
ATOM     17  N   LIG    1        0.002  -0.004   0.002  0.00  0.00    -0.520 NA
ATOM     18  C   LIG    1        1.167  -0.700  -0.013  0.00  0.00    +0.170 A 
ATOM     19  C   LIG    1        1.186  -2.095  -0.021  0.00  0.00    +0.050 A 
ATOM     20  C   LIG    1        2.392  -2.761  -0.037  0.00  0.00    +0.100 A 
ATOM     21  C   LIG    1        3.591  -2.060  -0.044  0.00  0.00    -0.110 A 
ATOM     22  C   LIG    1        3.597  -0.681  -0.036  0.00  0.00    +0.140 A 
ATOM     23 BR   LIG    1        5.229  -3.005  -0.065  0.00  0.00    -0.030 Br
ATOM     24  C   LIG    1        2.388   0.010  -0.021  0.00  0.00    -0.190 A 
ATOM     25  C   LIG    1        2.333   1.480  -0.012  0.00  0.00    +0.550 A 
ATOM     26  O   LIG    1        3.349   2.151  -0.018  0.00  0.00    -0.500 OA
ENDBRANCH  14  15
ENDBRANCH   1  14
TORSDOF 3
