REMARK  Name = ZINCnE000008J31B.0
REMARK                            x       y       z     vdW  Elec       q    Type
REMARK                         _______ _______ _______ _____ _____    ______ ____
ROOT
ATOM      1  N   LIG    1        0.055   1.337  -0.738  0.00  0.00    -0.550 N 
ATOM      2  C   LIG    1        0.153   0.093  -1.227  0.00  0.00    +0.660 C 
ATOM      3  N   LIG    1        1.316  -0.564  -1.347  0.00  0.00    -0.690 NA
ATOM      4  C   LIG    1        2.484  -0.002  -0.974  0.00  0.00    +0.520 C 
ATOM      5  C   LIG    1        2.457   1.365  -0.427  0.00  0.00    -0.260 C 
ATOM      6  C   LIG    1        3.622   2.008  -0.021  0.00  0.00    +0.210 C 
ATOM      7  O   LIG    1        3.533  -0.609  -1.087  0.00  0.00    -0.550 OA
ATOM      8  O   LIG    1       -0.865  -0.469  -1.581  0.00  0.00    -0.570 OA
ATOM      9  C   LIG    1        1.143   2.021  -0.327  0.00  0.00    +0.570 C 
ATOM     10  O   LIG    1        1.040   3.150   0.115  0.00  0.00    -0.520 OA
ENDROOT
BRANCH   1  17
ATOM     11  C   LIG    1       -0.855   2.851  -2.971  0.00  0.00    +0.090 C 
ATOM     12  C   LIG    1       -1.687   2.691  -1.725  0.00  0.00    -0.070 A 
ATOM     13  C   LIG    1       -2.930   3.288  -1.643  0.00  0.00    +0.000 A 
ATOM     14  C   LIG    1       -3.695   3.142  -0.500  0.00  0.00    +0.000 A 
ATOM     15  C   LIG    1       -3.218   2.398   0.564  0.00  0.00    +0.000 A 
ATOM     16  C   LIG    1       -1.978   1.794   0.485  0.00  0.00    +0.020 A 
ATOM     17  C   LIG    1       -1.206   1.944  -0.658  0.00  0.00    +0.150 A 
ENDBRANCH   1  17
BRANCH   6  18
ATOM     18  C   LIG    1        4.824   1.291   0.070  0.00  0.00    -0.200 A 
ATOM     19  C   LIG    1        6.048   1.718  -0.396  0.00  0.00    +0.040 A 
ATOM     20  C   LIG    1        7.054   0.817  -0.174  0.00  0.00    +0.020 A 
ATOM     21  C   LIG    1        6.681  -0.314   0.451  0.00  0.00    -0.270 A 
ATOM     22 BR   LIG    1        7.853  -1.732   0.887  0.00  0.00    -0.010 Br
ATOM     23  S   LIG    1        5.012  -0.297   0.803  0.00  0.00    +0.400 S 
ENDBRANCH   6  18
TORSDOF 2
