REMARK  Name = ZINCrg000000sEjj.0
REMARK                            x       y       z     vdW  Elec       q    Type
REMARK                         _______ _______ _______ _____ _____    ______ ____
ROOT
ATOM      1  N   LIG    1        2.798   0.665  -1.349  0.00  0.00    -0.560 N 
ATOM      2  C   LIG    1        2.054   0.445  -2.451  0.00  0.00    +0.520 C 
ATOM      3  C   LIG    1        3.042   0.321  -3.594  0.00  0.00    +0.320 C 
ATOM      4  N   LIG    1        4.351   0.494  -2.941  0.00  0.00    -0.620 N 
ATOM      5  O   LIG    1        0.846   0.365  -2.515  0.00  0.00    -0.450 OA
ATOM      6  C   LIG    1        4.105   0.689  -1.632  0.00  0.00    +0.700 C 
ATOM      7  O   LIG    1        4.974   0.867  -0.801  0.00  0.00    -0.530 OA
ENDROOT
BRANCH   1  11
ATOM      8  N   LIG    1       -0.018   1.463   0.010  0.00  0.00    -0.510 N 
ATOM      9  C   LIG    1        0.002  -0.004   0.002  0.00  0.00    +0.280 C 
ATOM     10  C   LIG    1        1.435  -0.399   0.422  0.00  0.00    +0.070 C 
ATOM     11  C   LIG    1        2.244   0.848  -0.005  0.00  0.00    +0.270 C 
ATOM     12  C   LIG    1        1.228   1.969   0.001  0.00  0.00    +0.510 C 
ATOM     13  O   LIG    1        1.498   3.151  -0.003  0.00  0.00    -0.510 OA
BRANCH   8  17
ATOM     14  C   LIG    1       -3.087   5.318   0.045  0.00  0.00    +0.360 C 
ATOM     15  N   LIG    1       -2.562   3.951   0.036  0.00  0.00    -0.370 N 
ATOM     16  C   LIG    1       -1.250   3.598   0.033  0.00  0.00    +0.230 A 
ATOM     17  C   LIG    1       -1.191   2.242   0.020  0.00  0.00    +0.010 A 
ATOM     18  C   LIG    1       -2.506   1.754   0.024  0.00  0.00    +0.230 A 
ATOM     19  N   LIG    1       -3.323   2.775   0.034  0.00  0.00    -0.280 NA
ENDBRANCH   8  17
ENDBRANCH   1  11
BRANCH   4  20
ATOM     20  C   LIG    1        5.664   0.460  -3.589  0.00  0.00    +0.340 C 
BRANCH  20  21
ATOM     21  C   LIG    1        6.196  -0.974  -3.589  0.00  0.00    +0.060 C 
BRANCH  21  22
ATOM     22  C   LIG    1        7.546  -1.009  -4.256  0.00  0.00    -0.090 A 
ATOM     23  C   LIG    1        7.639  -1.227  -5.618  0.00  0.00    +0.000 A 
ATOM     24  C   LIG    1        8.878  -1.254  -6.231  0.00  0.00    +0.000 A 
ATOM     25  C   LIG    1       10.025  -1.074  -5.480  0.00  0.00    +0.000 A 
ATOM     26  C   LIG    1        9.932  -0.862  -4.117  0.00  0.00    +0.000 A 
ATOM     27  C   LIG    1        8.693  -0.829  -3.505  0.00  0.00    +0.010 A 
ENDBRANCH  21  22
ENDBRANCH  20  21
ENDBRANCH   4  20
TORSDOF 5
