REMARK  Name = ZINCrD00000l0ZQ9.0
REMARK                            x       y       z     vdW  Elec       q    Type
REMARK                         _______ _______ _______ _____ _____    ______ ____
ROOT
ATOM      1  C   LIG    1       -5.220   0.330  -0.662  0.00  0.00    +0.610 C 
ATOM      2  N   LIG    1       -6.477   0.141  -0.214  0.00  0.00    -0.700 N 
ATOM      3  H   LIG    1       -6.678   0.254   0.728  0.00  0.00    +0.410 HD
ATOM      4  O   LIG    1       -4.967   0.188  -1.843  0.00  0.00    -0.530 OA
ENDROOT
BRANCH   1  11
ATOM      5  C   LIG    1       -0.992   3.098  -1.105  0.00  0.00    +0.040 C 
ATOM      6  C   LIG    1       -0.752   1.592  -1.234  0.00  0.00    -0.070 C 
ATOM      7  C   LIG    1       -0.013   1.086   0.008  0.00  0.00    +0.050 C 
ATOM      8  C   LIG    1       -0.729   1.580   1.271  0.00  0.00    +0.120 C 
ATOM      9  C   LIG    1       -2.195   1.258   1.142  0.00  0.00    +0.010 A 
ATOM     10  C   LIG    1       -2.799   0.940  -0.029  0.00  0.00    -0.140 A 
ATOM     11  C   LIG    1       -4.149   0.709   0.282  0.00  0.00    -0.010 A 
ATOM     12  N   LIG    1       -4.275   0.898   1.584  0.00  0.00    -0.260 NA
ATOM     13  N   LIG    1       -3.138   1.221   2.098  0.00  0.00    -0.370 N 
ATOM     14  H   LIG    1       -2.986   1.409   3.037  0.00  0.00    +0.450 HD
ATOM     15  C   LIG    1        0.093   1.315  -2.478  0.00  0.00    +0.040 C 
ATOM     16  C   LIG    1       -2.099   0.868  -1.359  0.00  0.00    +0.130 C 
ENDBRANCH   1  11
BRANCH   2  17
ATOM     17  C   LIG    1       -7.539  -0.236  -1.151  0.00  0.00    +0.390 C 
BRANCH  17  18
ATOM     18  C   LIG    1       -8.872   0.198  -0.598  0.00  0.00    -0.100 A 
ATOM     19  C   LIG    1       -9.140   0.056   0.750  0.00  0.00    +0.080 A 
ATOM     20  C   LIG    1      -10.361   0.459   1.259  0.00  0.00    -0.010 A 
ATOM     21  C   LIG    1      -11.319   0.994   0.415  0.00  0.00    +0.110 A 
ATOM     22  C   LIG    1      -11.052   1.131  -0.937  0.00  0.00    -0.010 A 
ATOM     23  F   LIG    1      -12.515   1.383   0.910  0.00  0.00    -0.140 F 
ATOM     24  C   LIG    1       -9.829   0.732  -1.442  0.00  0.00    +0.060 A 
ENDBRANCH  17  18
BRANCH  17  25
ATOM     25  C   LIG    1       -7.536  -1.731  -1.339  0.00  0.00    +0.190 A 
ATOM     26  N   LIG    1       -7.803  -2.615  -0.417  0.00  0.00    -0.470 NA
ATOM     27  C   LIG    1       -7.704  -3.845  -0.941  0.00  0.00    +0.140 A 
ATOM     28  C   LIG    1       -7.363  -3.719  -2.238  0.00  0.00    +0.130 A 
ATOM     29  N   LIG    1       -7.261  -2.378  -2.492  0.00  0.00    -0.550 N 
ATOM     30  H   LIG    1       -7.033  -1.969  -3.342  0.00  0.00    +0.420 HD
ENDBRANCH  17  25
ENDBRANCH   2  17
TORSDOF 4
