REMARK  Name = ZINCrD00000l0ZQ9.1
REMARK                            x       y       z     vdW  Elec       q    Type
REMARK                         _______ _______ _______ _____ _____    ______ ____
ROOT
ATOM      1  C   LIG    1       -1.187   1.624   0.017  0.00  0.00    +0.600 C 
ATOM      2  N   LIG    1       -0.011   0.966   0.007  0.00  0.00    -0.710 N 
ATOM      3  H   LIG    1        0.002  -0.004   0.002  0.00  0.00    +0.400 HD
ATOM      4  O   LIG    1       -1.204   2.840   0.023  0.00  0.00    -0.510 OA
ENDROOT
BRANCH   1  13
ATOM      5  C   LIG    1       -6.224   4.254  -0.136  0.00  0.00    +0.040 C 
ATOM      6  C   LIG    1       -5.661   2.851  -0.370  0.00  0.00    -0.060 C 
ATOM      7  C   LIG    1       -6.445   1.841   0.471  0.00  0.00    +0.040 C 
ATOM      8  C   LIG    1       -6.089   0.413   0.038  0.00  0.00    +0.130 C 
ATOM      9  C   LIG    1       -4.586   0.286   0.026  0.00  0.00    +0.030 A 
ATOM     10  N   LIG    1       -3.854  -0.790   0.015  0.00  0.00    -0.250 NA
ATOM     11  N   LIG    1       -2.601  -0.491   0.006  0.00  0.00    -0.390 N 
ATOM     12  H   LIG    1       -1.874  -1.133  -0.006  0.00  0.00    +0.440 HD
ATOM     13  C   LIG    1       -2.452   0.871   0.018  0.00  0.00    -0.040 A 
ATOM     14  C   LIG    1       -3.722   1.389   0.027  0.00  0.00    -0.100 A 
ATOM     15  C   LIG    1       -5.792   2.489  -1.851  0.00  0.00    +0.030 C 
ATOM     16  C   LIG    1       -4.180   2.821   0.034  0.00  0.00    +0.120 C 
ENDBRANCH   1  13
BRANCH   2  17
ATOM     17  C   LIG    1        1.248   1.716  -0.001  0.00  0.00    +0.400 C 
BRANCH  17  18
ATOM     18  C   LIG    1        2.332   0.870  -0.616  0.00  0.00    -0.110 A 
ATOM     19  C   LIG    1        2.403  -0.480  -0.326  0.00  0.00    +0.070 A 
ATOM     20  C   LIG    1        3.394  -1.258  -0.894  0.00  0.00    -0.010 A 
ATOM     21  C   LIG    1        4.322  -0.683  -1.746  0.00  0.00    +0.110 A 
ATOM     22  C   LIG    1        4.254   0.670  -2.031  0.00  0.00    -0.010 A 
ATOM     23  F   LIG    1        5.295  -1.442  -2.297  0.00  0.00    -0.140 F 
ATOM     24  C   LIG    1        3.259   1.445  -1.466  0.00  0.00    +0.070 A 
ENDBRANCH  17  18
BRANCH  17  25
ATOM     25  C   LIG    1        1.629   2.071   1.413  0.00  0.00    +0.190 A 
ATOM     26  N   LIG    1        1.945   1.222   2.352  0.00  0.00    -0.470 NA
ATOM     27  C   LIG    1        2.227   1.893   3.479  0.00  0.00    +0.140 A 
ATOM     28  C   LIG    1        2.080   3.208   3.228  0.00  0.00    +0.140 A 
ATOM     29  N   LIG    1        1.707   3.322   1.916  0.00  0.00    -0.550 N 
ATOM     30  H   LIG    1        1.529   4.147   1.438  0.00  0.00    +0.420 HD
ENDBRANCH  17  25
ENDBRANCH   2  17
TORSDOF 4
