REMARK  Name = ZINCrD0000075WHW.0
REMARK                            x       y       z     vdW  Elec       q    Type
REMARK                         _______ _______ _______ _____ _____    ______ ____
ROOT
ATOM      1  O   LIG    1        5.828  -0.592   0.149  0.00  0.00    -0.510 OA
ATOM      2  C   LIG    1        4.772  -0.001   0.220  0.00  0.00    +0.510 C 
ATOM      3  C   LIG    1        4.758   1.455   0.609  0.00  0.00    +0.340 C 
ATOM      4  N   LIG    1        3.596   2.107  -0.015  0.00  0.00    -0.560 N 
ATOM      5  C   LIG    1        2.376   1.414  -0.013  0.00  0.00    +0.110 A 
ATOM      6  C   LIG    1        1.170   2.090   0.002  0.00  0.00    +0.060 A 
ATOM      7  C   LIG    1       -0.017   1.378   0.010  0.00  0.00    +0.010 A 
ATOM      8  C   LIG    1        0.002  -0.004   0.002  0.00  0.00    +0.030 A 
ATOM      9  C   LIG    1        1.205  -0.687  -0.014  0.00  0.00    +0.010 A 
ATOM     10  C   LIG    1        2.398   0.018  -0.023  0.00  0.00    +0.130 A 
ATOM     11  C   LIG    1        3.700   3.330  -0.570  0.00  0.00    +0.520 C 
ATOM     12  O   LIG    1        2.730   3.850  -1.079  0.00  0.00    -0.480 OA
ATOM     13  N   LIG    1        3.625  -0.653  -0.050  0.00  0.00    -0.660 N 
ATOM     14  H   LIG    1        3.650  -1.599  -0.264  0.00  0.00    +0.420 HD
ENDROOT
BRANCH  11  15
ATOM     15  C   LIG    1        5.023   4.053  -0.558  0.00  0.00    +0.270 C 
BRANCH  15  16
ATOM     16  O   LIG    1        4.876   5.341  -1.212  0.00  0.00    -0.330 OA
BRANCH  16  17
ATOM     17  C   LIG    1        5.970   6.115  -1.286  0.00  0.00    +0.470 C 
ATOM     18  O   LIG    1        7.016   5.729  -0.820  0.00  0.00    -0.500 OA
BRANCH  17  19
ATOM     19  C   LIG    1        5.894   7.466  -1.951  0.00  0.00    +0.140 C 
BRANCH  19  20
ATOM     20  C   LIG    1        7.268   8.137  -1.901  0.00  0.00    +0.090 C 
BRANCH  20  21
ATOM     21  S   LIG    1        7.177   9.762  -2.700  0.00  0.00    -0.090 S 
BRANCH  21  22
ATOM     22  C   LIG    1        8.823  10.372  -2.548  0.00  0.00    -0.080 A 
ATOM     23  C   LIG    1        9.793   9.606  -1.914  0.00  0.00    +0.020 A 
ATOM     24  C   LIG    1       11.084  10.085  -1.800  0.00  0.00    +0.050 A 
ATOM     25  C   LIG    1       11.408  11.331  -2.306  0.00  0.00    -0.040 A 
ATOM     26  C   LIG    1       10.442  12.099  -2.934  0.00  0.00    +0.050 A 
ATOM     27 CL   LIG    1       13.029  11.933  -2.154  0.00  0.00    -0.060 Cl
ATOM     28  C   LIG    1        9.152  11.623  -3.055  0.00  0.00    +0.050 A 
ENDBRANCH  21  22
ENDBRANCH  20  21
ENDBRANCH  19  20
ENDBRANCH  17  19
ENDBRANCH  16  17
ENDBRANCH  15  16
ENDBRANCH  11  15
TORSDOF 7
