REMARK  Name = ZINCrH000004kLm4.0
REMARK                            x       y       z     vdW  Elec       q    Type
REMARK                         _______ _______ _______ _____ _____    ______ ____
ROOT
ATOM      1  C   LIG    1        0.707  -0.490  -1.238  0.00  0.00    +0.450 C 
ATOM      2  O   LIG    1        0.066  -0.782  -2.226  0.00  0.00    -0.430 OA
ENDROOT
BRANCH   1   7
ATOM      3  C   LIG    1        4.231  -0.993  -1.885  0.00  0.00    -0.220 A 
ATOM      4  C   LIG    1        4.232  -0.540  -0.577  0.00  0.00    +0.140 A 
ATOM      5  N   LIG    1        2.965  -0.310  -0.202  0.00  0.00    -0.510 N 
ATOM      6  H   LIG    1        2.688   0.014   0.670  0.00  0.00    +0.430 HD
ATOM      7  C   LIG    1        2.118  -0.606  -1.250  0.00  0.00    -0.100 A 
ATOM      8  C   LIG    1        5.453  -0.339   0.282  0.00  0.00    +0.150 C 
ATOM      9  C   LIG    1        2.886  -1.040  -2.309  0.00  0.00    +0.010 A 
ATOM     10  C   LIG    1        2.385  -1.477  -3.662  0.00  0.00    +0.130 C 
BRANCH   3  11
ATOM     11  C   LIG    1        5.412  -1.363  -2.683  0.00  0.00    +0.550 C 
ATOM     12  O   LIG    1        5.821  -2.508  -2.668  0.00  0.00    -0.490 OA
BRANCH  11  14
ATOM     13  C   LIG    1        7.198  -0.869  -4.189  0.00  0.00    +0.260 C 
ATOM     14  O   LIG    1        6.040  -0.433  -3.428  0.00  0.00    -0.350 OA
ENDBRANCH  11  14
ENDBRANCH   3  11
ENDBRANCH   1   7
BRANCH   1  15
ATOM     15  C   LIG    1        0.002  -0.004   0.002  0.00  0.00    -0.030 C 
ATOM     16  C   LIG    1       -0.019   1.526   0.010  0.00  0.00    +0.100 C 
BRANCH  15  17
ATOM     17  S   LIG    1       -1.696  -0.631   0.015  0.00  0.00    +0.130 S 
BRANCH  17  18
ATOM     18  C   LIG    1       -2.222  -0.057   1.596  0.00  0.00    +0.120 A 
ATOM     19  N   LIG    1       -1.502   0.628   2.451  0.00  0.00    -0.280 NA
ATOM     20  N   LIG    1       -2.205   0.878   3.500  0.00  0.00    -0.270 NA
ATOM     21  C   LIG    1       -3.401   0.362   3.356  0.00  0.00    +0.260 A 
ATOM     22  O   LIG    1       -3.439  -0.237   2.145  0.00  0.00    -0.200 OA
BRANCH  21  23
ATOM     23  C   LIG    1       -4.506   0.427   4.335  0.00  0.00    -0.150 A 
ATOM     24  C   LIG    1       -4.486   1.024   5.558  0.00  0.00    +0.090 A 
ATOM     25  O   LIG    1       -5.688   0.860   6.128  0.00  0.00    -0.170 OA
ATOM     26  C   LIG    1       -6.506   0.164   5.324  0.00  0.00    +0.200 A 
ATOM     27  C   LIG    1       -3.313   1.748   6.166  0.00  0.00    +0.200 C 
ATOM     28  C   LIG    1       -5.852  -0.143   4.193  0.00  0.00    -0.020 A 
ENDBRANCH  21  23
ENDBRANCH  17  18
ENDBRANCH  15  17
ENDBRANCH   1  15
TORSDOF 7
