REMARK  Name = ZINCqH0000001vmD.0
REMARK                            x       y       z     vdW  Elec       q    Type
REMARK                         _______ _______ _______ _____ _____    ______ ____
ROOT
ATOM      1  C   LIG    1        2.477   1.074  -0.008  0.00  0.00    +0.570 C 
ATOM      2  N   LIG    1        3.626   1.748   0.199  0.00  0.00    -0.720 N 
ATOM      3  H   LIG    1        3.605   2.705   0.357  0.00  0.00    +0.410 HD
ATOM      4  O   LIG    1        2.503  -0.126  -0.206  0.00  0.00    -0.540 OA
ENDROOT
BRANCH   1   8
ATOM      5  C   LIG    1       -1.234   3.139   0.033  0.00  0.00    +0.160 A 
ATOM      6  C   LIG    1       -1.206   1.768  -0.199  0.00  0.00    -0.020 A 
ATOM      7  C   LIG    1       -0.005   1.094  -0.207  0.00  0.00    +0.120 A 
ATOM      8  C   LIG    1        1.187   1.791   0.007  0.00  0.00    -0.180 A 
ATOM      9  C   LIG    1        1.155   3.170   0.234  0.00  0.00    +0.090 A 
ATOM     10  C   LIG    1       -0.050   3.836   0.246  0.00  0.00    -0.080 A 
BRANCH   5  11
ATOM     11  O   LIG    1       -2.420   3.799   0.046  0.00  0.00    -0.310 OA
BRANCH  11  13
ATOM     12  C   LIG    1       -3.636   5.829  -0.440  0.00  0.00    +0.070 C 
ATOM     13  C   LIG    1       -2.369   5.222   0.164  0.00  0.00    +0.150 C 
ATOM     14  C   LIG    1       -2.272   5.608   1.641  0.00  0.00    +0.020 C 
ENDBRANCH  11  13
ENDBRANCH   5  11
ENDBRANCH   1   8
BRANCH   2  15
ATOM     15  C   LIG    1        4.906   1.035   0.184  0.00  0.00    +0.300 C 
BRANCH  15  16
ATOM     16  C   LIG    1        6.026   2.011   0.439  0.00  0.00    +0.510 C 
ATOM     17  N   LIG    1        7.302   1.578   0.471  0.00  0.00    -0.720 N 
ATOM     18  H   LIG    1        7.499   0.638   0.330  0.00  0.00    +0.400 HD
ATOM     19  O   LIG    1        5.779   3.185   0.615  0.00  0.00    -0.530 OA
BRANCH  17  20
ATOM     20  C   LIG    1        8.391   2.526   0.718  0.00  0.00    +0.280 C 
ATOM     21  C   LIG    1        8.802   3.185  -0.600  0.00  0.00    +0.040 C 
BRANCH  20  22
ATOM     22  C   LIG    1        9.571   1.794   1.303  0.00  0.00    -0.090 A 
ATOM     23  C   LIG    1        9.912   0.541   0.828  0.00  0.00    +0.030 A 
ATOM     24  C   LIG    1       10.997  -0.129   1.361  0.00  0.00    +0.040 A 
ATOM     25  C   LIG    1       11.736   0.450   2.377  0.00  0.00    -0.030 A 
ATOM     26  C   LIG    1       11.392   1.702   2.855  0.00  0.00    +0.040 A 
ATOM     27 CL   LIG    1       13.095  -0.394   3.051  0.00  0.00    -0.060 Cl
ATOM     28  C   LIG    1       10.310   2.373   2.318  0.00  0.00    +0.050 A 
ENDBRANCH  20  22
ENDBRANCH  17  20
ENDBRANCH  15  16
ENDBRANCH   2  15
TORSDOF 7
