REMARK  Name = ZINCfA000000yvFp.0
REMARK                            x       y       z     vdW  Elec       q    Type
REMARK                         _______ _______ _______ _____ _____    ______ ____
ROOT
ATOM      1  C   LIG    1        0.002  -0.004   0.002  0.00  0.00    +0.280 C 
ENDROOT
BRANCH   1   2
ATOM      2  C   LIG    1        0.707  -0.490  -1.238  0.00  0.00    -0.120 A 
ATOM      3  C   LIG    1        1.836   0.166  -1.692  0.00  0.00    +0.040 A 
ATOM      4  C   LIG    1        2.487  -0.283  -2.828  0.00  0.00    -0.020 A 
ATOM      5  C   LIG    1        2.002  -1.382  -3.514  0.00  0.00    +0.060 A 
ATOM      6  C   LIG    1        0.869  -2.034  -3.062  0.00  0.00    -0.020 A 
ATOM      7 CL   LIG    1        0.260  -3.413  -3.923  0.00  0.00    -0.030 Cl
ATOM      8 CL   LIG    1        3.909   0.536  -3.394  0.00  0.00    -0.030 Cl
ATOM      9  C   LIG    1        0.222  -1.588  -1.923  0.00  0.00    +0.060 A 
ENDBRANCH   1   2
BRANCH   1  10
ATOM     10  O   LIG    1       -0.017   1.425   0.010  0.00  0.00    -0.540 OA
ATOM     11  H   LIG    1        0.861   1.830   0.004  0.00  0.00    +0.390 HD
ENDBRANCH   1  10
BRANCH   1  12
ATOM     12  C   LIG    1        0.742  -0.511   1.242  0.00  0.00    +0.240 C 
BRANCH  12  13
ATOM     13  N   LIG    1       -0.010  -0.139   2.447  0.00  0.00    -0.500 N 
ATOM     14  H   LIG    1       -0.929  -0.554   2.411  0.00  0.00    +0.430 HD
ATOM     15  H   LIG    1       -0.096   0.865   2.494  0.00  0.00    +0.430 HD
BRANCH  13  17
ATOM     16  C   LIG    1       -0.016  -0.132   4.896  0.00  0.00    +0.090 C 
ATOM     17  C   LIG    1        0.700  -0.626   3.637  0.00  0.00    +0.160 C 
ATOM     18  C   LIG    1        0.721  -2.155   3.629  0.00  0.00    +0.080 C 
ENDBRANCH  13  17
ENDBRANCH  12  13
ENDBRANCH   1  12
TORSDOF 5
