REMARK  Name = ZINCAx0000000cmu.1
REMARK                            x       y       z     vdW  Elec       q    Type
REMARK                         _______ _______ _______ _____ _____    ______ ____
ROOT
ATOM      1  C   LIG    1        2.404   0.050  -0.021  0.00  0.00    -0.060 A 
ATOM      2  C   LIG    1        2.378   1.447  -0.013  0.00  0.00    +0.030 A 
ATOM      3  C   LIG    1        1.176   2.120   0.002  0.00  0.00    +0.140 A 
ATOM      4  C   LIG    1       -0.017   1.402   0.010  0.00  0.00    -0.160 A 
ATOM      5  C   LIG    1       -1.328   2.081   0.032  0.00  0.00    +0.550 A 
ATOM      6  N   LIG    1       -2.443   1.319   0.033  0.00  0.00    -0.510 N 
ATOM      7  C   LIG    1       -2.372  -0.021   0.026  0.00  0.00    +0.530 A 
ATOM      8  N   LIG    1       -1.205  -0.688   0.010  0.00  0.00    -0.580 N 
ATOM      9  H   LIG    1       -1.207  -1.658   0.005  0.00  0.00    +0.450 HD
ATOM     10  S   LIG    1       -3.829  -0.919   0.035  0.00  0.00    -0.530 S 
ATOM     11  O   LIG    1       -1.401   3.294   0.040  0.00  0.00    -0.460 OA
ATOM     12  C   LIG    1        0.002  -0.004   0.002  0.00  0.00    +0.170 A 
ATOM     13  C   LIG    1        1.214  -0.675  -0.013  0.00  0.00    +0.070 A 
ENDROOT
BRANCH   1  15
ATOM     14  O   LIG    1        3.726  -1.879  -0.043  0.00  0.00    -0.510 OA
ATOM     15  C   LIG    1        3.701  -0.664  -0.036  0.00  0.00    +0.560 C 
ATOM     16  N   LIG    1        4.854   0.034  -0.044  0.00  0.00    -0.720 N 
ATOM     17  H   LIG    1        4.834   1.004  -0.039  0.00  0.00    +0.410 HD
BRANCH  16  18
ATOM     18  C   LIG    1        6.137  -0.672  -0.059  0.00  0.00    +0.310 C 
BRANCH  18  19
ATOM     19  C   LIG    1        7.279   0.347  -0.065  0.00  0.00    -0.380 C 
BRANCH  19  20
ATOM     20  S   LIG    1        8.869  -0.527  -0.084  0.00  0.00    +2.620 S 
ATOM     21  O   LIG    1        9.058  -1.191  -1.326  0.00  0.00    -0.940 OA
ATOM     22  O   LIG    1        9.081  -1.203   1.148  0.00  0.00    -0.940 OA
BRANCH  20  23
ATOM     23  N   LIG    1       10.004   0.679  -0.089  0.00  0.00    -1.110 NA
ATOM     24  H   LIG    1       10.587   0.793  -0.855  0.00  0.00    +0.420 HD
BRANCH  23  25
ATOM     25  C   LIG    1       10.126   1.574   1.065  0.00  0.00    +0.310 C 
BRANCH  25  26
ATOM     26  C   LIG    1       11.432   2.322   0.984  0.00  0.00    -0.110 A 
ATOM     27  C   LIG    1       12.567   1.796   1.572  0.00  0.00    +0.030 A 
ATOM     28  C   LIG    1       13.766   2.479   1.493  0.00  0.00    +0.010 A 
ATOM     29  C   LIG    1       13.827   3.694   0.837  0.00  0.00    +0.010 A 
ATOM     30  C   LIG    1       12.691   4.223   0.254  0.00  0.00    +0.000 A 
ATOM     31  C   LIG    1       11.493   3.537   0.327  0.00  0.00    +0.020 A 
ENDBRANCH  25  26
ENDBRANCH  23  25
ENDBRANCH  20  23
ENDBRANCH  19  20
ENDBRANCH  18  19
ENDBRANCH  16  18
ENDBRANCH   1  15
BRANCH   6  32
ATOM     32  C   LIG    1       -3.756   1.968   0.050  0.00  0.00    +0.340 C 
BRANCH  32  33
ATOM     33  C   LIG    1       -4.199   2.187   1.498  0.00  0.00    +0.070 C 
BRANCH  33  34
ATOM     34  C   LIG    1       -5.550   2.854   1.515  0.00  0.00    -0.080 A 
ATOM     35  C   LIG    1       -5.639   4.234   1.529  0.00  0.00    +0.010 A 
ATOM     36  C   LIG    1       -6.878   4.846   1.540  0.00  0.00    +0.000 A 
ATOM     37  C   LIG    1       -8.028   4.080   1.547  0.00  0.00    +0.000 A 
ATOM     38  C   LIG    1       -7.939   2.700   1.539  0.00  0.00    +0.000 A 
ATOM     39  C   LIG    1       -6.700   2.088   1.522  0.00  0.00    +0.020 A 
ENDBRANCH  33  34
ENDBRANCH  32  33
ENDBRANCH   6  32
TORSDOF 10
