REMARK  Name = ZINCqH0000000fpX.0
REMARK                            x       y       z     vdW  Elec       q    Type
REMARK                         _______ _______ _______ _____ _____    ______ ____
ROOT
ATOM      1  N   LIG    1       -2.926   0.712   1.400  0.00  0.00    -0.600 N 
ATOM      2  C   LIG    1       -2.514  -0.408   2.027  0.00  0.00    +0.550 C 
ATOM      3  O   LIG    1       -1.802  -1.200   1.448  0.00  0.00    -0.530 OA
ENDROOT
BRANCH   2   4
ATOM      4  C   LIG    1       -2.938  -0.675   3.449  0.00  0.00    -0.050 C 
ATOM      5  C   LIG    1       -3.905  -1.835   3.691  0.00  0.00    +0.080 C 
ATOM      6  C   LIG    1       -2.438  -1.963   4.105  0.00  0.00    +0.040 C 
BRANCH   6   7
ATOM      7  C   LIG    1       -2.123  -1.917   5.578  0.00  0.00    -0.020 A 
ATOM      8  C   LIG    1       -3.114  -1.580   6.484  0.00  0.00    +0.020 A 
ATOM      9  C   LIG    1       -2.834  -1.541   7.834  0.00  0.00    +0.060 A 
ATOM     10  C   LIG    1       -1.545  -1.830   8.285  0.00  0.00    -0.030 A 
ATOM     11  C   LIG    1       -0.548  -2.164   7.365  0.00  0.00    +0.070 A 
ATOM     12  C   LIG    1       -0.844  -2.205   6.018  0.00  0.00    +0.030 A 
BRANCH  10  13
ATOM     13  C   LIG    1       -1.245  -1.785   9.685  0.00  0.00    +0.250 C 
ATOM     14  N   LIG    1       -1.008  -1.749  10.795  0.00  0.00    -0.410 NA
ENDBRANCH  10  13
ENDBRANCH   6   7
ENDBRANCH   2   4
BRANCH   1  15
ATOM     15  C   LIG    1       -3.785   1.670   2.100  0.00  0.00    +0.310 C 
BRANCH  15  17
ATOM     16  C   LIG    1       -6.030   1.120   2.888  0.00  0.00    +0.030 C 
ATOM     17  C   LIG    1       -5.230   1.311   1.868  0.00  0.00    -0.070 C 
ENDBRANCH  15  17
ENDBRANCH   1  15
BRANCH   1  18
ATOM     18  C   LIG    1       -2.513   0.972   0.019  0.00  0.00    +0.340 C 
BRANCH  18  19
ATOM     19  C   LIG    1       -1.222   1.748   0.017  0.00  0.00    -0.110 A 
ATOM     20  C   LIG    1       -0.013   1.076   0.008  0.00  0.00    +0.080 A 
ATOM     21  C   LIG    1        1.178   1.781   0.000  0.00  0.00    +0.020 A 
ATOM     22  C   LIG    1        1.167   3.160   0.007  0.00  0.00    +0.060 A 
ATOM     23  C   LIG    1       -0.050   3.845   0.023  0.00  0.00    -0.030 A 
ATOM     24  C   LIG    1       -1.248   3.127   0.031  0.00  0.00    +0.070 A 
BRANCH  23  25
ATOM     25  C   LIG    1       -0.070   5.277   0.031  0.00  0.00    +0.250 C 
ATOM     26  N   LIG    1       -0.085   6.413   0.037  0.00  0.00    -0.410 NA
ENDBRANCH  23  25
ENDBRANCH  18  19
ENDBRANCH   1  18
TORSDOF 8
