REMARK  Name = ZINCvU00000006vW.0
REMARK                            x       y       z     vdW  Elec       q    Type
REMARK                         _______ _______ _______ _____ _____    ______ ____
ROOT
ATOM      1  C   LIG    1        2.456   9.846   0.191  0.00  0.00    +0.360 A 
ATOM      2  N   LIG    1        1.216  10.273   0.169  0.00  0.00    -0.510 NA
ATOM      3  C   LIG    1        0.894  11.526   0.548  0.00  0.00    +0.090 A 
ATOM      4  C   LIG    1        1.895  12.400   0.964  0.00  0.00    -0.230 A 
ATOM      5  C   LIG    1        1.367  13.702   1.327  0.00  0.00    -0.030 A 
ATOM      6  C   LIG    1        0.060  13.824   1.202  0.00  0.00    -0.200 A 
ATOM      7  C   LIG    1       -0.711  15.079   1.519  0.00  0.00    +0.150 C 
ATOM      8  C   LIG    1        2.244  14.828   1.810  0.00  0.00    +0.120 C 
ATOM      9  C   LIG    1        3.240  11.922   0.976  0.00  0.00    +0.570 A 
ATOM     10  O   LIG    1        4.152  12.648   1.331  0.00  0.00    -0.500 OA
ATOM     11  S   LIG    1       -0.665  12.338   0.619  0.00  0.00    +0.200 S 
ATOM     12  N   LIG    1        3.483  10.655   0.589  0.00  0.00    -0.470 N 
ENDROOT
BRANCH  12  13
ATOM     13  C   LIG    1        4.796  10.164   0.593  0.00  0.00    +0.090 A 
ATOM     14  C   LIG    1        5.176   9.202   1.519  0.00  0.00    +0.030 A 
ATOM     15  C   LIG    1        6.469   8.716   1.516  0.00  0.00    +0.030 A 
ATOM     16  C   LIG    1        7.387   9.195   0.600  0.00  0.00    +0.030 A 
ATOM     17  C   LIG    1        7.013  10.158  -0.319  0.00  0.00    +0.030 A 
ATOM     18  C   LIG    1        5.720  10.643  -0.326  0.00  0.00    +0.050 A 
ENDBRANCH  12  13
BRANCH   1  19
ATOM     19  S   LIG    1        2.806   8.194  -0.312  0.00  0.00    +0.120 S 
BRANCH  19  20
ATOM     20  C   LIG    1        1.134   7.626  -0.711  0.00  0.00    +0.120 C 
BRANCH  20  23
ATOM     21  N   LIG    1        0.054   5.558  -1.533  0.00  0.00    -0.660 N 
ATOM     22  H   LIG    1       -0.787   6.040  -1.552  0.00  0.00    +0.410 HD
ATOM     23  C   LIG    1        1.188   6.195  -1.179  0.00  0.00    +0.530 C 
ATOM     24  O   LIG    1        2.252   5.615  -1.236  0.00  0.00    -0.500 OA
BRANCH  21  30
ATOM     25  C   LIG    1        2.526   1.715  -3.347  0.00  0.00    +0.090 C 
ATOM     26  C   LIG    1        1.276   2.312  -2.755  0.00  0.00    -0.070 A 
ATOM     27  C   LIG    1        0.163   1.519  -2.548  0.00  0.00    -0.010 A 
ATOM     28  C   LIG    1       -0.989   2.064  -2.009  0.00  0.00    +0.030 A 
ATOM     29  C   LIG    1       -1.026   3.402  -1.667  0.00  0.00    -0.120 A 
ATOM     30  C   LIG    1        0.091   4.201  -1.873  0.00  0.00    +0.140 A 
ATOM     31  C   LIG    1       -2.279   3.994  -1.075  0.00  0.00    +0.080 C 
ATOM     32  C   LIG    1        1.243   3.652  -2.419  0.00  0.00    +0.020 A 
ENDBRANCH  21  30
ENDBRANCH  20  23
ENDBRANCH  19  20
ENDBRANCH   1  19
TORSDOF 5
