REMARK  Name = ZINCpe000000XUmh.0
REMARK                            x       y       z     vdW  Elec       q    Type
REMARK                         _______ _______ _______ _____ _____    ______ ____
ROOT
ATOM      1  N   LIG    1       -8.942   4.560   2.730  0.00  0.00    -0.500 N 
ATOM      2  C   LIG    1       -8.613   5.989   2.630  0.00  0.00    +0.180 C 
ATOM      3  C   LIG    1       -8.239   6.323   1.182  0.00  0.00    +0.280 C 
ATOM      4  N   LIG    1       -7.171   5.408   0.752  0.00  0.00    -0.630 N 
ATOM      5  C   LIG    1       -7.375   3.963   0.942  0.00  0.00    +0.320 C 
ATOM      6  C   LIG    1       -6.039   5.879   0.193  0.00  0.00    +0.710 C 
ATOM      7  N   LIG    1       -5.830   7.208   0.114  0.00  0.00    -0.740 N 
ATOM      8  H   LIG    1       -6.524   7.826   0.391  0.00  0.00    +0.400 HD
ATOM      9  O   LIG    1       -5.207   5.106  -0.239  0.00  0.00    -0.590 OA
ATOM     10  C   LIG    1       -7.780   3.722   2.405  0.00  0.00    +0.180 C 
ENDROOT
BRANCH   1  17
ATOM     11  C   LIG    1      -11.572   3.489   2.903  0.00  0.00    +0.100 C 
ATOM     12  C   LIG    1      -10.724   3.724   4.127  0.00  0.00    -0.060 A 
ATOM     13  C   LIG    1      -11.216   3.414   5.379  0.00  0.00    +0.010 A 
ATOM     14  C   LIG    1      -10.441   3.635   6.503  0.00  0.00    +0.000 A 
ATOM     15  C   LIG    1       -9.169   4.163   6.376  0.00  0.00    +0.000 A 
ATOM     16  C   LIG    1       -8.669   4.471   5.126  0.00  0.00    -0.020 A 
ATOM     17  C   LIG    1       -9.445   4.250   3.995  0.00  0.00    +0.080 A 
ENDBRANCH   1  17
BRANCH   7  18
ATOM     18  C   LIG    1       -4.553   7.720  -0.391  0.00  0.00    +0.300 C 
BRANCH  18  19
ATOM     19  C   LIG    1       -4.576   9.249  -0.378  0.00  0.00    +0.140 C 
ATOM     20  C   LIG    1       -3.233   9.812  -0.909  0.00  0.00    +0.030 C 
ATOM     21  C   LIG    1       -3.678  11.212  -1.412  0.00  0.00    +0.030 C 
ATOM     22  C   LIG    1       -5.108  10.936  -1.924  0.00  0.00    +0.170 C 
ATOM     23  O   LIG    1       -5.574   9.741  -1.287  0.00  0.00    -0.340 OA
BRANCH  22  24
ATOM     24  C   LIG    1       -6.010  12.090  -1.568  0.00  0.00    +0.500 C 
ATOM     25  O   LIG    1       -6.928  11.925  -0.794  0.00  0.00    -0.520 OA
ATOM     26  N   LIG    1       -5.795  13.305  -2.111  0.00  0.00    -0.850 N 
ATOM     27  H   LIG    1       -5.058  13.438  -2.727  0.00  0.00    +0.400 HD
ATOM     28  H   LIG    1       -6.376  14.048  -1.882  0.00  0.00    +0.400 HD
ENDBRANCH  22  24
ENDBRANCH  18  19
ENDBRANCH   7  18
TORSDOF 4
