REMARK  Name = ZINCpe000000Y5Cs.0
REMARK                            x       y       z     vdW  Elec       q    Type
REMARK                         _______ _______ _______ _____ _____    ______ ____
ROOT
ATOM      1  N   LIG    1        7.631   0.599  -0.067  0.00  0.00    -0.670 N 
ATOM      2  H   LIG    1        8.111  -0.168   0.283  0.00  0.00    +0.420 HD
ATOM      3  C   LIG    1        8.312   1.652  -0.561  0.00  0.00    +0.500 C 
ATOM      4  O   LIG    1        7.717   2.649  -0.910  0.00  0.00    -0.480 OA
ENDROOT
BRANCH   1   8
ATOM      5  C   LIG    1        3.462   0.640  -0.043  0.00  0.00    +0.110 A 
ATOM      6  C   LIG    1        4.157   1.262  -1.072  0.00  0.00    +0.050 A 
ATOM      7  C   LIG    1        5.537   1.254  -1.077  0.00  0.00    +0.050 A 
ATOM      8  C   LIG    1        6.231   0.612  -0.059  0.00  0.00    +0.150 A 
ATOM      9  C   LIG    1        5.536  -0.016   0.966  0.00  0.00    +0.020 A 
ATOM     10  C   LIG    1        4.156  -0.002   0.974  0.00  0.00    +0.050 A 
BRANCH   5  14
ATOM     11  C   LIG    1       -1.253   2.173  -0.235  0.00  0.00    +0.140 C 
ATOM     12  C   LIG    1       -0.018   1.317  -0.116  0.00  0.00    +0.000 A 
ATOM     13  C   LIG    1        1.254   1.753  -0.187  0.00  0.00    -0.020 A 
ATOM     14  N   LIG    1        2.059   0.653  -0.035  0.00  0.00    -0.420 N 
ATOM     15  C   LIG    1        1.242  -0.419   0.125  0.00  0.00    +0.400 A 
ATOM     16  C   LIG    1        1.706   3.175  -0.396  0.00  0.00    +0.150 C 
ATOM     17  N   LIG    1        0.004  -0.010   0.075  0.00  0.00    -0.480 NA
ENDBRANCH   5  14
ENDBRANCH   1   8
BRANCH   3  18
ATOM     18  C   LIG    1        9.813   1.589  -0.680  0.00  0.00    +0.400 C 
BRANCH  18  19
ATOM     19  N   LIG    1       10.312   2.848  -1.240  0.00  0.00    -0.300 N 
ATOM     20  C   LIG    1       11.245   3.642  -0.682  0.00  0.00    +0.430 A 
ATOM     21  N   LIG    1       11.420   4.666  -1.477  0.00  0.00    -0.480 NA
ATOM     22  C   LIG    1       10.593   4.504  -2.526  0.00  0.00    +0.140 A 
ATOM     23  N   LIG    1        9.934   3.379  -2.351  0.00  0.00    -0.220 NA
BRANCH  22  24
ATOM     24  C   LIG    1       10.455   5.423  -3.676  0.00  0.00    +0.620 C 
ATOM     25  O   LIG    1        9.670   5.167  -4.568  0.00  0.00    -0.520 OA
ATOM     26  N   LIG    1       11.199   6.545  -3.735  0.00  0.00    -0.830 N 
ATOM     27  H   LIG    1       11.108   7.149  -4.489  0.00  0.00    +0.410 HD
ATOM     28  H   LIG    1       11.825   6.750  -3.023  0.00  0.00    +0.410 HD
ENDBRANCH  22  24
ENDBRANCH  18  19
ENDBRANCH   3  18
TORSDOF 5
