REMARK  Name = ZINCvU00000004M5.0
REMARK                            x       y       z     vdW  Elec       q    Type
REMARK                         _______ _______ _______ _____ _____    ______ ____
ROOT
ATOM      1  N   LIG    1        6.589   4.503  -2.127  0.00  0.00    -0.480 N 
ATOM      2  C   LIG    1        7.713   3.708  -2.235  0.00  0.00    +0.060 A 
ATOM      3  C   LIG    1        8.993   3.906  -2.735  0.00  0.00    +0.010 A 
ATOM      4  C   LIG    1        9.909   2.877  -2.693  0.00  0.00    +0.030 A 
ATOM      5  C   LIG    1        9.562   1.647  -2.153  0.00  0.00    +0.000 A 
ATOM      6  C   LIG    1        8.307   1.434  -1.655  0.00  0.00    +0.070 A 
ATOM      7  C   LIG    1        7.361   2.462  -1.688  0.00  0.00    +0.050 A 
ATOM      8  N   LIG    1        6.070   2.561  -1.279  0.00  0.00    -0.480 NA
ATOM      9  C   LIG    1        5.618   3.752  -1.541  0.00  0.00    +0.290 A 
ENDROOT
BRANCH   9  10
ATOM     10  C   LIG    1        4.223   4.232  -1.234  0.00  0.00    +0.080 C 
ATOM     11  C   LIG    1        3.861   3.973   0.247  0.00  0.00    +0.100 C 
ATOM     12  C   LIG    1        2.396   3.597   0.208  0.00  0.00    +0.530 C 
ATOM     13  N   LIG    1        2.036   3.268  -1.044  0.00  0.00    -0.580 N 
ATOM     14  O   LIG    1        1.655   3.591   1.169  0.00  0.00    -0.510 OA
ATOM     15  C   LIG    1        3.169   3.376  -1.971  0.00  0.00    +0.300 C 
BRANCH  13  16
ATOM     16  C   LIG    1        0.744   2.876  -1.418  0.00  0.00    +0.110 A 
ATOM     17  C   LIG    1        0.388   1.536  -1.389  0.00  0.00    +0.060 A 
ATOM     18  C   LIG    1       -0.887   1.152  -1.758  0.00  0.00    +0.020 A 
ATOM     19  C   LIG    1       -1.809   2.103  -2.156  0.00  0.00    +0.060 A 
ATOM     20  C   LIG    1       -1.459   3.440  -2.186  0.00  0.00    -0.010 A 
ATOM     21  C   LIG    1       -0.185   3.831  -1.818  0.00  0.00    +0.110 A 
ATOM     22  F   LIG    1        0.158   5.138  -1.848  0.00  0.00    -0.130 F 
ENDBRANCH  13  16
ENDBRANCH   9  10
BRANCH   1  23
ATOM     23  C   LIG    1        6.465   5.896  -2.563  0.00  0.00    +0.350 C 
BRANCH  23  29
ATOM     24  C   LIG    1        5.634   7.852   1.967  0.00  0.00    +0.090 C 
ATOM     25  C   LIG    1        6.482   7.748   0.726  0.00  0.00    -0.090 A 
ATOM     26  C   LIG    1        7.641   8.493   0.617  0.00  0.00    +0.030 A 
ATOM     27  C   LIG    1        8.420   8.398  -0.521  0.00  0.00    +0.020 A 
ATOM     28  C   LIG    1        8.042   7.554  -1.549  0.00  0.00    -0.070 A 
ATOM     29  C   LIG    1        6.880   6.812  -1.442  0.00  0.00    -0.120 A 
ATOM     30  C   LIG    1        8.893   7.446  -2.787  0.00  0.00    +0.090 C 
ATOM     31  C   LIG    1        6.102   6.907  -0.303  0.00  0.00    +0.020 A 
ENDBRANCH  23  29
ENDBRANCH   1  23
TORSDOF 4
