REMARK  Name = ZINCvU00000005Am.0
REMARK                            x       y       z     vdW  Elec       q    Type
REMARK                         _______ _______ _______ _____ _____    ______ ____
ROOT
ATOM      1  C   LIG    1        4.503   6.101   1.034  0.00  0.00    +0.460 C 
ATOM      2  O   LIG    1        4.944   5.046   0.642  0.00  0.00    -0.490 OA
ENDROOT
BRANCH   1   3
ATOM      3  O   LIG    1        3.176   6.289   1.105  0.00  0.00    -0.330 OA
BRANCH   3   5
ATOM      4  C   LIG    1        2.035   4.291   1.904  0.00  0.00    +0.070 C 
ATOM      5  C   LIG    1        2.330   5.181   0.695  0.00  0.00    +0.180 C 
BRANCH   5   6
ATOM      6  C   LIG    1        1.037   5.717   0.138  0.00  0.00    +0.520 C 
ATOM      7  N   LIG    1        0.158   4.880  -0.449  0.00  0.00    -0.550 N 
ATOM      8  C   LIG    1        0.502   3.467  -0.665  0.00  0.00    +0.270 C 
ATOM      9  C   LIG    1        0.070   3.092  -2.088  0.00  0.00    +0.020 C 
ATOM     10  C   LIG    1       -1.449   3.227  -2.195  0.00  0.00    +0.080 C 
ATOM     11  C   LIG    1       -1.895   4.578  -1.702  0.00  0.00    -0.110 A 
ATOM     12  C   LIG    1       -3.132   5.060  -2.095  0.00  0.00    +0.030 A 
ATOM     13  C   LIG    1       -3.569   6.296  -1.660  0.00  0.00    -0.020 A 
ATOM     14  C   LIG    1       -2.777   7.057  -0.821  0.00  0.00    +0.030 A 
ATOM     15  C   LIG    1       -1.543   6.583  -0.422  0.00  0.00    +0.020 A 
ATOM     16  C   LIG    1       -1.099   5.341  -0.862  0.00  0.00    +0.150 A 
ATOM     17  O   LIG    1        0.786   6.901   0.216  0.00  0.00    -0.490 OA
ENDBRANCH   5   6
ENDBRANCH   3   5
ENDBRANCH   1   3
BRANCH   1  18
ATOM     18  C   LIG    1        5.443   7.206   1.442  0.00  0.00    +0.200 C 
BRANCH  18  19
ATOM     19  C   LIG    1        6.867   6.743   1.269  0.00  0.00    -0.170 A 
ATOM     20  C   LIG    1        7.663   6.212   2.211  0.00  0.00    +0.230 A 
ATOM     21  O   LIG    1        8.863   5.919   1.683  0.00  0.00    -0.170 OA
ATOM     22  C   LIG    1        8.909   6.253   0.377  0.00  0.00    +0.040 A 
ATOM     23  C   LIG    1        9.909   6.157  -0.598  0.00  0.00    +0.040 A 
ATOM     24  C   LIG    1        9.702   6.573  -1.872  0.00  0.00    +0.060 A 
ATOM     25  C   LIG    1        8.467   7.121  -2.269  0.00  0.00    -0.060 A 
ATOM     26  C   LIG    1        8.249   7.552  -3.587  0.00  0.00    +0.030 A 
ATOM     27  C   LIG    1        7.041   8.076  -3.935  0.00  0.00    +0.010 A 
ATOM     28  C   LIG    1        6.015   8.192  -3.002  0.00  0.00    +0.020 A 
ATOM     29  C   LIG    1        6.193   7.784  -1.713  0.00  0.00    +0.010 A 
ATOM     30  C   LIG    1        7.421   7.240  -1.321  0.00  0.00    -0.000 A 
ATOM     31  C   LIG    1        7.662   6.788   0.043  0.00  0.00    -0.110 A 
ENDBRANCH  18  19
ENDBRANCH   1  18
TORSDOF 5
