REMARK  Name = ZINCnE000001OM2N.0
REMARK                            x       y       z     vdW  Elec       q    Type
REMARK                         _______ _______ _______ _____ _____    ______ ____
ROOT
ATOM      1  C   LIG    1        5.686  -0.713   1.390  0.00  0.00    +0.620 C 
ATOM      2  N   LIG    1        4.663  -0.026   0.843  0.00  0.00    -0.710 N 
ATOM      3  H   LIG    1        4.556   0.919   1.034  0.00  0.00    +0.420 HD
ATOM      4  O   LIG    1        5.819  -1.898   1.151  0.00  0.00    -0.520 OA
ENDROOT
BRANCH   1   9
ATOM      5  C   LIG    1        9.588   0.233   4.483  0.00  0.00    +0.120 C 
ATOM      6  C   LIG    1        8.354   0.393   3.634  0.00  0.00    -0.180 A 
ATOM      7  C   LIG    1        7.633   1.550   3.440  0.00  0.00    +0.000 A 
ATOM      8  O   LIG    1        6.608   1.273   2.612  0.00  0.00    -0.140 OA
ATOM      9  C   LIG    1        6.643  -0.028   2.277  0.00  0.00    -0.120 A 
ATOM     10  C   LIG    1        7.717  -0.608   2.890  0.00  0.00    +0.040 A 
BRANCH   7  11
ATOM     11  C   LIG    1        7.935   2.862   4.030  0.00  0.00    +0.560 C 
ATOM     12  O   LIG    1        7.218   3.823   3.783  0.00  0.00    -0.660 OA
ATOM     13  O   LIG    1        8.902   2.993   4.768  0.00  0.00    -0.650 OA
ENDBRANCH   7  11
ENDBRANCH   1   9
BRANCH   2  14
ATOM     14  C   LIG    1        3.711  -0.707  -0.038  0.00  0.00    +0.290 C 
BRANCH  14  15
ATOM     15  C   LIG    1        2.396   0.029  -0.022  0.00  0.00    -0.110 A 
ATOM     16  C   LIG    1        1.208  -0.679  -0.013  0.00  0.00    +0.040 A 
ATOM     17  C   LIG    1        0.002  -0.004   0.002  0.00  0.00    +0.010 A 
ATOM     18  C   LIG    1       -0.017   1.378   0.010  0.00  0.00    +0.010 A 
ATOM     19  C   LIG    1        1.171   2.086   0.002  0.00  0.00    +0.010 A 
ATOM     20  C   LIG    1        2.377   1.411  -0.015  0.00  0.00    +0.030 A 
ENDBRANCH  14  15
BRANCH  14  21
ATOM     21  C   LIG    1        4.264  -0.731  -1.464  0.00  0.00    +0.280 C 
ATOM     22  F   LIG    1        4.458   0.581  -1.911  0.00  0.00    -0.190 F 
ATOM     23  F   LIG    1        3.356  -1.381  -2.306  0.00  0.00    -0.190 F 
ATOM     24  C   LIG    1        5.600  -1.478  -1.481  0.00  0.00    +0.080 C 
ENDBRANCH  14  21
ENDBRANCH   2  14
TORSDOF 5
