REMARK  Name = ZINCqH0000003Hu5.0
REMARK                            x       y       z     vdW  Elec       q    Type
REMARK                         _______ _______ _______ _____ _____    ______ ____
ROOT
ATOM      1  C   LIG    1        6.142  -0.680  -0.061  0.00  0.00    +0.340 C 
ENDROOT
BRANCH   1  11
ATOM      2  C   LIG    1        7.651   0.935   1.117  0.00  0.00    +0.120 A 
ATOM      3  C   LIG    1        8.693   1.852   1.109  0.00  0.00    -0.030 A 
ATOM      4  C   LIG    1        9.332   2.156  -0.073  0.00  0.00    -0.130 A 
ATOM      5  C   LIG    1        8.948   1.555  -1.265  0.00  0.00    +0.070 A 
ATOM      6  O   LIG    1        9.697   2.007  -2.309  0.00  0.00    -0.300 OA
ATOM      7  C   LIG    1       10.904   2.603  -1.803  0.00  0.00    +0.170 C 
ATOM      8  C   LIG    1       11.337   3.779  -2.681  0.00  0.00    +0.070 C 
ATOM      9  C   LIG    1        7.906   0.631  -1.249  0.00  0.00    +0.060 A 
ATOM     10  C   LIG    1       10.482   3.090  -0.397  0.00  0.00    +0.080 C 
ATOM     11  C   LIG    1        7.267   0.323  -0.067  0.00  0.00    -0.110 A 
BRANCH   2  12
ATOM     12  O   LIG    1        7.014   0.636   2.280  0.00  0.00    -0.300 OA
BRANCH  12  14
ATOM     13  C   LIG    1        6.635   0.844   4.658  0.00  0.00    +0.070 C 
ATOM     14  C   LIG    1        7.465   1.307   3.458  0.00  0.00    +0.170 C 
ENDBRANCH  12  14
ENDBRANCH   2  12
ENDBRANCH   1  11
BRANCH   1  15
ATOM     15  N   LIG    1        4.858   0.026  -0.045  0.00  0.00    -0.720 N 
ATOM     16  H   LIG    1        4.838   0.996  -0.039  0.00  0.00    +0.400 HD
ATOM     17  C   LIG    1        3.705  -0.672  -0.038  0.00  0.00    +0.560 C 
ATOM     18  O   LIG    1        3.730  -1.888  -0.045  0.00  0.00    -0.520 OA
BRANCH  17  19
ATOM     19  C   LIG    1        2.413   0.039  -0.021  0.00  0.00    -0.170 A 
ATOM     20  C   LIG    1        2.379   1.435  -0.013  0.00  0.00    +0.080 A 
ATOM     21  C   LIG    1        1.168   2.094   0.002  0.00  0.00    -0.040 A 
ATOM     22  C   LIG    1       -0.017   1.377   0.010  0.00  0.00    +0.080 A 
ATOM     23  C   LIG    1        0.002  -0.004   0.002  0.00  0.00    -0.090 A 
ATOM     24  C   LIG    1        1.211  -0.683  -0.013  0.00  0.00    +0.190 A 
BRANCH  24  25
ATOM     25  O   LIG    1        1.231  -2.039  -0.020  0.00  0.00    -0.280 OA
BRANCH  25  26
ATOM     26  C   LIG    1       -0.032  -2.707  -0.011  0.00  0.00    +0.170 C 
ATOM     27  C   LIG    1        0.190  -4.220  -0.021  0.00  0.00    +0.070 C 
ENDBRANCH  25  26
ENDBRANCH  24  25
ENDBRANCH  17  19
ENDBRANCH   1  15
TORSDOF 7
