REMARK  Name = ZINCrH000004pzuY.0
REMARK                            x       y       z     vdW  Elec       q    Type
REMARK                         _______ _______ _______ _____ _____    ______ ____
ROOT
ATOM      1  S   LIG    1        3.472  -2.617   0.869  0.00  0.00    +0.120 S 
ENDROOT
BRANCH   1   2
ATOM      2  C   LIG    1        5.140  -3.167   1.010  0.00  0.00    +0.180 A 
ATOM      3  N   LIG    1        6.215  -2.489   0.678  0.00  0.00    -0.280 NA
ATOM      4  N   LIG    1        7.268  -3.188   0.912  0.00  0.00    -0.250 NA
ATOM      5  C   LIG    1        6.929  -4.356   1.407  0.00  0.00    +0.190 A 
ATOM      6  N   LIG    1        5.556  -4.376   1.491  0.00  0.00    -0.300 N 
BRANCH   5   7
ATOM      7  C   LIG    1        7.850  -5.441   1.806  0.00  0.00    -0.030 A 
ATOM      8  C   LIG    1        7.360  -6.729   2.027  0.00  0.00    +0.040 A 
ATOM      9  C   LIG    1        8.225  -7.739   2.394  0.00  0.00    +0.010 A 
ATOM     10  C   LIG    1        9.576  -7.475   2.553  0.00  0.00    +0.120 A 
ATOM     11  C   LIG    1       10.067  -6.197   2.340  0.00  0.00    +0.010 A 
ATOM     12  F   LIG    1       10.417  -8.467   2.918  0.00  0.00    -0.130 F 
ATOM     13  C   LIG    1        9.212  -5.180   1.968  0.00  0.00    +0.110 A 
ENDBRANCH   5   7
BRANCH   6  14
ATOM     14  N   LIG    1        4.773  -5.394   1.956  0.00  0.00    -0.590 N 
ATOM     15  H   LIG    1        5.229  -5.888   2.708  0.00  0.00    +0.380 HD
ATOM     16  H   LIG    1        4.520  -6.025   1.210  0.00  0.00    +0.370 HD
ENDBRANCH   6  14
ENDBRANCH   1   2
BRANCH   1  18
ATOM     17  C   LIG    1        4.360  -1.092  -1.216  0.00  0.00    +0.080 C 
ATOM     18  C   LIG    1        3.743  -0.966   0.178  0.00  0.00    +0.010 C 
BRANCH  18  19
ATOM     19  C   LIG    1        2.426  -0.240   0.080  0.00  0.00    +0.540 C 
ATOM     20  N   LIG    1        2.403   1.104  -0.015  0.00  0.00    -0.660 N 
ATOM     21  H   LIG    1        3.233   1.598  -0.101  0.00  0.00    +0.420 HD
ATOM     22  O   LIG    1        1.387  -0.866   0.087  0.00  0.00    -0.500 OA
BRANCH  20  23
ATOM     23  C   LIG    1        1.180   1.787   0.011  0.00  0.00    +0.150 A 
ATOM     24  C   LIG    1        0.076   1.213   0.627  0.00  0.00    +0.080 A 
ATOM     25  C   LIG    1       -1.130   1.886   0.647  0.00  0.00    +0.030 A 
ATOM     26  C   LIG    1       -1.236   3.138   0.064  0.00  0.00    +0.100 A 
ATOM     27  C   LIG    1       -0.136   3.713  -0.551  0.00  0.00    +0.030 A 
ATOM     28  F   LIG    1       -2.415   3.796   0.090  0.00  0.00    -0.130 F 
ATOM     29  C   LIG    1        1.071   3.041  -0.578  0.00  0.00    -0.040 A 
ATOM     30 CL   LIG    1        2.449   3.761  -1.349  0.00  0.00    -0.050 Cl
ENDBRANCH  20  23
ENDBRANCH  18  19
ENDBRANCH   1  18
TORSDOF 6
