REMARK  Name = ZINCqH0000008Hll.0
REMARK                            x       y       z     vdW  Elec       q    Type
REMARK                         _______ _______ _______ _____ _____    ______ ____
ROOT
ATOM      1  C   LIG    1       -4.877   4.452   1.458  0.00  0.00    -0.090 A 
ATOM      2  C   LIG    1       -3.620   4.306   0.870  0.00  0.00    +0.020 A 
ATOM      3  C   LIG    1       -2.655   3.531   1.493  0.00  0.00    +0.190 A 
ATOM      4  C   LIG    1       -2.941   2.897   2.697  0.00  0.00    +0.050 A 
ATOM      5  C   LIG    1       -4.184   3.046   3.283  0.00  0.00    +0.070 A 
ATOM      6  C   LIG    1       -5.154   3.816   2.671  0.00  0.00    -0.020 A 
ATOM      7 CL   LIG    1       -6.715   3.993   3.409  0.00  0.00    -0.040 Cl
ENDROOT
BRANCH   1  12
ATOM      8  C   LIG    1       -7.610   3.757  -2.364  0.00  0.00    +0.060 C 
ATOM      9  C   LIG    1       -6.571   4.872  -2.499  0.00  0.00    -0.020 C 
ATOM     10  C   LIG    1       -5.297   4.658  -1.664  0.00  0.00    +0.270 C 
ATOM     11  N   LIG    1       -5.985   5.319  -0.545  0.00  0.00    -0.640 N 
ATOM     12  C   LIG    1       -5.912   5.276   0.800  0.00  0.00    +0.580 C 
ATOM     13  O   LIG    1       -6.698   5.916   1.472  0.00  0.00    -0.490 OA
ATOM     14  C   LIG    1       -6.784   6.051  -1.540  0.00  0.00    +0.280 C 
BRANCH  14  15
ATOM     15  C   LIG    1       -8.222   6.242  -1.132  0.00  0.00    -0.100 A 
ATOM     16  C   LIG    1       -8.785   5.417  -0.176  0.00  0.00    +0.050 A 
ATOM     17  C   LIG    1      -10.103   5.596   0.201  0.00  0.00    +0.000 A 
ATOM     18  C   LIG    1      -10.860   6.593  -0.384  0.00  0.00    +0.010 A 
ATOM     19  C   LIG    1      -10.299   7.414  -1.344  0.00  0.00    -0.010 A 
ATOM     20  C   LIG    1       -8.980   7.239  -1.718  0.00  0.00    +0.010 A 
ENDBRANCH  14  15
ENDBRANCH   1  12
BRANCH   3  21
ATOM     21  N   LIG    1       -1.392   3.381   0.907  0.00  0.00    -0.570 N 
ATOM     22  C   LIG    1       -1.003   3.888  -0.421  0.00  0.00    +0.270 C 
ATOM     23  C   LIG    1        0.469   3.453  -0.561  0.00  0.00    +0.270 C 
ATOM     24  N   LIG    1        0.752   2.747   0.698  0.00  0.00    -0.730 N 
ATOM     25  H   LIG    1        1.600   2.340   0.936  0.00  0.00    +0.440 HD
ATOM     26  C   LIG    1       -0.348   2.754   1.463  0.00  0.00    +0.700 C 
ATOM     27  O   LIG    1       -0.394   2.237   2.562  0.00  0.00    -0.560 OA
ENDBRANCH   3  21
TORSDOF 3
