REMARK  Name = ZINCrD00000hQ6kL.0
REMARK                            x       y       z     vdW  Elec       q    Type
REMARK                         _______ _______ _______ _____ _____    ______ ____
ROOT
ATOM      1  C   LIG    1        0.997   6.974   1.258  0.00  0.00    +0.140 C 
ATOM      2  N   LIG    1        0.610   6.933   0.031  0.00  0.00    -0.210 NA
ATOM      3  N   LIG    1        1.422   6.158  -0.800  0.00  0.00    -0.850 N 
ATOM      4  C   LIG    1        2.518   5.595   0.006  0.00  0.00    +0.280 C 
ATOM      5  C   LIG    1        2.248   6.142   1.421  0.00  0.00    +0.100 C 
ENDROOT
BRANCH   1   9
ATOM      6  C   LIG    1       -0.943   9.117   4.367  0.00  0.00    -0.060 A 
ATOM      7  C   LIG    1       -1.458   9.150   3.083  0.00  0.00    +0.010 A 
ATOM      8  C   LIG    1       -0.832   8.456   2.068  0.00  0.00    +0.050 A 
ATOM      9  C   LIG    1        0.323   7.719   2.338  0.00  0.00    -0.040 A 
ATOM     10  C   LIG    1        0.834   7.686   3.638  0.00  0.00    +0.050 A 
ATOM     11  C   LIG    1        0.201   8.389   4.642  0.00  0.00    +0.010 A 
BRANCH   6  13
ATOM     12  C   LIG    1       -2.673   8.976   6.138  0.00  0.00    +0.030 C 
ATOM     13  C   LIG    1       -1.632   9.877   5.471  0.00  0.00    +0.050 C 
ENDBRANCH   6  13
ENDBRANCH   1   9
BRANCH   4  14
ATOM     14  C   LIG    1        2.462   4.089  -0.001  0.00  0.00    -0.040 A 
ATOM     15  C   LIG    1        1.240   3.445   0.003  0.00  0.00    -0.060 A 
ATOM     16  C   LIG    1        1.185   2.058   0.002  0.00  0.00    +0.170 A 
ATOM     17  C   LIG    1        2.358   1.320  -0.013  0.00  0.00    -0.150 A 
ATOM     18  C   LIG    1        3.583   1.969  -0.022  0.00  0.00    +0.170 A 
ATOM     19  C   LIG    1        3.632   3.356  -0.016  0.00  0.00    -0.020 A 
BRANCH  18  20
ATOM     20  O   LIG    1        4.735   1.247  -0.037  0.00  0.00    -0.310 OA
ATOM     21  C   LIG    1        4.609  -0.176  -0.044  0.00  0.00    +0.250 C 
ENDBRANCH  18  20
BRANCH  16  22
ATOM     22  O   LIG    1       -0.017   1.425   0.010  0.00  0.00    -0.310 OA
ATOM     23  C   LIG    1        0.002  -0.004   0.002  0.00  0.00    +0.250 C 
ENDBRANCH  16  22
ENDBRANCH   4  14
BRANCH   3  24
ATOM     24  S   LIG    1        1.193   5.911  -2.421  0.00  0.00    +2.630 S 
ATOM     25  O   LIG    1        2.471   5.514  -2.899  0.00  0.00    -0.940 OA
ATOM     26  O   LIG    1        0.580   7.109  -2.875  0.00  0.00    -0.930 OA
ATOM     27  C   LIG    1        0.024   4.526  -2.507  0.00  0.00    -0.270 C 
ENDBRANCH   3  24
TORSDOF 6
