REMARK  Name = ZINCpe00000VVGqy.0
REMARK                            x       y       z     vdW  Elec       q    Type
REMARK                         _______ _______ _______ _____ _____    ______ ____
ROOT
ATOM      1  N   LIG    1        2.459  -1.220  -0.028  0.00  0.00    -0.620 N 
ATOM      2  H   LIG    1        3.428  -1.171  -0.037  0.00  0.00    +0.440 HD
ATOM      3  C   LIG    1        1.845  -2.420  -0.029  0.00  0.00    +0.490 C 
ATOM      4  O   LIG    1        0.634  -2.482  -0.018  0.00  0.00    -0.490 OA
ENDROOT
BRANCH   1   6
ATOM      5  C   LIG    1        2.229   1.211  -0.013  0.00  0.00    -0.240 A 
ATOM      6  C   LIG    1        1.706  -0.056  -0.015  0.00  0.00    +0.080 A 
ATOM      7  S   LIG    1        0.002  -0.004   0.002  0.00  0.00    +0.300 S 
ATOM      8  C   LIG    1       -0.022   1.750   0.012  0.00  0.00    -0.110 A 
ATOM      9  C   LIG    1        1.211   2.238   0.003  0.00  0.00    +0.060 A 
BRANCH   5  13
ATOM     10  N   LIG    1        4.103   2.770  -0.021  0.00  0.00    -0.840 N 
ATOM     11  H   LIG    1        5.054   2.958  -0.029  0.00  0.00    +0.410 HD
ATOM     12  H   LIG    1        3.465   3.500  -0.012  0.00  0.00    +0.400 HD
ATOM     13  C   LIG    1        3.667   1.494  -0.024  0.00  0.00    +0.600 C 
ATOM     14  O   LIG    1        4.468   0.578  -0.036  0.00  0.00    -0.560 OA
ENDBRANCH   5  13
ENDBRANCH   1   6
BRANCH   3  15
ATOM     15  C   LIG    1        2.663  -3.685  -0.044  0.00  0.00    +0.450 C 
BRANCH  15  16
ATOM     16  N   LIG    1        1.769  -4.846  -0.042  0.00  0.00    -0.460 N 
ATOM     17  N   LIG    1        1.274  -5.508   1.088  0.00  0.00    +0.040 NA
ATOM     18  N   LIG    1        0.548  -6.442   0.729  0.00  0.00    +0.050 NA
ATOM     19  N   LIG    1        0.500  -6.481  -0.670  0.00  0.00    -0.420 N 
ATOM     20  C   LIG    1        1.267  -5.469  -1.130  0.00  0.00    +0.660 A 
ATOM     21  O   LIG    1        1.469  -5.178  -2.295  0.00  0.00    -0.510 OA
BRANCH  19  22
ATOM     22  C   LIG    1       -0.217  -7.399  -1.450  0.00  0.00    +0.160 A 
ATOM     23  C   LIG    1       -1.126  -6.946  -2.396  0.00  0.00    +0.050 A 
ATOM     24  C   LIG    1       -1.829  -7.852  -3.166  0.00  0.00    +0.040 A 
ATOM     25  C   LIG    1       -1.634  -9.210  -2.990  0.00  0.00    +0.050 A 
ATOM     26  C   LIG    1       -0.732  -9.665  -2.045  0.00  0.00    +0.050 A 
ATOM     27  C   LIG    1       -0.023  -8.763  -1.274  0.00  0.00    -0.020 A 
ATOM     28 CL   LIG    1        1.108  -9.335  -0.088  0.00  0.00    -0.050 Cl
ENDBRANCH  19  22
ENDBRANCH  15  16
ENDBRANCH   3  15
TORSDOF 5
