REMARK  Name = ZINCtV00000L6jOr.0
REMARK                            x       y       z     vdW  Elec       q    Type
REMARK                         _______ _______ _______ _____ _____    ______ ____
ROOT
ATOM      1  S   LIG    1       -2.768   0.703   1.735  0.00  0.00    +0.030 S 
ENDROOT
BRANCH   1   2
ATOM      2  C   LIG    1       -4.414   0.145   1.445  0.00  0.00    +0.150 A 
ATOM      3  N   LIG    1       -4.973  -0.063   0.276  0.00  0.00    -0.280 NA
ATOM      4  N   LIG    1       -6.182  -0.469   0.436  0.00  0.00    -0.270 NA
ATOM      5  C   LIG    1       -6.466  -0.537   1.706  0.00  0.00    +0.200 A 
ATOM      6  N   LIG    1       -5.351  -0.148   2.395  0.00  0.00    -0.430 N 
BRANCH   6   7
ATOM      7  C   LIG    1       -5.193  -0.064   3.849  0.00  0.00    +0.200 C 
ATOM      8  C   LIG    1       -4.018   0.755   4.386  0.00  0.00    +0.070 C 
ATOM      9  C   LIG    1       -3.988  -0.773   4.471  0.00  0.00    +0.060 C 
ENDBRANCH   6   7
BRANCH   5  10
ATOM     10  C   LIG    1       -7.782  -0.964   2.305  0.00  0.00    +0.260 C 
BRANCH  10  11
ATOM     11  C   LIG    1       -8.671   0.241   2.475  0.00  0.00    -0.190 A 
ATOM     12  C   LIG    1       -9.525   0.702   1.560  0.00  0.00    +0.040 A 
ATOM     13  C   LIG    1      -10.240   1.824   1.943  0.00  0.00    +0.010 A 
ATOM     14  C   LIG    1       -9.960   2.280   3.165  0.00  0.00    -0.030 A 
ATOM     15  S   LIG    1       -8.736   1.259   3.908  0.00  0.00    +0.090 S 
ENDBRANCH  10  11
ENDBRANCH   5  10
ENDBRANCH   1   2
BRANCH   1  16
ATOM     16  C   LIG    1       -2.184   0.860   0.029  0.00  0.00    +0.150 C 
BRANCH  16  23
ATOM     17  C   LIG    1        4.983   4.241  -0.005  0.00  0.00    +0.100 C 
ATOM     18  C   LIG    1        3.536   3.817  -0.001  0.00  0.00    -0.060 A 
ATOM     19  C   LIG    1        3.227   2.492   0.022  0.00  0.00    -0.060 A 
ATOM     20  C   LIG    1        1.880   2.091   0.026  0.00  0.00    +0.150 A 
ATOM     21  N   LIG    1        1.546   0.796   0.050  0.00  0.00    -0.460 NA
ATOM     22  C   LIG    1        0.290   0.416   0.054  0.00  0.00    +0.220 A 
ATOM     23  C   LIG    1       -0.755   1.339   0.029  0.00  0.00    -0.120 A 
ATOM     24  C   LIG    1       -0.483   2.677   0.009  0.00  0.00    +0.130 A 
ATOM     25 CL   LIG    1       -0.080  -1.280   0.085  0.00  0.00    -0.020 Cl
ATOM     26  C   LIG    1        0.866   3.080   0.005  0.00  0.00    -0.100 A 
ATOM     27  C   LIG    1        1.222   4.438  -0.019  0.00  0.00    +0.040 A 
ATOM     28  C   LIG    1        4.324   1.460   0.045  0.00  0.00    +0.110 C 
ATOM     29  C   LIG    1        2.538   4.789  -0.022  0.00  0.00    +0.030 A 
ENDBRANCH  16  23
ENDBRANCH   1  16
TORSDOF 6
