REMARK  Name = ZINCvU0000000Iqx.0
REMARK                            x       y       z     vdW  Elec       q    Type
REMARK                         _______ _______ _______ _____ _____    ______ ____
ROOT
ATOM      1  C   LIG    1       -0.494   0.302  -0.976  0.00  0.00    -0.690 A 
ATOM      2  C   LIG    1       -1.818   0.173  -1.360  0.00  0.00    +0.170 A 
ATOM      3  C   LIG    1       -2.426   1.163  -2.110  0.00  0.00    +0.030 A 
ATOM      4  C   LIG    1       -1.712   2.283  -2.491  0.00  0.00    +0.070 A 
ATOM      5  C   LIG    1       -0.374   2.416  -2.111  0.00  0.00    -0.150 A 
ATOM      6 CL   LIG    1       -2.475   3.520  -3.439  0.00  0.00    -0.010 Cl
ATOM      7  C   LIG    1        0.231   1.415  -1.349  0.00  0.00    +0.170 A 
ENDROOT
BRANCH   5   8
ATOM      8  C   LIG    1        0.397   3.610  -2.514  0.00  0.00    +0.550 C 
ATOM      9  N   LIG    1        1.687   3.736  -2.145  0.00  0.00    -0.720 N 
ATOM     10  H   LIG    1        2.109   3.042  -1.615  0.00  0.00    +0.400 HD
ATOM     11  O   LIG    1       -0.133   4.480  -3.177  0.00  0.00    -0.510 OA
BRANCH   9  12
ATOM     12  C   LIG    1        2.451   4.920  -2.544  0.00  0.00    +0.260 C 
BRANCH  12  13
ATOM     13  C   LIG    1        3.877   4.814  -2.001  0.00  0.00    -0.020 C 
ATOM     14  C   LIG    1        3.844   4.850  -0.471  0.00  0.00    +0.010 C 
ATOM     15  C   LIG    1        5.270   4.744   0.072  0.00  0.00    +0.000 C 
ATOM     16  C   LIG    1        6.103   5.918  -0.448  0.00  0.00    +0.000 C 
ATOM     17  C   LIG    1        6.136   5.881  -1.977  0.00  0.00    +0.000 C 
ATOM     18  C   LIG    1        4.710   5.988  -2.521  0.00  0.00    +0.030 C 
ENDBRANCH  12  13
ENDBRANCH   9  12
ENDBRANCH   5   8
BRANCH   1  19
ATOM     19  S   LIG    1        0.268  -0.962  -0.013  0.00  0.00    +2.690 S 
ATOM     20  O   LIG    1        1.649  -0.940  -0.346  0.00  0.00    -0.940 OA
ATOM     21  O   LIG    1       -0.547  -2.117  -0.151  0.00  0.00    -0.930 OA
BRANCH  19  22
ATOM     22  N   LIG    1        0.162  -0.501   1.574  0.00  0.00    -0.940 N 
BRANCH  22  23
ATOM     23  C   LIG    1       -0.973  -0.828   2.322  0.00  0.00    +0.160 A 
ATOM     24  C   LIG    1       -2.221  -0.357   1.935  0.00  0.00    +0.000 A 
ATOM     25  C   LIG    1       -3.341  -0.686   2.673  0.00  0.00    +0.050 A 
ATOM     26  C   LIG    1       -3.219  -1.476   3.803  0.00  0.00    -0.040 A 
ATOM     27  C   LIG    1       -1.976  -1.941   4.194  0.00  0.00    +0.050 A 
ATOM     28 CL   LIG    1       -4.628  -1.882   4.732  0.00  0.00    -0.060 Cl
ATOM     29  C   LIG    1       -0.853  -1.619   3.457  0.00  0.00    +0.040 A 
ENDBRANCH  22  23
BRANCH  22  30
ATOM     30  C   LIG    1        1.256   0.250   2.194  0.00  0.00    +0.350 C 
BRANCH  30  32
ATOM     31  C   LIG    1        0.958   2.449   3.211  0.00  0.00    +0.050 C 
ATOM     32  C   LIG    1        0.959   1.725   2.119  0.00  0.00    -0.080 C 
ENDBRANCH  30  32
ENDBRANCH  22  30
ENDBRANCH  19  22
ENDBRANCH   1  19
TORSDOF 8
