REMARK  Name = ZINCpe000000VQd7.0
REMARK                            x       y       z     vdW  Elec       q    Type
REMARK                         _______ _______ _______ _____ _____    ______ ____
ROOT
ATOM      1  N   LIG    1       -0.704   1.975   1.216  0.00  0.00    -0.360 N 
ATOM      2  C   LIG    1       -0.200   2.837   2.136  0.00  0.00    +0.200 A 
ATOM      3  C   LIG    1       -1.147   3.016   3.092  0.00  0.00    -0.000 A 
ATOM      4  C   LIG    1       -2.261   2.239   2.744  0.00  0.00    +0.260 A 
ATOM      5  N   LIG    1       -1.998   1.623   1.620  0.00  0.00    -0.250 NA
ENDROOT
BRANCH   3   6
ATOM      6  N   LIG    1       -1.031   3.834   4.231  0.00  0.00    -0.630 N 
ATOM      7  H   LIG    1       -0.216   4.335   4.387  0.00  0.00    +0.410 HD
ATOM      8  C   LIG    1       -2.053   3.921   5.105  0.00  0.00    +0.560 C 
ATOM      9  O   LIG    1       -3.075   3.292   4.910  0.00  0.00    -0.510 OA
BRANCH   8  10
ATOM     10  C   LIG    1       -1.932   4.780   6.302  0.00  0.00    -0.130 A 
ATOM     11  C   LIG    1       -0.757   5.499   6.532  0.00  0.00    +0.110 A 
ATOM     12  C   LIG    1       -0.652   6.303   7.648  0.00  0.00    +0.040 A 
ATOM     13  C   LIG    1       -1.703   6.390   8.543  0.00  0.00    +0.130 A 
ATOM     14  C   LIG    1       -2.868   5.676   8.324  0.00  0.00    -0.050 A 
ATOM     15  C   LIG    1       -2.988   4.873   7.209  0.00  0.00    +0.170 A 
BRANCH  14  16
ATOM     16  N   LIG    1       -3.987   5.775   9.287  0.00  0.00    +0.020 N 
ATOM     17  O   LIG    1       -3.883   6.484  10.272  0.00  0.00    -0.150 OA
ATOM     18  O   LIG    1       -5.013   5.147   9.096  0.00  0.00    -0.150 OA
ENDBRANCH  14  16
ENDBRANCH   8  10
ENDBRANCH   3   6
BRANCH   1  19
ATOM     19  C   LIG    1       -0.018   1.503   0.010  0.00  0.00    +0.370 C 
BRANCH  19  22
ATOM     20  N   LIG    1        0.585  -0.664  -1.018  0.00  0.00    -0.720 N 
ATOM     21  H   LIG    1        0.992  -0.170  -1.747  0.00  0.00    +0.400 HD
ATOM     22  C   LIG    1        0.002  -0.004   0.002  0.00  0.00    +0.500 C 
ATOM     23  O   LIG    1       -0.506  -0.622   0.913  0.00  0.00    -0.510 OA
BRANCH  20  24
ATOM     24  C   LIG    1        0.605  -2.129  -1.026  0.00  0.00    +0.290 C 
BRANCH  24  25
ATOM     25  C   LIG    1        1.321  -2.623  -2.285  0.00  0.00    +0.180 C 
BRANCH  25  27
ATOM     26  C   LIG    1        3.456  -2.640  -3.374  0.00  0.00    +0.200 C 
ATOM     27  O   LIG    1        2.693  -2.226  -2.239  0.00  0.00    -0.390 OA
ENDBRANCH  25  27
ENDBRANCH  24  25
ENDBRANCH  20  24
ENDBRANCH  19  22
ENDBRANCH   1  19
TORSDOF 8
