REMARK  Name = ZINCrD00000F5LIZ.0
REMARK                            x       y       z     vdW  Elec       q    Type
REMARK                         _______ _______ _______ _____ _____    ______ ____
ROOT
ATOM      1  N   LIG    1        3.831  -1.507  -0.431  0.00  0.00    -0.620 N 
ATOM      2  C   LIG    1        2.803  -1.008  -1.151  0.00  0.00    +0.520 C 
ATOM      3  C   LIG    1        2.315  -0.302   0.090  0.00  0.00    +0.150 C 
ATOM      4  O   LIG    1        2.431  -1.091  -2.303  0.00  0.00    -0.470 OA
ATOM      5  C   LIG    1        3.499  -0.895   0.861  0.00  0.00    +0.340 C 
ENDROOT
BRANCH   5   6
ATOM      6  C   LIG    1        3.107  -1.883   1.929  0.00  0.00    -0.090 A 
ATOM      7  C   LIG    1        3.055  -1.486   3.251  0.00  0.00    +0.080 A 
ATOM      8  C   LIG    1        2.695  -2.390   4.233  0.00  0.00    +0.030 A 
ATOM      9  C   LIG    1        2.385  -3.695   3.891  0.00  0.00    +0.080 A 
ATOM     10  C   LIG    1        2.437  -4.093   2.564  0.00  0.00    +0.070 A 
ATOM     11  F   LIG    1        2.135  -5.367   2.228  0.00  0.00    -0.120 F 
ATOM     12  F   LIG    1        2.033  -4.579   4.850  0.00  0.00    -0.120 F 
ATOM     13  C   LIG    1        2.793  -3.184   1.583  0.00  0.00    +0.040 A 
ENDBRANCH   5   6
BRANCH   1  14
ATOM     14  C   LIG    1        4.935  -2.388  -0.819  0.00  0.00    +0.300 C 
BRANCH  14  15
ATOM     15  C   LIG    1        6.118  -1.543  -1.296  0.00  0.00    +0.020 C 
BRANCH  15  16
ATOM     16  C   LIG    1        7.272  -2.462  -1.701  0.00  0.00    +0.160 C 
BRANCH  16  18
ATOM     17  C   LIG    1        9.513  -2.439  -2.550  0.00  0.00    +0.200 C 
ATOM     18  O   LIG    1        8.377  -1.673  -2.146  0.00  0.00    -0.390 OA
ENDBRANCH  16  18
ENDBRANCH  15  16
ENDBRANCH  14  15
ENDBRANCH   1  14
BRANCH   3  19
ATOM     19  O   LIG    1        2.365   1.122  -0.014  0.00  0.00    -0.270 OA
BRANCH  19  20
ATOM     20  C   LIG    1        1.276   1.741  -0.543  0.00  0.00    +0.090 A 
ATOM     21  C   LIG    1        0.230   0.990  -1.053  0.00  0.00    -0.030 A 
ATOM     22  C   LIG    1       -0.875   1.621  -1.595  0.00  0.00    +0.010 A 
ATOM     23  C   LIG    1       -0.943   3.001  -1.620  0.00  0.00    +0.020 A 
ATOM     24  C   LIG    1        0.098   3.757  -1.113  0.00  0.00    -0.040 A 
ATOM     25  C   LIG    1        1.210   3.131  -0.574  0.00  0.00    +0.110 A 
BRANCH  25  26
ATOM     26  O   LIG    1        2.235   3.873  -0.075  0.00  0.00    -0.310 OA
ATOM     27  C   LIG    1        2.098   5.295  -0.140  0.00  0.00    +0.250 C 
ENDBRANCH  25  26
ENDBRANCH  19  20
ENDBRANCH   3  19
TORSDOF 8
