REMARK  Name = ZINCrH000004rbV8.0
REMARK                            x       y       z     vdW  Elec       q    Type
REMARK                         _______ _______ _______ _____ _____    ______ ____
ROOT
ATOM      1  C   LIG    1        5.952   0.470  -2.911  0.00  0.00    +0.520 C 
ATOM      2  N   LIG    1        7.255   0.295  -3.211  0.00  0.00    -0.650 N 
ATOM      3  H   LIG    1        7.920   0.303  -2.505  0.00  0.00    +0.410 HD
ATOM      4  O   LIG    1        5.120   0.460  -3.793  0.00  0.00    -0.480 OA
ENDROOT
BRANCH   2   5
ATOM      5  C   LIG    1        7.645   0.103  -4.536  0.00  0.00    +0.310 A 
ATOM      6  C   LIG    1        6.824   0.063  -5.620  0.00  0.00    -0.080 A 
ATOM      7  C   LIG    1        7.617  -0.144  -6.752  0.00  0.00    +0.130 A 
ATOM      8  N   LIG    1        8.866  -0.236  -6.372  0.00  0.00    -0.270 NA
ATOM      9  N   LIG    1        8.918  -0.085  -4.981  0.00  0.00    -0.340 N 
BRANCH   9  10
ATOM     10  C   LIG    1       10.073  -0.120  -4.189  0.00  0.00    +0.160 A 
ATOM     11  C   LIG    1       10.176   0.697  -3.071  0.00  0.00    -0.030 A 
ATOM     12  C   LIG    1       11.314   0.656  -2.289  0.00  0.00    +0.050 A 
ATOM     13  C   LIG    1       12.355  -0.190  -2.625  0.00  0.00    +0.010 A 
ATOM     14  C   LIG    1       12.258  -1.001  -3.741  0.00  0.00    +0.040 A 
ATOM     15  C   LIG    1       11.120  -0.969  -4.523  0.00  0.00    +0.030 A 
ENDBRANCH   9  10
BRANCH   7  16
ATOM     16  C   LIG    1        7.117  -0.251  -8.170  0.00  0.00    +0.030 C 
ATOM     17  C   LIG    1        5.621  -0.499  -8.375  0.00  0.00    +0.040 C 
ATOM     18  C   LIG    1        6.627  -1.620  -8.645  0.00  0.00    +0.040 C 
ENDBRANCH   7  16
ENDBRANCH   2   5
BRANCH   1  19
ATOM     19  C   LIG    1        5.530   0.678  -1.479  0.00  0.00    +0.230 C 
BRANCH  19  20
ATOM     20  N   LIG    1        4.072   0.843  -1.418  0.00  0.00    -0.520 NA
ATOM     21  C   LIG    1        3.653   2.080  -2.089  0.00  0.00    +0.210 C 
BRANCH  20  22
ATOM     22  C   LIG    1        3.596   0.810  -0.028  0.00  0.00    +0.310 C 
BRANCH  22  27
ATOM     23  C   LIG    1       -1.250   2.205   0.020  0.00  0.00    +0.170 C 
ATOM     24  C   LIG    1       -0.016   1.341   0.009  0.00  0.00    -0.010 A 
ATOM     25  C   LIG    1        0.002  -0.004   0.002  0.00  0.00    -0.060 A 
ATOM     26  C   LIG    1        1.361  -0.395  -0.013  0.00  0.00    -0.030 A 
ATOM     27  C   LIG    1        2.091   0.734  -0.014  0.00  0.00    -0.020 A 
ATOM     28  O   LIG    1        1.252   1.783  -0.000  0.00  0.00    -0.180 OA
ENDBRANCH  22  27
ENDBRANCH  20  22
ENDBRANCH  19  20
ENDBRANCH   1  19
TORSDOF 7
