REMARK  Name = ZINCrD00000l2hp7.0
REMARK                            x       y       z     vdW  Elec       q    Type
REMARK                         _______ _______ _______ _____ _____    ______ ____
ROOT
ATOM      1  C   LIG    1       -3.228   3.560  -5.251  0.00  0.00    -0.140 A 
ATOM      2  C   LIG    1       -4.134   4.589  -4.994  0.00  0.00    +0.140 A 
ATOM      3  C   LIG    1       -3.919   5.445  -3.933  0.00  0.00    +0.000 A 
ATOM      4  C   LIG    1       -2.808   5.284  -3.125  0.00  0.00    +0.160 A 
ATOM      5  C   LIG    1       -1.905   4.265  -3.374  0.00  0.00    -0.690 A 
ATOM      6  C   LIG    1       -2.105   3.406  -4.435  0.00  0.00    +0.200 A 
ENDROOT
BRANCH   5   7
ATOM      7  S   LIG    1       -0.493   4.069  -2.339  0.00  0.00    +2.690 S 
ATOM      8  O   LIG    1        0.477   3.375  -3.111  0.00  0.00    -0.940 OA
ATOM      9  O   LIG    1       -0.251   5.337  -1.745  0.00  0.00    -0.950 OA
BRANCH   7  10
ATOM     10  N   LIG    1       -0.926   3.051  -1.107  0.00  0.00    -1.000 NA
ATOM     11  C   LIG    1       -0.756   1.595  -1.232  0.00  0.00    +0.270 C 
ATOM     12  C   LIG    1       -0.013   1.086   0.008  0.00  0.00    +0.220 C 
ATOM     13  O   LIG    1       -0.684   1.548   1.183  0.00  0.00    -0.380 OA
ATOM     14  C   LIG    1       -0.712   2.971   1.319  0.00  0.00    +0.220 C 
ATOM     15  C   LIG    1       -1.491   3.576   0.146  0.00  0.00    +0.270 C 
ENDBRANCH   7  10
ENDBRANCH   5   7
BRANCH   1  17
ATOM     16  O   LIG    1       -2.660   1.746  -6.607  0.00  0.00    -0.490 OA
ATOM     17  C   LIG    1       -3.451   2.640  -6.386  0.00  0.00    +0.510 C 
BRANCH  17  18
ATOM     18  O   LIG    1       -4.532   2.795  -7.175  0.00  0.00    -0.340 OA
BRANCH  18  19
ATOM     19  C   LIG    1       -4.688   1.855  -8.271  0.00  0.00    +0.280 C 
BRANCH  19  20
ATOM     20  C   LIG    1       -5.944   2.181  -9.037  0.00  0.00    -0.090 A 
ATOM     21  C   LIG    1       -7.145   1.597  -8.678  0.00  0.00    -0.000 A 
ATOM     22  C   LIG    1       -8.299   1.901  -9.379  0.00  0.00    +0.040 A 
ATOM     23  C   LIG    1       -8.249   2.780 -10.445  0.00  0.00    +0.070 A 
ATOM     24  C   LIG    1       -7.048   3.360 -10.807  0.00  0.00    +0.040 A 
ATOM     25 CL   LIG    1       -7.206   0.487  -7.344  0.00  0.00    -0.050 Cl
ATOM     26  C   LIG    1       -5.894   3.061 -10.104  0.00  0.00    -0.000 A 
ATOM     27 CL   LIG    1       -4.386   3.789 -10.559  0.00  0.00    -0.040 Cl
ENDBRANCH  19  20
ENDBRANCH  18  19
ENDBRANCH  17  18
ENDBRANCH   1  17
TORSDOF 6
