REMARK  Name = ZINCrH000004tJXK.0
REMARK                            x       y       z     vdW  Elec       q    Type
REMARK                         _______ _______ _______ _____ _____    ______ ____
ROOT
ATOM      1  O   LIG    1        3.556   2.014   0.080  0.00  0.00    -0.510 OA
ATOM      2  C   LIG    1        3.538   3.227   0.086  0.00  0.00    +0.520 C 
ATOM      3  N   LIG    1        2.365   3.884  -0.000  0.00  0.00    -0.670 N 
ATOM      4  H   LIG    1        2.355   4.851  -0.072  0.00  0.00    +0.420 HD
ENDROOT
BRANCH   3   5
ATOM      5  C   LIG    1        1.160   3.170   0.014  0.00  0.00    +0.170 A 
ATOM      6  C   LIG    1        1.052   2.004   0.759  0.00  0.00    +0.060 A 
ATOM      7  C   LIG    1       -0.136   1.299   0.774  0.00  0.00    +0.090 A 
ATOM      8  C   LIG    1       -1.221   1.750   0.040  0.00  0.00    +0.010 A 
ATOM      9  O   LIG    1       -2.481   1.244  -0.115  0.00  0.00    -0.280 OA
ATOM     10  C   LIG    1       -3.013   1.891  -1.286  0.00  0.00    +0.570 C 
ATOM     11  O   LIG    1       -2.312   3.152  -1.324  0.00  0.00    -0.290 OA
ATOM     12  F   LIG    1       -4.389   2.101  -1.150  0.00  0.00    -0.120 F 
ATOM     13  F   LIG    1       -2.744   1.134  -2.431  0.00  0.00    -0.150 F 
ATOM     14  C   LIG    1       -1.118   2.923  -0.705  0.00  0.00    +0.050 A 
ATOM     15  C   LIG    1        0.073   3.629  -0.719  0.00  0.00    +0.040 A 
ENDBRANCH   3   5
BRANCH   2  16
ATOM     16  C   LIG    1        4.829   3.999   0.191  0.00  0.00    +0.070 C 
BRANCH  16  17
ATOM     17  C   LIG    1        6.002   3.021   0.276  0.00  0.00    +0.130 C 
BRANCH  17  18
ATOM     18  C   LIG    1        7.293   3.793   0.381  0.00  0.00    -0.230 A 
ATOM     19  C   LIG    1        7.889   4.194   1.527  0.00  0.00    +0.240 A 
ATOM     20  N   LIG    1        9.021   4.854   1.193  0.00  0.00    -0.320 N 
ATOM     21  N   LIG    1        9.120   4.858  -0.204  0.00  0.00    -0.290 NA
ATOM     22  C   LIG    1        8.088   4.217  -0.690  0.00  0.00    +0.250 A 
BRANCH  20  23
ATOM     23  C   LIG    1        9.934   5.432   2.086  0.00  0.00    +0.160 A 
ATOM     24  C   LIG    1        9.709   5.359   3.454  0.00  0.00    -0.010 A 
ATOM     25  C   LIG    1       10.614   5.924   4.332  0.00  0.00    +0.040 A 
ATOM     26  C   LIG    1       11.735   6.573   3.850  0.00  0.00    +0.000 A 
ATOM     27  C   LIG    1       11.958   6.653   2.487  0.00  0.00    +0.040 A 
ATOM     28  C   LIG    1       11.061   6.084   1.605  0.00  0.00    +0.020 A 
ENDBRANCH  20  23
ENDBRANCH  17  18
ENDBRANCH  16  17
ENDBRANCH   2  16
TORSDOF 5
