REMARK  Name = ZINCqH00000380uW.0
REMARK                            x       y       z     vdW  Elec       q    Type
REMARK                         _______ _______ _______ _____ _____    ______ ____
ROOT
ATOM      1  C   LIG    1        0.157   1.058   0.019  0.00  0.00    +0.110 C 
ATOM      2  C   LIG    1       -0.605   1.545   1.225  0.00  0.00    -0.090 A 
ATOM      3  C   LIG    1        0.081   2.018   2.328  0.00  0.00    +0.030 A 
ATOM      4  C   LIG    1       -0.610   2.467   3.435  0.00  0.00    +0.030 A 
ATOM      5  C   LIG    1       -2.006   2.443   3.445  0.00  0.00    -0.110 A 
ATOM      6  C   LIG    1       -2.698   1.964   2.332  0.00  0.00    +0.080 A 
ATOM      7  C   LIG    1       -1.995   1.521   1.222  0.00  0.00    +0.140 A 
ENDROOT
BRANCH   5   8
ATOM      8  C   LIG    1       -2.748   2.923   4.630  0.00  0.00    +0.560 C 
ATOM      9  N   LIG    1       -2.365   2.542   5.865  0.00  0.00    -0.610 N 
ATOM     10  C   LIG    1       -1.162   1.720   6.055  0.00  0.00    +0.270 C 
ATOM     11  C   LIG    1       -1.530   0.480   6.868  0.00  0.00    -0.040 C 
ATOM     12  C   LIG    1       -2.211   0.910   8.170  0.00  0.00    +0.030 C 
ATOM     13  C   LIG    1       -3.496   1.676   7.846  0.00  0.00    -0.040 C 
ATOM     14  C   LIG    1       -4.193   2.077   9.148  0.00  0.00    +0.030 C 
ATOM     15  C   LIG    1       -0.264  -0.315   7.193  0.00  0.00    +0.030 C 
ATOM     16  C   LIG    1       -3.147   2.934   7.045  0.00  0.00    +0.280 C 
ATOM     17  O   LIG    1       -3.703   3.662   4.490  0.00  0.00    -0.530 OA
ENDBRANCH   5   8
BRANCH   7  18
ATOM     18  N   LIG    1       -2.684   1.046   0.102  0.00  0.00    -0.660 N 
ATOM     19  H   LIG    1       -2.310   0.326  -0.428  0.00  0.00    +0.410 HD
ATOM     20  C   LIG    1       -3.868   1.591  -0.242  0.00  0.00    +0.560 C 
ATOM     21  O   LIG    1       -4.379   2.433   0.470  0.00  0.00    -0.500 OA
BRANCH  20  22
ATOM     22  C   LIG    1       -4.548   1.161  -1.486  0.00  0.00    -0.090 A 
ATOM     23  C   LIG    1       -3.975   0.197  -2.321  0.00  0.00    +0.000 A 
ATOM     24  C   LIG    1       -4.646  -0.177  -3.469  0.00  0.00    +0.270 A 
ATOM     25  N   LIG    1       -5.803   0.368  -3.786  0.00  0.00    -0.470 NA
ATOM     26  C   LIG    1       -6.375   1.283  -3.029  0.00  0.00    +0.270 A 
ATOM     27  C   LIG    1       -5.777   1.713  -1.861  0.00  0.00    +0.040 A 
ENDBRANCH  20  22
ENDBRANCH   7  18
TORSDOF 3
