REMARK  Name = ZINCpe000000XCqn.0
REMARK                            x       y       z     vdW  Elec       q    Type
REMARK                         _______ _______ _______ _____ _____    ______ ____
ROOT
ATOM      1  N   LIG    1        0.287   1.567  -1.067  0.00  0.00    -0.550 N 
ATOM      2  C   LIG    1        0.523   1.048   0.288  0.00  0.00    +0.310 C 
ATOM      3  C   LIG    1       -0.565   1.591   1.222  0.00  0.00    +0.290 C 
ATOM      4  N   LIG    1       -0.669   3.045   1.024  0.00  0.00    -0.600 N 
ATOM      5  C   LIG    1       -0.905   3.564  -0.331  0.00  0.00    +0.300 C 
ATOM      6  C   LIG    1       -0.547   3.887   2.070  0.00  0.00    +0.580 C 
ATOM      7  O   LIG    1       -0.316   3.448   3.179  0.00  0.00    -0.520 OA
ATOM      8  C   LIG    1        0.186   3.020  -1.261  0.00  0.00    +0.300 C 
ENDROOT
BRANCH   1  16
ATOM      9  C   LIG    1       -0.522   1.543  -6.271  0.00  0.00    +0.160 C 
ATOM     10  C   LIG    1       -0.362   0.163  -5.687  0.00  0.00    +0.200 A 
ATOM     11  C   LIG    1       -0.432  -0.915  -6.488  0.00  0.00    -0.100 A 
ATOM     12  C   LIG    1       -0.281  -2.209  -5.930  0.00  0.00    +0.520 A 
ATOM     13  N   LIG    1       -0.072  -2.320  -4.614  0.00  0.00    -0.540 NA
ATOM     14  C   LIG    1       -0.006  -1.250  -3.847  0.00  0.00    +0.340 A 
ATOM     15  S   LIG    1        0.262  -1.066  -2.106  0.00  0.00    +0.140 S 
ATOM     16  C   LIG    1        0.162   0.702  -2.140  0.00  0.00    +0.360 A 
ATOM     17  N   LIG    1       -0.046   1.019  -3.378  0.00  0.00    -0.340 NA
ATOM     18  O   LIG    1       -0.341  -3.204  -6.638  0.00  0.00    -0.500 OA
ATOM     19  N   LIG    1       -0.145   0.012  -4.332  0.00  0.00    -0.340 N 
ENDBRANCH   1  16
BRANCH   6  20
ATOM     20  C   LIG    1       -0.696   5.347   1.866  0.00  0.00    +0.070 A 
ATOM     21  C   LIG    1       -0.155   6.232   2.795  0.00  0.00    +0.040 A 
ATOM     22  C   LIG    1       -0.301   7.595   2.591  0.00  0.00    +0.070 A 
ATOM     23  C   LIG    1       -0.984   8.025   1.465  0.00  0.00    +0.000 A 
ATOM     24  C   LIG    1       -1.496   7.088   0.582  0.00  0.00    +0.270 A 
ATOM     25  N   LIG    1       -1.338   5.801   0.797  0.00  0.00    -0.460 NA
ENDBRANCH   6  20
TORSDOF 2
