REMARK  Name = ZINCpk00000y6uNb.0
REMARK                            x       y       z     vdW  Elec       q    Type
REMARK                         _______ _______ _______ _____ _____    ______ ____
ROOT
ATOM      1  O   LIG    1        3.795   2.120   0.084  0.00  0.00    -0.520 OA
ATOM      2  C   LIG    1        3.698   3.328  -0.015  0.00  0.00    +0.570 C 
ATOM      3  N   LIG    1        4.806   4.087  -0.124  0.00  0.00    -0.600 N 
ATOM      4  C   LIG    1        4.712   5.554  -0.124  0.00  0.00    +0.270 C 
ATOM      5  C   LIG    1        5.649   6.103   0.962  0.00  0.00    +0.030 C 
ATOM      6  C   LIG    1        7.062   5.564   0.730  0.00  0.00    +0.060 C 
ATOM      7  C   LIG    1        7.051   4.037   0.831  0.00  0.00    +0.110 C 
ATOM      8  C   LIG    1        6.130   3.465  -0.251  0.00  0.00    +0.270 C 
ENDROOT
BRANCH   2   9
ATOM      9  C   LIG    1        2.366   3.962  -0.017  0.00  0.00    -0.170 A 
ATOM     10  C   LIG    1        1.980   4.820  -1.039  0.00  0.00    +0.280 A 
ATOM     11  N   LIG    1        0.787   5.391  -1.044  0.00  0.00    -0.490 NA
ATOM     12  C   LIG    1       -0.113   5.203  -0.108  0.00  0.00    +0.350 A 
ATOM     13  C   LIG    1        0.147   4.360   0.985  0.00  0.00    -0.120 A 
ATOM     14  C   LIG    1       -0.797   4.140   2.000  0.00  0.00    +0.060 A 
ATOM     15  C   LIG    1       -0.490   3.305   3.032  0.00  0.00    +0.010 A 
ATOM     16  C   LIG    1        0.750   2.675   3.103  0.00  0.00    +0.040 A 
ATOM     17  C   LIG    1        1.691   2.867   2.134  0.00  0.00    +0.030 A 
ATOM     18  C   LIG    1        1.407   3.711   1.058  0.00  0.00    +0.010 A 
ENDBRANCH   2   9
BRANCH   7  19
ATOM     19  O   LIG    1        6.571   3.649   2.120  0.00  0.00    -0.540 OA
ATOM     20  H   LIG    1        6.535   2.692   2.254  0.00  0.00    +0.390 HD
ENDBRANCH   7  19
BRANCH   7  21
ATOM     21  C   LIG    1        8.470   3.502   0.631  0.00  0.00    +0.330 C 
BRANCH  21  22
ATOM     22  N   LIG    1        8.440   2.037   0.606  0.00  0.00    -0.300 N 
ATOM     23  C   LIG    1        8.928   1.252  -0.382  0.00  0.00    +0.140 A 
ATOM     24  C   LIG    1        8.693  -0.025   0.001  0.00  0.00    +0.140 A 
ATOM     25  N   LIG    1        8.079   0.041   1.188  0.00  0.00    -0.260 NA
ATOM     26  N   LIG    1        7.950   1.277   1.521  0.00  0.00    -0.090 NA
ENDBRANCH  21  22
ENDBRANCH   7  21
TORSDOF 4
