REMARK  Name = ZINCrD000000Are6.0
REMARK                            x       y       z     vdW  Elec       q    Type
REMARK                         _______ _______ _______ _____ _____    ______ ____
ROOT
ATOM      1  C   LIG    1       -0.013   1.086   0.008  0.00  0.00    +0.250 C 
ENDROOT
BRANCH   1   3
ATOM      2  O   LIG    1       -1.736   2.268  -1.088  0.00  0.00    -0.440 OA
ATOM      3  C   LIG    1       -0.742   1.585  -1.213  0.00  0.00    +0.510 C 
ATOM      4  N   LIG    1       -0.288   1.272  -2.443  0.00  0.00    -0.630 N 
ATOM      5  H   LIG    1        0.507   0.726  -2.543  0.00  0.00    +0.420 HD
BRANCH   4   6
ATOM      6  C   LIG    1       -0.962   1.734  -3.572  0.00  0.00    +0.370 A 
ATOM      7  N   LIG    1       -2.045   2.478  -3.582  0.00  0.00    -0.220 NA
ATOM      8  N   LIG    1       -2.405   2.724  -4.792  0.00  0.00    -0.270 NA
ATOM      9  C   LIG    1       -1.566   2.146  -5.633  0.00  0.00    +0.200 A 
ATOM     10  C   LIG    1       -1.486   2.089  -7.038  0.00  0.00    +0.090 A 
ATOM     11  C   LIG    1       -0.473   1.392  -7.618  0.00  0.00    +0.060 A 
ATOM     12  C   LIG    1        0.478   0.739  -6.813  0.00  0.00    +0.030 A 
ATOM     13  C   LIG    1        0.392   0.800  -5.468  0.00  0.00    +0.220 A 
ATOM     14  N   LIG    1       -0.617   1.502  -4.870  0.00  0.00    -0.410 N 
ENDBRANCH   4   6
ENDBRANCH   1   3
BRANCH   1  15
ATOM     15  O   LIG    1       -0.682   1.547   1.184  0.00  0.00    -0.290 OA
BRANCH  15  16
ATOM     16  C   LIG    1       -0.148   1.182   2.380  0.00  0.00    +0.110 A 
ATOM     17  C   LIG    1        0.998   0.394   2.418  0.00  0.00    -0.040 A 
ATOM     18  C   LIG    1        1.550   0.017   3.623  0.00  0.00    +0.080 A 
ATOM     19  C   LIG    1        0.964   0.421   4.815  0.00  0.00    +0.020 A 
ATOM     20  O   LIG    1        1.270   0.213   6.114  0.00  0.00    -0.190 OA
ATOM     21  C   LIG    1        0.384   0.821   6.919  0.00  0.00    +0.040 A 
ATOM     22  C   LIG    1       -0.541   1.455   6.179  0.00  0.00    -0.180 A 
ATOM     23  C   LIG    1       -1.696   2.244   6.734  0.00  0.00    +0.110 C 
ATOM     24  C   LIG    1       -1.875   1.871   8.211  0.00  0.00    +0.020 C 
ATOM     25  C   LIG    1       -0.520   1.955   8.921  0.00  0.00    +0.030 C 
ATOM     26  C   LIG    1        0.386   0.820   8.431  0.00  0.00    +0.140 C 
ATOM     27  C   LIG    1       -0.195   1.217   4.779  0.00  0.00    -0.080 A 
ATOM     28  C   LIG    1       -0.743   1.599   3.556  0.00  0.00    +0.040 A 
ENDBRANCH  15  16
ENDBRANCH   1  15
TORSDOF 4
