REMARK  Name = ZINCpk00000eadbs.2
REMARK                            x       y       z     vdW  Elec       q    Type
REMARK                         _______ _______ _______ _____ _____    ______ ____
ROOT
ATOM      1  N   LIG    1       -1.117   1.056   1.533  0.00  0.00    -0.530 NA
ATOM      2  C   LIG    1       -0.289   0.453   2.578  0.00  0.00    +0.160 C 
ATOM      3  C   LIG    1       -0.049   1.325   3.743  0.00  0.00    +0.030 C 
ATOM      4  C   LIG    1       -1.395   1.657   4.436  0.00  0.00    +0.270 C 
ATOM      5  N   LIG    1       -2.176   2.526   3.583  0.00  0.00    -0.590 N 
ATOM      6  C   LIG    1       -3.114   2.017   2.561  0.00  0.00    +0.260 C 
ATOM      7  C   LIG    1       -2.042   3.859   3.727  0.00  0.00    +0.520 C 
ATOM      8  O   LIG    1       -1.210   4.307   4.488  0.00  0.00    -0.530 OA
ATOM      9  C   LIG    1       -2.521   0.820   1.795  0.00  0.00    +0.200 C 
ENDROOT
BRANCH   7  10
ATOM     10  C   LIG    1       -2.928   4.794   2.944  0.00  0.00    -0.040 C 
ATOM     11  C   LIG    1       -2.432   4.883   1.495  0.00  0.00    +0.260 C 
ATOM     12  O   LIG    1       -3.348   5.691   0.754  0.00  0.00    -0.310 OA
ATOM     13  C   LIG    1       -3.706   6.890   1.281  0.00  0.00    +0.170 A 
ATOM     14  C   LIG    1       -4.287   7.835   0.444  0.00  0.00    -0.040 A 
ATOM     15  C   LIG    1       -4.670   9.068   0.944  0.00  0.00    +0.160 A 
ATOM     16  C   LIG    1       -4.471   9.360   2.286  0.00  0.00    -0.100 A 
ATOM     17  C   LIG    1       -3.892   8.422   3.117  0.00  0.00    +0.090 A 
ATOM     18  C   LIG    1       -3.506   7.188   2.619  0.00  0.00    -0.190 A 
ATOM     19  C   LIG    1       -2.870   6.195   3.558  0.00  0.00    +0.110 C 
BRANCH  15  20
ATOM     20  O   LIG    1       -5.237   9.991   0.123  0.00  0.00    -0.310 OA
ATOM     21  C   LIG    1       -5.606  11.241   0.709  0.00  0.00    +0.250 C 
ENDBRANCH  15  20
ENDBRANCH   7  10
BRANCH   1  22
ATOM     22  C   LIG    1       -0.737   0.554   0.206  0.00  0.00    +0.240 C 
BRANCH  22  23
ATOM     23  C   LIG    1       -1.003  -0.951   0.134  0.00  0.00    +0.120 C 
BRANCH  23  25
ATOM     24  C   LIG    1       -2.770  -2.571   0.137  0.00  0.00    +0.200 C 
ATOM     25  O   LIG    1       -2.411  -1.189   0.197  0.00  0.00    -0.390 OA
ENDBRANCH  23  25
ENDBRANCH  22  23
ENDBRANCH   1  22
TORSDOF 5
