REMARK  Name = ZINCrD0000075NEi.1
REMARK                            x       y       z     vdW  Elec       q    Type
REMARK                         _______ _______ _______ _____ _____    ______ ____
ROOT
ATOM      1  O   LIG    1        0.108   1.033   0.102  0.00  0.00    -0.560 OA
ATOM      2  C   LIG    1        1.147   1.655   0.000  0.00  0.00    +0.710 C 
ATOM      3  N   LIG    1        2.318   0.998  -0.116  0.00  0.00    -0.610 N 
ATOM      4  C   LIG    1        2.346  -0.467  -0.230  0.00  0.00    +0.300 C 
ATOM      5  C   LIG    1        3.276  -1.031   0.842  0.00  0.00    +0.020 C 
ATOM      6  C   LIG    1        4.649  -0.364   0.724  0.00  0.00    -0.010 C 
ATOM      7  C   LIG    1        4.508   1.143   0.950  0.00  0.00    +0.020 C 
ATOM      8  C   LIG    1        3.590   1.732  -0.126  0.00  0.00    +0.270 C 
ATOM      9  N   LIG    1        1.128   3.003   0.003  0.00  0.00    -0.640 N 
ATOM     10  H   LIG    1        1.961   3.500  -0.005  0.00  0.00    +0.420 HD
ENDROOT
BRANCH   9  11
ATOM     11  C   LIG    1       -0.085   3.681   0.022  0.00  0.00    +0.260 A 
ATOM     12  N   LIG    1       -0.215   4.967   0.032  0.00  0.00    -0.520 NA
ATOM     13  C   LIG    1       -1.446   5.463   0.050  0.00  0.00    +0.090 A 
ATOM     14  C   LIG    1       -2.399   4.515   0.057  0.00  0.00    -0.280 A 
ATOM     15  C   LIG    1       -3.887   4.775   0.078  0.00  0.00    +0.120 C 
ATOM     16  C   LIG    1       -4.122   6.232   0.492  0.00  0.00    +0.020 C 
ATOM     17  C   LIG    1       -3.227   7.142  -0.354  0.00  0.00    +0.020 C 
ATOM     18  C   LIG    1       -1.767   6.950   0.063  0.00  0.00    +0.120 C 
ATOM     19  S   LIG    1       -1.623   2.937   0.030  0.00  0.00    +0.240 S 
ENDBRANCH   9  11
BRANCH   6  20
ATOM     20  C   LIG    1        5.592  -0.951   1.777  0.00  0.00    +0.020 C 
BRANCH  20  21
ATOM     21  C   LIG    1        5.832  -2.432   1.478  0.00  0.00    +0.020 C 
BRANCH  21  22
ATOM     22  C   LIG    1        6.776  -3.019   2.530  0.00  0.00    +0.160 C 
BRANCH  22  23
ATOM     23  N   LIG    1        7.006  -4.441   2.243  0.00  0.00    -0.540 NA
ATOM     24  C   LIG    1        5.772  -5.220   2.416  0.00  0.00    +0.140 C 
ATOM     25  C   LIG    1        6.042  -6.682   2.050  0.00  0.00    +0.220 C 
ATOM     26  O   LIG    1        7.114  -7.179   2.855  0.00  0.00    -0.390 OA
ATOM     27  C   LIG    1        8.332  -6.444   2.711  0.00  0.00    +0.220 C 
ATOM     28  C   LIG    1        8.085  -4.980   3.084  0.00  0.00    +0.150 C 
ENDBRANCH  22  23
ENDBRANCH  21  22
ENDBRANCH  20  21
ENDBRANCH   6  20
TORSDOF 5
