REMARK  Name = ZINCpe00000MJMoI.1
REMARK                            x       y       z     vdW  Elec       q    Type
REMARK                         _______ _______ _______ _____ _____    ______ ____
ROOT
ATOM      1  N   LIG    1        0.768  10.371   2.859  0.00  0.00    -0.630 N 
ATOM      2  C   LIG    1       -0.451  10.194   3.389  0.00  0.00    +0.700 C 
ATOM      3  N   LIG    1       -1.381   9.815   2.495  0.00  0.00    -0.730 N 
ATOM      4  H   LIG    1       -2.304   9.591   2.691  0.00  0.00    +0.430 HD
ATOM      5  C   LIG    1       -0.754   9.801   1.175  0.00  0.00    +0.200 C 
ATOM      6  C   LIG    1       -1.210   8.705   0.273  0.00  0.00    +0.310 C 
ATOM      7  N   LIG    1       -0.272   7.603   0.149  0.00  0.00    -0.590 N 
ATOM      8  C   LIG    1        1.165   7.832   0.141  0.00  0.00    +0.270 C 
ATOM      9  C   LIG    1        1.585   8.754   1.257  0.00  0.00    +0.050 C 
ATOM     10  C   LIG    1       -0.742   6.344   0.044  0.00  0.00    +0.590 C 
ATOM     11  O   LIG    1       -1.940   6.146  -0.036  0.00  0.00    -0.510 OA
ATOM     12  O   LIG    1       -0.693  10.363   4.569  0.00  0.00    -0.580 OA
ATOM     13  C   LIG    1        0.725   9.986   1.426  0.00  0.00    +0.250 C 
ENDROOT
BRANCH  10  14
ATOM     14  C   LIG    1        0.190   5.215   0.028  0.00  0.00    -0.020 A 
ATOM     15  C   LIG    1        0.991   4.801  -1.045  0.00  0.00    -0.120 A 
ATOM     16  C   LIG    1        1.216   5.221  -2.362  0.00  0.00    +0.050 A 
ATOM     17  C   LIG    1        2.109   4.546  -3.136  0.00  0.00    +0.010 A 
ATOM     18  C   LIG    1        2.801   3.435  -2.653  0.00  0.00    +0.030 A 
ATOM     19  C   LIG    1        2.628   2.979  -1.386  0.00  0.00    +0.060 A 
ATOM     20  C   LIG    1        1.722   3.635  -0.528  0.00  0.00    +0.060 A 
ATOM     21  N   LIG    1        1.319   3.470   0.719  0.00  0.00    -0.270 NA
ATOM     22  N   LIG    1        0.451   4.356   1.052  0.00  0.00    -0.310 N 
ATOM     23  H   LIG    1        0.032   4.407   1.926  0.00  0.00    +0.450 HD
ENDBRANCH  10  14
BRANCH   1  24
ATOM     24  C   LIG    1        1.948  10.862   3.576  0.00  0.00    +0.350 C 
BRANCH  24  25
ATOM     25  C   LIG    1        2.707   9.678   4.178  0.00  0.00    +0.150 C 
BRANCH  25  27
ATOM     26  C   LIG    1        3.949   7.716   3.585  0.00  0.00    +0.200 C 
ATOM     27  O   LIG    1        3.219   8.856   3.128  0.00  0.00    -0.380 OA
ENDBRANCH  25  27
ENDBRANCH  24  25
ENDBRANCH   1  24
TORSDOF 4
