REMARK  Name = ZINCpe00000MJMoI.0
REMARK                            x       y       z     vdW  Elec       q    Type
REMARK                         _______ _______ _______ _____ _____    ______ ____
ROOT
ATOM      1  N   LIG    1        7.930  -4.328   2.030  0.00  0.00    -0.630 N 
ATOM      2  C   LIG    1        8.458  -3.252   2.633  0.00  0.00    +0.700 C 
ATOM      3  N   LIG    1        8.502  -2.159   1.850  0.00  0.00    -0.730 N 
ATOM      4  H   LIG    1        8.800  -1.276   2.119  0.00  0.00    +0.430 HD
ATOM      5  C   LIG    1        8.021  -2.539   0.523  0.00  0.00    +0.200 C 
ATOM      6  C   LIG    1        7.212  -1.499  -0.174  0.00  0.00    +0.300 C 
ATOM      7  N   LIG    1        5.781  -1.747  -0.164  0.00  0.00    -0.590 N 
ATOM      8  C   LIG    1        5.248  -3.097  -0.269  0.00  0.00    +0.280 C 
ATOM      9  C   LIG    1        5.951  -4.045   0.669  0.00  0.00    +0.050 C 
ATOM     10  C   LIG    1        4.931  -0.708  -0.048  0.00  0.00    +0.610 C 
ATOM     11  O   LIG    1        3.738  -0.909   0.074  0.00  0.00    -0.520 OA
ATOM     12  O   LIG    1        8.859  -3.264   3.780  0.00  0.00    -0.580 OA
ATOM     13  C   LIG    1        7.458  -3.933   0.678  0.00  0.00    +0.240 C 
ENDROOT
BRANCH  10  14
ATOM     14  C   LIG    1        5.447   0.672  -0.070  0.00  0.00    +0.000 A 
ATOM     15  N   LIG    1        6.686   1.047  -0.306  0.00  0.00    -0.210 NA
ATOM     16  N   LIG    1        6.820   2.323  -0.254  0.00  0.00    -0.420 N 
ATOM     17  H   LIG    1        7.656   2.792  -0.400  0.00  0.00    +0.450 HD
ATOM     18  C   LIG    1        5.628   2.937   0.033  0.00  0.00    +0.070 A 
ATOM     19  C   LIG    1        5.223   4.257   0.200  0.00  0.00    +0.010 A 
ATOM     20  C   LIG    1        3.906   4.533   0.492  0.00  0.00    +0.050 A 
ATOM     21  C   LIG    1        2.977   3.509   0.623  0.00  0.00    -0.010 A 
ATOM     22  C   LIG    1        3.355   2.204   0.463  0.00  0.00    +0.100 A 
ATOM     23  C   LIG    1        4.680   1.903   0.167  0.00  0.00    -0.110 A 
ENDBRANCH  10  14
BRANCH   1  24
ATOM     24  C   LIG    1        7.834  -5.670   2.609  0.00  0.00    +0.350 C 
BRANCH  24  25
ATOM     25  C   LIG    1        6.507  -5.809   3.358  0.00  0.00    +0.160 C 
BRANCH  25  27
ATOM     26  C   LIG    1        4.133  -5.838   3.029  0.00  0.00    +0.200 C 
ATOM     27  O   LIG    1        5.425  -5.720   2.429  0.00  0.00    -0.380 OA
ENDBRANCH  25  27
ENDBRANCH  24  25
ENDBRANCH   1  24
TORSDOF 4
