REMARK  Name = ZINCkj000005fq1W.0
REMARK                            x       y       z     vdW  Elec       q    Type
REMARK                         _______ _______ _______ _____ _____    ______ ____
ROOT
ATOM      1  N   LIG    1        3.459   0.563  -0.558  0.00  0.00    -0.490 N 
ATOM      2  H   LIG    1        3.783  -0.263  -1.039  0.00  0.00    +0.430 HD
ATOM      3  H   LIG    1        3.538   0.426   0.438  0.00  0.00    +0.430 HD
ENDROOT
BRANCH   1   7
ATOM      4  C   LIG    1       -0.748   2.034  -1.241  0.00  0.00    +0.050 C 
ATOM      5  C   LIG    1       -0.066   1.456  -0.000  0.00  0.00    +0.110 C 
ATOM      6  C   LIG    1        1.426   1.874   0.038  0.00  0.00    +0.060 C 
ATOM      7  C   LIG    1        2.054   0.814  -0.907  0.00  0.00    +0.150 C 
ATOM      8  C   LIG    1        1.187  -0.432  -0.624  0.00  0.00    +0.100 C 
ATOM      9  C   LIG    1        0.921  -1.187  -1.928  0.00  0.00    +0.070 C 
ATOM     10  C   LIG    1        1.903  -1.348   0.371  0.00  0.00    +0.050 C 
ATOM     11  C   LIG    1       -0.781   1.924   1.268  0.00  0.00    +0.080 C 
ATOM     12  O   LIG    1       -0.051   0.021  -0.063  0.00  0.00    -0.340 OA
ENDBRANCH   1   7
BRANCH   1  13
ATOM     13  C   LIG    1        4.276   1.716  -0.960  0.00  0.00    +0.250 C 
BRANCH  13  14
ATOM     14  C   LIG    1        5.753   1.407  -0.706  0.00  0.00    +0.230 C 
ATOM     15  C   LIG    1        6.202   0.226  -1.592  0.00  0.00    +0.040 C 
ATOM     16  C   LIG    1        7.638   0.635  -2.015  0.00  0.00    +0.060 C 
ATOM     17  C   LIG    1        7.493   2.171  -2.160  0.00  0.00    +0.280 C 
ATOM     18  N   LIG    1        6.577   2.568  -1.075  0.00  0.00    -1.000 NA
BRANCH  18  19
ATOM     19  S   LIG    1        6.490   4.071  -0.387  0.00  0.00    +2.620 S 
ATOM     20  O   LIG    1        5.208   4.102   0.226  0.00  0.00    -0.960 OA
ATOM     21  O   LIG    1        6.816   4.961  -1.446  0.00  0.00    -0.930 OA
ATOM     22  C   LIG    1        7.798   4.071   0.870  0.00  0.00    -0.270 C 
ENDBRANCH  18  19
ENDBRANCH  13  14
ENDBRANCH   1  13
TORSDOF 4
