REMARK  Name = ZINCrD00000F5LzZ.0
REMARK                            x       y       z     vdW  Elec       q    Type
REMARK                         _______ _______ _______ _____ _____    ______ ____
ROOT
ATOM      1  N   LIG    1       -2.455   4.041   0.046  0.00  0.00    -0.580 N 
ENDROOT
BRANCH   1   2
ATOM      2  C   LIG    1       -1.235   3.385   0.031  0.00  0.00    +0.450 A 
ATOM      3  C   LIG    1       -0.040   4.110   0.024  0.00  0.00    -0.110 A 
ATOM      4  C   LIG    1        1.154   3.413   0.009  0.00  0.00    +0.360 A 
ATOM      5  N   LIG    1        1.131   2.090   0.003  0.00  0.00    -0.520 NA
ATOM      6  C   LIG    1       -0.017   1.428   0.010  0.00  0.00    +0.440 A 
ATOM      7  N   LIG    1       -1.184   2.058   0.019  0.00  0.00    -0.530 NA
BRANCH   6   8
ATOM      8  C   LIG    1        0.002  -0.004   0.002  0.00  0.00    +0.290 C 
ATOM      9  N   LIG    1        0.018  -1.140  -0.004  0.00  0.00    -0.360 NA
ENDBRANCH   6   8
ENDBRANCH   1   2
BRANCH   1  10
ATOM     10  C   LIG    1       -2.503   5.502  -0.057  0.00  0.00    +0.310 C 
BRANCH  10  11
ATOM     11  C   LIG    1       -2.592   5.907  -1.530  0.00  0.00    -0.030 C 
ATOM     12  C   LIG    1       -3.859   5.311  -2.146  0.00  0.00    +0.040 C 
ATOM     13  C   LIG    1       -1.365   5.383  -2.278  0.00  0.00    +0.040 C 
BRANCH  11  19
ATOM     14  C   LIG    1       -2.719   8.016  -2.881  0.00  0.00    +0.140 A 
ATOM     15  C   LIG    1       -2.770   9.399  -2.975  0.00  0.00    -0.070 A 
ATOM     16  C   LIG    1       -2.731  10.169  -1.829  0.00  0.00    +0.040 A 
ATOM     17  C   LIG    1       -2.648   9.563  -0.589  0.00  0.00    -0.030 A 
ATOM     18  C   LIG    1       -2.603   8.184  -0.493  0.00  0.00    +0.040 A 
ATOM     19  C   LIG    1       -2.641   7.409  -1.635  0.00  0.00    -0.100 A 
BRANCH  14  21
ATOM     20  C   LIG    1       -2.831   7.947  -5.255  0.00  0.00    +0.240 C 
ATOM     21  O   LIG    1       -2.751   7.256  -4.007  0.00  0.00    -0.310 OA
ENDBRANCH  14  21
ENDBRANCH  11  19
ENDBRANCH  10  11
ENDBRANCH   1  10
BRANCH   1  22
ATOM     22  C   LIG    1       -3.698   3.275   0.164  0.00  0.00    +0.420 C 
BRANCH  22  23
ATOM     23  C   LIG    1       -4.052   3.114   1.620  0.00  0.00    -0.010 A 
ATOM     24  N   LIG    1       -3.614   2.196   2.433  0.00  0.00    -0.340 NA
ATOM     25  O   LIG    1       -4.077   2.325   3.542  0.00  0.00    +0.100 OA
ATOM     26  C   LIG    1       -4.906   3.376   3.610  0.00  0.00    +0.160 A 
ATOM     27  C   LIG    1       -4.922   3.933   2.376  0.00  0.00    -0.060 A 
ENDBRANCH  22  23
ENDBRANCH   1  22
TORSDOF 8
