REMARK  Name = ZINCqH000000757t.0
REMARK                            x       y       z     vdW  Elec       q    Type
REMARK                         _______ _______ _______ _____ _____    ______ ____
ROOT
ATOM      1  C   LIG    1        0.533  -2.993   1.397  0.00  0.00    +0.520 C 
ATOM      2  N   LIG    1        1.671  -3.678   1.628  0.00  0.00    -0.730 N 
ATOM      3  H   LIG    1        2.165  -4.062   0.887  0.00  0.00    +0.400 HD
ATOM      4  O   LIG    1       -0.084  -2.512   2.324  0.00  0.00    -0.530 OA
ENDROOT
BRANCH   1   5
ATOM      5  C   LIG    1        0.029  -2.824  -0.013  0.00  0.00    +0.120 C 
BRANCH   5  11
ATOM      6  C   LIG    1       -1.198  -0.636   0.010  0.00  0.00    +0.180 A 
ATOM      7  C   LIG    1       -2.373   0.107   0.031  0.00  0.00    -0.080 A 
ATOM      8  C   LIG    1       -3.592  -0.532   0.034  0.00  0.00    +0.110 A 
ATOM      9  C   LIG    1       -3.643  -1.931   0.026  0.00  0.00    -0.210 A 
ATOM     10  C   LIG    1       -2.454  -2.670   0.011  0.00  0.00    +0.130 A 
ATOM     11  C   LIG    1       -1.249  -2.026   0.003  0.00  0.00    -0.110 A 
BRANCH   9  12
ATOM     12  C   LIG    1       -4.939  -2.622   0.035  0.00  0.00    +0.400 C 
ATOM     13  O   LIG    1       -4.981  -3.834   0.028  0.00  0.00    -0.460 OA
ATOM     14  C   LIG    1       -6.218  -1.824   0.051  0.00  0.00    +0.070 C 
ENDBRANCH   9  12
BRANCH   6  16
ATOM     15  C   LIG    1       -0.017   1.425   0.010  0.00  0.00    +0.240 C 
ATOM     16  O   LIG    1        0.002  -0.004   0.002  0.00  0.00    -0.310 OA
ENDBRANCH   6  16
ENDBRANCH   5  11
ENDBRANCH   1   5
BRANCH   2  17
ATOM     17  C   LIG    1        2.161  -3.842   2.999  0.00  0.00    +0.270 C 
BRANCH  17  18
ATOM     18  C   LIG    1        3.459  -4.652   2.983  0.00  0.00    -0.060 C 
ATOM     19  C   LIG    1        4.510  -3.916   2.150  0.00  0.00    +0.020 C 
ATOM     20  C   LIG    1        5.808  -4.726   2.133  0.00  0.00    -0.020 C 
ATOM     21  C   LIG    1        5.542  -6.102   1.519  0.00  0.00    +0.010 C 
ATOM     22  C   LIG    1        4.491  -6.838   2.352  0.00  0.00    -0.020 C 
ATOM     23  C   LIG    1        5.003  -7.010   3.783  0.00  0.00    +0.010 C 
ATOM     24  C   LIG    1        5.269  -5.634   4.398  0.00  0.00    -0.010 C 
ATOM     25  C   LIG    1        6.320  -4.897   3.565  0.00  0.00    +0.010 C 
ATOM     26  C   LIG    1        3.194  -6.028   2.368  0.00  0.00    +0.030 C 
ATOM     27  C   LIG    1        3.971  -4.824   4.414  0.00  0.00    +0.040 C 
ENDBRANCH  17  18
ENDBRANCH   2  17
TORSDOF 6
