REMARK  Name = ZINCpe000000Y3lZ.0
REMARK                            x       y       z     vdW  Elec       q    Type
REMARK                         _______ _______ _______ _____ _____    ______ ____
ROOT
ATOM      1  C   LIG    1        6.134  -0.494  -0.062  0.00  0.00    +0.290 C 
ENDROOT
BRANCH   1  13
ATOM      2  C   LIG    1        5.963   2.301  -0.045  0.00  0.00    +0.160 C 
ATOM      3  C   LIG    1        4.698   1.481  -0.036  0.00  0.00    +0.400 A 
ATOM      4  N   LIG    1        3.559   2.106  -0.021  0.00  0.00    -0.520 NA
ATOM      5  C   LIG    1        2.380   1.435  -0.013  0.00  0.00    +0.150 A 
ATOM      6  C   LIG    1        1.156   2.106   0.002  0.00  0.00    +0.030 A 
ATOM      7  C   LIG    1       -0.017   1.384   0.010  0.00  0.00    +0.070 A 
ATOM      8  C   LIG    1        0.002  -0.004   0.002  0.00  0.00    -0.010 A 
ATOM      9  C   LIG    1        1.198  -0.689  -0.014  0.00  0.00    +0.100 A 
ATOM     10  C   LIG    1        2.396   0.022  -0.021  0.00  0.00    -0.200 A 
ATOM     11  C   LIG    1        3.701  -0.653  -0.038  0.00  0.00    +0.550 A 
ATOM     12  O   LIG    1        3.785  -1.868  -0.046  0.00  0.00    -0.510 OA
ATOM     13  N   LIG    1        4.807   0.127  -0.045  0.00  0.00    -0.540 N 
ENDBRANCH   1  13
BRANCH   1  14
ATOM     14  C   LIG    1        6.610  -0.718   1.375  0.00  0.00    +0.040 C 
BRANCH  14  15
ATOM     15  C   LIG    1        7.996  -1.367   1.358  0.00  0.00    +0.060 C 
BRANCH  15  16
ATOM     16  C   LIG    1        8.464  -1.587   2.773  0.00  0.00    +0.510 C 
ATOM     17  N   LIG    1        9.667  -2.151   3.004  0.00  0.00    -0.620 N 
ATOM     18  C   LIG    1       10.094  -2.352   4.386  0.00  0.00    +0.280 C 
ATOM     19  C   LIG    1       10.241  -3.850   4.669  0.00  0.00    +0.270 C 
ATOM     20  N   LIG    1       11.547  -4.301   4.167  0.00  0.00    -0.730 N 
ATOM     21  H   LIG    1       12.252  -4.524   4.795  0.00  0.00    +0.400 HD
ATOM     22  C   LIG    1       11.772  -4.406   2.854  0.00  0.00    +0.520 C 
ATOM     23  C   LIG    1       10.688  -4.056   1.860  0.00  0.00    +0.050 C 
ATOM     24  O   LIG    1       12.854  -4.784   2.457  0.00  0.00    -0.540 OA
ATOM     25  C   LIG    1       10.491  -2.541   1.862  0.00  0.00    +0.290 C 
ATOM     26  O   LIG    1        7.760  -1.259   3.703  0.00  0.00    -0.530 OA
ENDBRANCH  15  16
ENDBRANCH  14  15
ENDBRANCH   1  14
TORSDOF 4
