REMARK  Name = ZINCpe00000gLSSt.0
REMARK                            x       y       z     vdW  Elec       q    Type
REMARK                         _______ _______ _______ _____ _____    ______ ____
ROOT
ATOM      1  N   LIG    1        2.872   3.366  -0.898  0.00  0.00    -0.530 NA
ATOM      2  C   LIG    1        3.359   4.753  -0.889  0.00  0.00    +0.150 C 
ATOM      3  C   LIG    1        3.754   5.140   0.538  0.00  0.00    +0.220 C 
ATOM      4  O   LIG    1        2.632   4.955   1.405  0.00  0.00    -0.380 OA
ATOM      5  C   LIG    1        2.132   3.615   1.421  0.00  0.00    +0.170 C 
ATOM      6  C   LIG    1        1.720   3.212   0.003  0.00  0.00    +0.200 C 
ENDROOT
BRANCH   6   7
ATOM      7  C   LIG    1        1.267   1.775  -0.001  0.00  0.00    -0.240 A 
ATOM      8  C   LIG    1       -0.016   1.345   0.009  0.00  0.00    +0.240 A 
ATOM      9  N   LIG    1        0.002  -0.004   0.002  0.00  0.00    -0.370 N 
ATOM     10  N   LIG    1        1.341  -0.417  -0.013  0.00  0.00    -0.300 NA
ATOM     11  C   LIG    1       -1.171  -0.882   0.009  0.00  0.00    +0.360 C 
ATOM     12  C   LIG    1        2.098   0.650  -0.015  0.00  0.00    +0.250 A 
ENDBRANCH   6   7
BRANCH   1  14
ATOM     13  C   LIG    1        3.660   3.337  -3.216  0.00  0.00    +0.030 C 
ATOM     14  C   LIG    1        2.535   2.935  -2.261  0.00  0.00    +0.170 C 
ENDBRANCH   1  14
BRANCH   5  15
ATOM     15  C   LIG    1        0.917   3.534   2.348  0.00  0.00    +0.280 C 
BRANCH  15  16
ATOM     16  N   LIG    1        1.312   3.920   3.705  0.00  0.00    -0.720 N 
ATOM     17  H   LIG    1        2.230   4.173   3.890  0.00  0.00    +0.400 HD
ATOM     18  C   LIG    1        0.399   3.923   4.697  0.00  0.00    +0.520 C 
ATOM     19  O   LIG    1       -0.749   3.607   4.466  0.00  0.00    -0.540 OA
BRANCH  18  20
ATOM     20  C   LIG    1        0.805   4.320   6.093  0.00  0.00    -0.010 C 
ATOM     21  C   LIG    1        1.895   3.371   6.596  0.00  0.00    +0.030 C 
ATOM     22  C   LIG    1        2.307   3.774   8.014  0.00  0.00    -0.010 C 
ATOM     23  C   LIG    1        1.092   3.693   8.941  0.00  0.00    +0.160 C 
ATOM     24  C   LIG    1        0.003   4.642   8.437  0.00  0.00    +0.030 C 
ATOM     25  C   LIG    1       -0.409   4.239   7.020  0.00  0.00    +0.050 C 
BRANCH  23  26
ATOM     26  O   LIG    1        1.477   4.069  10.264  0.00  0.00    -0.570 OA
ATOM     27  H   LIG    1        2.166   3.509  10.648  0.00  0.00    +0.380 HD
ENDBRANCH  23  26
ENDBRANCH  18  20
ENDBRANCH  15  16
ENDBRANCH   5  15
TORSDOF 6
