REMARK  Name = ZINCpk000000oD76.0
REMARK                            x       y       z     vdW  Elec       q    Type
REMARK                         _______ _______ _______ _____ _____    ______ ____
ROOT
ATOM      1  N   LIG    1       -0.920   1.705  -3.501  0.00  0.00    -0.740 N 
ATOM      2  H   LIG    1       -1.715   2.251  -3.401  0.00  0.00    +0.400 HD
ATOM      3  C   LIG    1       -0.268   1.258  -2.409  0.00  0.00    +0.700 C 
ATOM      4  N   LIG    1       -0.721   1.571  -1.179  0.00  0.00    -0.740 N 
ATOM      5  H   LIG    1       -1.516   2.118  -1.079  0.00  0.00    +0.400 HD
ATOM      6  O   LIG    1        0.729   0.574  -2.534  0.00  0.00    -0.590 OA
ENDROOT
BRANCH   1   7
ATOM      7  C   LIG    1       -0.427   1.365  -4.838  0.00  0.00    +0.340 C 
BRANCH   7  11
ATOM      8  C   LIG    1       -3.000   3.029  -7.753  0.00  0.00    +0.410 A 
ATOM      9  C   LIG    1       -1.919   3.787  -7.315  0.00  0.00    -0.110 A 
ATOM     10  C   LIG    1       -1.068   3.257  -6.362  0.00  0.00    +0.120 A 
ATOM     11  C   LIG    1       -1.328   1.982  -5.877  0.00  0.00    -0.230 A 
ATOM     12  C   LIG    1       -2.416   1.283  -6.361  0.00  0.00    +0.330 A 
ATOM     13  N   LIG    1       -3.214   1.816  -7.266  0.00  0.00    -0.540 NA
BRANCH   8  14
ATOM     14  N   LIG    1       -3.863   3.549  -8.710  0.00  0.00    -0.610 N 
BRANCH  14  16
ATOM     15  C   LIG    1       -2.723   4.625 -10.588  0.00  0.00    +0.020 C 
ATOM     16  C   LIG    1       -3.572   4.843  -9.334  0.00  0.00    +0.280 C 
ENDBRANCH  14  16
BRANCH  14  17
ATOM     17  C   LIG    1       -5.064   2.804  -9.097  0.00  0.00    +0.280 C 
ATOM     18  C   LIG    1       -6.230   3.212  -8.194  0.00  0.00    -0.000 C 
ENDBRANCH  14  17
ENDBRANCH   8  14
ENDBRANCH   7  11
ENDBRANCH   1   7
BRANCH   4  19
ATOM     19  C   LIG    1       -0.013   1.086   0.008  0.00  0.00    +0.290 C 
BRANCH  19  20
ATOM     20  C   LIG    1       -0.729   1.579   1.267  0.00  0.00    +0.160 C 
ATOM     21  C   LIG    1        0.079   1.179   2.503  0.00  0.00    +0.000 C 
BRANCH  20  22
ATOM     22  N   LIG    1       -0.855   3.042   1.217  0.00  0.00    -0.530 NA
ATOM     23  C   LIG    1        0.468   3.683   1.177  0.00  0.00    +0.150 C 
ATOM     24  C   LIG    1        0.290   5.200   1.066  0.00  0.00    +0.220 C 
ATOM     25  O   LIG    1       -0.504   5.664   2.161  0.00  0.00    -0.380 OA
ATOM     26  C   LIG    1       -1.799   5.060   2.230  0.00  0.00    +0.220 C 
ATOM     27  C   LIG    1       -1.643   3.542   2.353  0.00  0.00    +0.150 C 
ENDBRANCH  20  22
ENDBRANCH  19  20
ENDBRANCH   4  19
TORSDOF 8
