REMARK  Name = ZINCAx0000000jFY.0
REMARK                            x       y       z     vdW  Elec       q    Type
REMARK                         _______ _______ _______ _____ _____    ______ ____
ROOT
ATOM      1  N   LIG    1        8.248   6.612   0.399  0.00  0.00    -0.670 N 
ATOM      2  H   LIG    1        8.192   7.578   0.466  0.00  0.00    +0.420 HD
ATOM      3  C   LIG    1        9.453   6.007   0.378  0.00  0.00    +0.520 C 
ATOM      4  O   LIG    1        9.523   4.796   0.380  0.00  0.00    -0.490 OA
ENDROOT
BRANCH   1   8
ATOM      5  C   LIG    1        4.769   4.333   0.172  0.00  0.00    -0.150 A 
ATOM      6  C   LIG    1        4.825   5.588  -0.439  0.00  0.00    +0.070 A 
ATOM      7  C   LIG    1        5.974   6.341  -0.358  0.00  0.00    -0.010 A 
ATOM      8  C   LIG    1        7.084   5.849   0.323  0.00  0.00    +0.170 A 
ATOM      9  C   LIG    1        7.033   4.597   0.928  0.00  0.00    +0.020 A 
ATOM     10  C   LIG    1        5.885   3.841   0.855  0.00  0.00    +0.110 A 
BRANCH   5  13
ATOM     11  N   LIG    1        2.461   4.001  -0.567  0.00  0.00    -0.660 N 
ATOM     12  H   LIG    1        2.522   4.836  -1.056  0.00  0.00    +0.410 HD
ATOM     13  C   LIG    1        3.536   3.525   0.092  0.00  0.00    +0.560 C 
ATOM     14  O   LIG    1        3.491   2.431   0.620  0.00  0.00    -0.520 OA
BRANCH  11  20
ATOM     15  C   LIG    1        0.332   3.447  -1.577  0.00  0.00    +0.100 A 
ATOM     16  C   LIG    1       -0.859   2.740  -1.550  0.00  0.00    -0.060 A 
ATOM     17  C   LIG    1       -1.129   1.879  -0.502  0.00  0.00    +0.030 A 
ATOM     18  C   LIG    1       -0.213   1.722   0.522  0.00  0.00    +0.000 A 
ATOM     19  C   LIG    1        0.977   2.423   0.503  0.00  0.00    +0.050 A 
ATOM     20  C   LIG    1        1.255   3.289  -0.545  0.00  0.00    +0.120 A 
BRANCH  15  22
ATOM     21  C   LIG    1       -0.394   4.406  -3.628  0.00  0.00    +0.250 C 
ATOM     22  O   LIG    1        0.599   4.294  -2.607  0.00  0.00    -0.320 OA
ENDBRANCH  15  22
ENDBRANCH  11  20
ENDBRANCH   5  13
ENDBRANCH   1   8
BRANCH   3  23
ATOM     23  C   LIG    1       10.711   6.835   0.352  0.00  0.00    +0.270 C 
BRANCH  23  24
ATOM     24  O   LIG    1       11.868   5.957   0.333  0.00  0.00    -0.330 OA
BRANCH  24  25
ATOM     25  C   LIG    1       13.076   6.542   0.308  0.00  0.00    +0.470 C 
ATOM     26  O   LIG    1       13.164   7.747   0.302  0.00  0.00    -0.500 OA
BRANCH  25  27
ATOM     27  C   LIG    1       14.322   5.695   0.287  0.00  0.00    +0.120 C 
BRANCH  27  28
ATOM     28  C   LIG    1       15.555   6.601   0.261  0.00  0.00    +0.300 C 
BRANCH  28  29
ATOM     29  N   LIG    1       16.766   5.778   0.241  0.00  0.00    -1.120 NA
ATOM     30  H   LIG    1       16.716   4.835   0.462  0.00  0.00    +0.420 HD
BRANCH  29  31
ATOM     31  S   LIG    1       18.222   6.457  -0.160  0.00  0.00    +2.700 S 
ATOM     32  O   LIG    1       18.004   7.199  -1.352  0.00  0.00    -0.950 OA
ATOM     33  O   LIG    1       19.190   5.422  -0.055  0.00  0.00    -0.950 OA
BRANCH  31  34
ATOM     34  C   LIG    1       18.612   7.632   1.093  0.00  0.00    -0.680 A 
ATOM     35  C   LIG    1       18.202   8.946   0.961  0.00  0.00    +0.120 A 
ATOM     36  C   LIG    1       18.504   9.867   1.947  0.00  0.00    -0.010 A 
ATOM     37  C   LIG    1       19.225   9.476   3.060  0.00  0.00    +0.070 A 
ATOM     38  C   LIG    1       19.640   8.164   3.190  0.00  0.00    -0.010 A 
ATOM     39  C   LIG    1       19.334   7.242   2.206  0.00  0.00    +0.120 A 
ENDBRANCH  31  34
ENDBRANCH  29  31
ENDBRANCH  28  29
ENDBRANCH  27  28
ENDBRANCH  25  27
ENDBRANCH  24  25
ENDBRANCH  23  24
ENDBRANCH   3  23
TORSDOF 12
