REMARK  Name = ZINCb800000011jw.0
REMARK                            x       y       z     vdW  Elec       q    Type
REMARK                         _______ _______ _______ _____ _____    ______ ____
ROOT
ATOM      1  O   LIG    1       -0.665  -1.857   1.878  0.00  0.00    -0.540 OA
ATOM      2  C   LIG    1        0.449  -1.389   1.979  0.00  0.00    +0.550 C 
ATOM      3  N   LIG    1        0.873  -0.462   1.096  0.00  0.00    -0.620 N 
ATOM      4  C   LIG    1        0.002  -0.004   0.002  0.00  0.00    +0.260 C 
ATOM      5  C   LIG    1       -0.019   1.529   0.010  0.00  0.00    +0.220 C 
ATOM      6  O   LIG    1        1.325   2.018   0.000  0.00  0.00    -0.380 OA
ATOM      7  C   LIG    1        2.091   1.647   1.149  0.00  0.00    +0.220 C 
ATOM      8  C   LIG    1        2.220   0.121   1.199  0.00  0.00    +0.250 C 
ENDROOT
BRANCH   2   9
ATOM      9  C   LIG    1        1.359  -1.842   3.091  0.00  0.00    -0.070 C 
ATOM     10  C   LIG    1        1.886  -3.277   3.032  0.00  0.00    +0.060 C 
ATOM     11  C   LIG    1        0.819  -2.896   4.060  0.00  0.00    +0.070 C 
ENDBRANCH   2   9
TORSDOF 1
