REMARK  Name = ZINCtV00001bB3ye.0
REMARK                            x       y       z     vdW  Elec       q    Type
REMARK                         _______ _______ _______ _____ _____    ______ ____
ROOT
ATOM      1  N   LIG    1       -0.253  -0.175  -0.328  0.00  0.00    -0.360 N 
ATOM      2  C   LIG    1       -0.420   1.151  -0.628  0.00  0.00    +0.200 A 
ATOM      3  C   LIG    1        0.677   1.867  -0.914  0.00  0.00    +0.000 A 
ATOM      4  S   LIG    1        2.037   0.737  -0.786  0.00  0.00    +0.040 S 
ATOM      5  C   LIG    1        1.029  -0.654  -0.348  0.00  0.00    +0.360 A 
ATOM      6  N   LIG    1        1.429  -1.885  -0.096  0.00  0.00    -0.520 NA
ENDROOT
BRANCH   6   7
ATOM      7  C   LIG    1        2.765  -2.175  -0.052  0.00  0.00    +0.080 A 
ATOM      8  C   LIG    1        3.627  -1.396   0.723  0.00  0.00    +0.010 A 
ATOM      9  C   LIG    1        4.973  -1.697   0.767  0.00  0.00    +0.020 A 
ATOM     10  C   LIG    1        5.472  -2.761   0.036  0.00  0.00    +0.040 A 
ATOM     11  C   LIG    1        4.625  -3.535  -0.739  0.00  0.00    +0.000 A 
ATOM     12  C   LIG    1        3.276  -3.249  -0.789  0.00  0.00    +0.110 A 
ATOM     13  F   LIG    1        2.450  -4.005  -1.546  0.00  0.00    -0.130 F 
ENDBRANCH   6   7
BRANCH   2  14
ATOM     14  C   LIG    1       -1.758   1.767  -0.641  0.00  0.00    -0.140 A 
ATOM     15  C   LIG    1       -2.018   3.061  -0.924  0.00  0.00    +0.050 A 
ATOM     16  C   LIG    1       -3.354   3.405  -0.873  0.00  0.00    +0.050 A 
ATOM     17  C   LIG    1       -4.183   2.408  -0.553  0.00  0.00    -0.220 A 
ATOM     18 BR   LIG    1       -6.062   2.561  -0.403  0.00  0.00    +0.010 Br
ATOM     19  S   LIG    1       -3.266   0.929  -0.299  0.00  0.00    +0.260 S 
ENDBRANCH   2  14
BRANCH   1  21
ATOM     20  C   LIG    1       -1.155  -2.270   0.192  0.00  0.00    +0.340 C 
ATOM     21  N   LIG    1       -1.341  -1.001  -0.017  0.00  0.00    -0.270 NA
BRANCH  20  25
ATOM     22  C   LIG    1       -4.479  -4.830   0.781  0.00  0.00    -0.000 A 
ATOM     23  C   LIG    1       -3.182  -5.351   0.812  0.00  0.00    +0.070 A 
ATOM     24  C   LIG    1       -2.110  -4.526   0.622  0.00  0.00    +0.080 A 
ATOM     25  C   LIG    1       -2.310  -3.160   0.397  0.00  0.00    -0.040 A 
ATOM     26  C   LIG    1       -3.608  -2.638   0.372  0.00  0.00    +0.060 A 
ATOM     27  C   LIG    1       -4.680  -3.465   0.556  0.00  0.00    +0.070 A 
BRANCH  22  29
ATOM     28  N   LIG    1       -6.494  -6.382   1.138  0.00  0.00    -0.400 NA
ATOM     29  C   LIG    1       -5.603  -5.696   0.980  0.00  0.00    +0.250 C 
ENDBRANCH  22  29
ENDBRANCH  20  25
ENDBRANCH   1  21
TORSDOF 5
