REMARK  Name = ZINCqH000003962h.0
REMARK                            x       y       z     vdW  Elec       q    Type
REMARK                         _______ _______ _______ _____ _____    ______ ____
ROOT
ATOM      1  C   LIG    1        2.292   5.295  -2.422  0.00  0.00    +0.120 A 
ATOM      2  C   LIG    1        0.906   5.230  -2.337  0.00  0.00    +0.020 A 
ATOM      3  C   LIG    1        0.126   5.949  -3.217  0.00  0.00    +0.030 A 
ATOM      4  C   LIG    1        0.729   6.732  -4.201  0.00  0.00    +0.000 A 
ATOM      5  C   LIG    1        2.118   6.791  -4.288  0.00  0.00    +0.060 A 
ATOM      6  C   LIG    1        2.895   6.075  -3.402  0.00  0.00    +0.040 A 
ENDROOT
BRANCH   4   7
ATOM      7  C   LIG    1       -0.109   7.502  -5.154  0.00  0.00    +0.080 A 
ATOM      8  C   LIG    1       -1.463   7.532  -5.178  0.00  0.00    +0.160 A 
ATOM      9  N   LIG    1       -1.840   8.370  -6.221  0.00  0.00    -0.420 N 
ATOM     10  C   LIG    1       -2.995   8.844  -6.801  0.00  0.00    +0.220 A 
ATOM     11  C   LIG    1       -2.897   9.667  -7.830  0.00  0.00    +0.020 A 
ATOM     12  S   LIG    1       -1.159   9.877  -8.109  0.00  0.00    +0.160 S 
ATOM     13  C   LIG    1       -0.679   8.810  -6.781  0.00  0.00    +0.160 A 
ATOM     14  N   LIG    1        0.345   8.297  -6.143  0.00  0.00    -0.440 NA
ENDBRANCH   4   7
BRANCH   1  15
ATOM     15  N   LIG    1        3.080   4.569  -1.526  0.00  0.00    -1.060 N 
ATOM     16  H   LIG    1        3.160   3.607  -1.618  0.00  0.00    +0.430 HD
BRANCH  15  17
ATOM     17  S   LIG    1        3.880   5.352  -0.305  0.00  0.00    +2.690 S 
ATOM     18  O   LIG    1        4.524   4.345   0.464  0.00  0.00    -0.950 OA
ATOM     19  O   LIG    1        4.577   6.432  -0.910  0.00  0.00    -0.940 OA
BRANCH  17  24
ATOM     20  C   LIG    1        1.107   5.890   2.566  0.00  0.00    -0.040 A 
ATOM     21  C   LIG    1        0.732   7.221   2.374  0.00  0.00    +0.130 A 
ATOM     22  C   LIG    1        1.326   7.965   1.375  0.00  0.00    +0.010 A 
ATOM     23  C   LIG    1        2.285   7.392   0.559  0.00  0.00    +0.160 A 
ATOM     24  C   LIG    1        2.658   6.072   0.741  0.00  0.00    -0.680 A 
ATOM     25  C   LIG    1        2.076   5.318   1.738  0.00  0.00    +0.180 A 
BRANCH  20  27
ATOM     26  N   LIG    1        0.015   4.498   4.427  0.00  0.00    -0.400 NA
ATOM     27  C   LIG    1        0.498   5.114   3.604  0.00  0.00    +0.250 C 
ENDBRANCH  20  27
ENDBRANCH  17  24
ENDBRANCH  15  17
ENDBRANCH   1  15
TORSDOF 5
