REMARK  Name = ZINCrH00000No4Rx.1
REMARK                            x       y       z     vdW  Elec       q    Type
REMARK                         _______ _______ _______ _____ _____    ______ ____
ROOT
ATOM      1  C   LIG    1       -3.741   2.155   0.032  0.00  0.00    +0.270 A 
ATOM      2  N   LIG    1       -3.883   3.465   0.045  0.00  0.00    -0.300 NA
ATOM      3  N   LIG    1       -5.263   3.725   0.047  0.00  0.00    -0.460 N 
ATOM      4  H   LIG    1       -5.689   4.596   0.054  0.00  0.00    +0.450 HD
ATOM      5  C   LIG    1       -5.882   2.522   0.044  0.00  0.00    +0.250 A 
ATOM      6  N   LIG    1       -4.958   1.587   0.034  0.00  0.00    -0.530 NA
ENDROOT
BRANCH   1   8
ATOM      7  C   LIG    1       -1.301   2.116   0.020  0.00  0.00    +0.070 C 
ATOM      8  C   LIG    1       -2.457   1.432   0.021  0.00  0.00    +0.060 C 
BRANCH   7  15
ATOM      9  C   LIG    1        1.178   3.608   0.010  0.00  0.00    +0.090 C 
ATOM     10  C   LIG    1        1.188   2.101   0.002  0.00  0.00    -0.060 A 
ATOM     11  C   LIG    1        2.385   1.418  -0.013  0.00  0.00    +0.010 A 
ATOM     12  C   LIG    1        2.396   0.034  -0.021  0.00  0.00    +0.010 A 
ATOM     13  C   LIG    1        1.208  -0.674  -0.013  0.00  0.00    +0.000 A 
ATOM     14  C   LIG    1        0.002  -0.004   0.002  0.00  0.00    +0.030 A 
ATOM     15  C   LIG    1       -0.017   1.393   0.010  0.00  0.00    -0.070 A 
ENDBRANCH   7  15
ENDBRANCH   1   8
BRANCH   5  16
ATOM     16  S   LIG    1       -7.623   2.255   0.051  0.00  0.00    +0.090 S 
BRANCH  16  17
ATOM     17  C   LIG    1       -7.664   0.446   0.041  0.00  0.00    +0.110 C 
BRANCH  17  18
ATOM     18  C   LIG    1       -9.096  -0.025   0.046  0.00  0.00    +0.530 C 
ATOM     19  N   LIG    1       -9.372  -1.344   0.040  0.00  0.00    -0.720 N 
ATOM     20  H   LIG    1       -8.649  -1.990   0.032  0.00  0.00    +0.410 HD
ATOM     21  O   LIG    1      -10.000   0.784   0.055  0.00  0.00    -0.520 OA
BRANCH  19  22
ATOM     22  C   LIG    1      -10.764  -1.801   0.044  0.00  0.00    +0.260 C 
BRANCH  22  23
ATOM     23  C   LIG    1      -10.798  -3.330   0.036  0.00  0.00    +0.070 C 
BRANCH  23  24
ATOM     24  C   LIG    1      -12.230  -3.801   0.040  0.00  0.00    -0.090 A 
ATOM     25  C   LIG    1      -12.879  -4.029   1.240  0.00  0.00    +0.010 A 
ATOM     26  C   LIG    1      -14.194  -4.455   1.244  0.00  0.00    +0.000 A 
ATOM     27  C   LIG    1      -14.856  -4.664   0.049  0.00  0.00    +0.000 A 
ATOM     28  C   LIG    1      -14.206  -4.441  -1.151  0.00  0.00    +0.000 A 
ATOM     29  C   LIG    1      -12.893  -4.010  -1.155  0.00  0.00    +0.010 A 
ENDBRANCH  23  24
ENDBRANCH  22  23
ENDBRANCH  19  22
ENDBRANCH  17  18
ENDBRANCH  16  17
ENDBRANCH   5  16
TORSDOF 8
