REMARK  Name = ZINCrH00000No4RX.0
REMARK                            x       y       z     vdW  Elec       q    Type
REMARK                         _______ _______ _______ _____ _____    ______ ____
ROOT
ATOM      1  C   LIG    1       -1.847   1.073   0.458  0.00  0.00    -0.100 C 
ATOM      2  C   LIG    1       -1.666   2.413   0.576  0.00  0.00    +0.180 C 
ENDROOT
BRANCH   2   3
ATOM      3  C   LIG    1       -2.777   3.286   0.507  0.00  0.00    -0.180 A 
ATOM      4  C   LIG    1       -2.716   4.652   0.613  0.00  0.00    +0.070 A 
ATOM      5  C   LIG    1       -3.924   5.285   0.516  0.00  0.00    +0.050 A 
ATOM      6  C   LIG    1       -4.993   4.456   0.329  0.00  0.00    -0.170 A 
ATOM      7  S   LIG    1       -4.445   2.786   0.266  0.00  0.00    +0.180 S 
BRANCH   6   8
ATOM      8  C   LIG    1       -6.396   4.895   0.195  0.00  0.00    +0.040 A 
ATOM      9  C   LIG    1       -6.986   5.674   1.192  0.00  0.00    +0.060 A 
ATOM     10  C   LIG    1       -8.296   6.086   1.057  0.00  0.00    +0.080 A 
ATOM     11  C   LIG    1       -9.028   5.720  -0.058  0.00  0.00    +0.040 A 
ATOM     12  C   LIG    1       -8.451   4.944  -1.048  0.00  0.00    +0.090 A 
ATOM     13  C   LIG    1       -7.141   4.529  -0.929  0.00  0.00    -0.030 A 
BRANCH  13  14
ATOM     14  N   LIG    1       -6.526   3.699  -1.988  0.00  0.00    +0.020 N 
ATOM     15  O   LIG    1       -7.188   2.848  -2.556  0.00  0.00    -0.150 OA
ATOM     16  O   LIG    1       -5.359   3.866  -2.293  0.00  0.00    -0.130 OA
ENDBRANCH  13  14
ENDBRANCH   6   8
ENDBRANCH   2   3
BRANCH   1  19
ATOM     17  C   LIG    1       -2.264  -1.673   0.216  0.00  0.00    +0.300 C 
ATOM     18  N   LIG    1       -0.917  -1.130   0.409  0.00  0.00    -0.610 N 
ATOM     19  C   LIG    1       -0.737   0.201   0.526  0.00  0.00    +0.560 C 
ATOM     20  O   LIG    1        0.383   0.652   0.687  0.00  0.00    -0.540 OA
BRANCH  18  21
ATOM     21  C   LIG    1        0.234  -2.034   0.474  0.00  0.00    +0.290 C 
BRANCH  21  22
ATOM     22  C   LIG    1        0.472  -2.452   1.926  0.00  0.00    +0.210 C 
BRANCH  22  23
ATOM     23  C   LIG    1        1.747  -3.295   2.011  0.00  0.00    +0.420 C 
ATOM     24  F   LIG    1        1.607  -4.435   1.214  0.00  0.00    -0.180 F 
ATOM     25  F   LIG    1        1.965  -3.677   3.339  0.00  0.00    -0.170 F 
ATOM     26  F   LIG    1        2.835  -2.541   1.559  0.00  0.00    -0.170 F 
ENDBRANCH  22  23
BRANCH  22  27
ATOM     27  O   LIG    1       -0.639  -3.222   2.388  0.00  0.00    -0.530 OA
ATOM     28  H   LIG    1       -0.796  -4.030   1.880  0.00  0.00    +0.380 HD
ENDBRANCH  22  27
ENDBRANCH  21  22
ENDBRANCH  18  21
ENDBRANCH   1  19
TORSDOF 8
