REMARK  Name = ZINCwl000000064v.0
REMARK                            x       y       z     vdW  Elec       q    Type
REMARK                         _______ _______ _______ _____ _____    ______ ____
ROOT
ATOM      1  C   LIG    1        5.999   1.847  -0.082  0.00  0.00    +0.570 C 
ATOM      2  N   LIG    1        7.106   1.081  -0.022  0.00  0.00    -0.600 N 
ATOM      3  O   LIG    1        6.099   3.052  -0.206  0.00  0.00    -0.490 OA
ENDROOT
BRANCH   1  11
ATOM      4  N   LIG    1        0.991  -0.641   0.175  0.00  0.00    -0.520 N 
ATOM      5  C   LIG    1       -0.059  -0.017   0.734  0.00  0.00    +0.710 A 
ATOM      6  N   LIG    1        0.018   1.217   1.257  0.00  0.00    -0.660 N 
ATOM      7  H   LIG    1       -0.773   1.621   1.645  0.00  0.00    +0.440 HD
ATOM      8  C   LIG    1        1.180   1.907   1.247  0.00  0.00    +0.570 A 
ATOM      9  C   LIG    1        2.363   1.268   0.645  0.00  0.00    -0.240 A 
ATOM     10  C   LIG    1        3.596   1.908   0.594  0.00  0.00    +0.270 A 
ATOM     11  C   LIG    1        4.664   1.222   0.003  0.00  0.00    -0.230 A 
ATOM     12  C   LIG    1        4.449  -0.063  -0.506  0.00  0.00    +0.330 A 
ATOM     13  N   LIG    1        3.267  -0.637  -0.440  0.00  0.00    -0.510 NA
ATOM     14  O   LIG    1        1.247   3.025   1.722  0.00  0.00    -0.470 OA
ATOM     15  O   LIG    1       -1.127  -0.596   0.768  0.00  0.00    -0.510 OA
ATOM     16  C   LIG    1        2.227  -0.029   0.110  0.00  0.00    +0.440 A 
BRANCH   4  17
ATOM     17  C   LIG    1        0.822  -1.989  -0.374  0.00  0.00    +0.320 C 
BRANCH  17  19
ATOM     18  C   LIG    1        0.240  -3.301  -2.418  0.00  0.00    +0.030 C 
ATOM     19  C   LIG    1        0.416  -1.893  -1.846  0.00  0.00    +0.000 C 
ENDBRANCH  17  19
ENDBRANCH   4  17
ENDBRANCH   1  11
BRANCH   2  20
ATOM     20  C   LIG    1        8.429   1.709   0.042  0.00  0.00    +0.360 C 
BRANCH  20  21
ATOM     21  C   LIG    1        8.810   1.931   1.483  0.00  0.00    -0.100 A 
ATOM     22  C   LIG    1        8.476   3.120   2.108  0.00  0.00    +0.050 A 
ATOM     23  C   LIG    1        8.817   3.328   3.428  0.00  0.00    +0.070 A 
ATOM     24  C   LIG    1        9.511   2.341   4.131  0.00  0.00    -0.010 A 
ATOM     25  C   LIG    1        9.850   1.146   3.492  0.00  0.00    +0.070 A 
ATOM     26  C   LIG    1        9.497   0.949   2.173  0.00  0.00    +0.020 A 
BRANCH  24  27
ATOM     27  C   LIG    1        9.875   2.553   5.499  0.00  0.00    +0.240 C 
ATOM     28  N   LIG    1       10.163   2.721   6.585  0.00  0.00    -0.390 NA
ENDBRANCH  24  27
ENDBRANCH  20  21
ENDBRANCH   2  20
BRANCH   2  29
ATOM     29  C   LIG    1        6.988  -0.379  -0.021  0.00  0.00    +0.280 C 
BRANCH  29  30
ATOM     30  C   LIG    1        7.319  -0.919  -1.413  0.00  0.00    +0.240 C 
BRANCH  30  31
ATOM     31  N   LIG    1        7.334  -2.387  -1.379  0.00  0.00    -0.380 N 
ATOM     32  C   LIG    1        7.769  -2.904  -2.683  0.00  0.00    +0.330 C 
ATOM     33  C   LIG    1        5.983  -2.883  -1.082  0.00  0.00    +0.320 C 
ATOM     34  H   LIG    1        7.972  -2.701  -0.663  0.00  0.00    +0.430 HD
ENDBRANCH  30  31
ENDBRANCH  29  30
ENDBRANCH   2  29
TORSDOF 9
