REMARK  Name = ZINCqH0000038Vbw.0
REMARK                            x       y       z     vdW  Elec       q    Type
REMARK                         _______ _______ _______ _____ _____    ______ ____
ROOT
ATOM      1  C   LIG    1       -2.592   3.962   0.024  0.00  0.00    +0.070 A 
ATOM      2  N   LIG    1       -3.350   2.882   0.017  0.00  0.00    -0.200 NA
ATOM      3  N   LIG    1       -2.518   1.756   0.019  0.00  0.00    -0.320 N 
ATOM      4  C   LIG    1       -1.220   2.191   0.038  0.00  0.00    +0.150 A 
ATOM      5  C   LIG    1       -1.246   3.558   0.037  0.00  0.00    -0.010 A 
ENDROOT
BRANCH   3   6
ATOM      6  C   LIG    1       -2.938   0.420   0.007  0.00  0.00    +0.150 A 
ATOM      7  C   LIG    1       -3.964   0.021  -0.840  0.00  0.00    +0.050 A 
ATOM      8  C   LIG    1       -4.373  -1.298  -0.853  0.00  0.00    +0.040 A 
ATOM      9  C   LIG    1       -3.770  -2.219  -0.016  0.00  0.00    -0.030 A 
ATOM     10  C   LIG    1       -2.751  -1.823   0.833  0.00  0.00    +0.050 A 
ATOM     11 CL   LIG    1       -4.292  -3.875  -0.030  0.00  0.00    -0.060 Cl
ATOM     12  C   LIG    1       -2.334  -0.507   0.847  0.00  0.00    +0.050 A 
ENDBRANCH   3   6
BRANCH   4  13
ATOM     13  C   LIG    1       -0.016   1.343   0.050  0.00  0.00    +0.020 A 
ATOM     14  C   LIG    1        1.251   1.757   0.328  0.00  0.00    +0.000 A 
ATOM     15  C   LIG    1        2.081   0.624   0.219  0.00  0.00    -0.050 A 
ATOM     16  C   LIG    1        1.290  -0.415  -0.116  0.00  0.00    +0.190 A 
ATOM     17  O   LIG    1        0.024   0.023  -0.217  0.00  0.00    -0.170 OA
ENDBRANCH   4  13
BRANCH   1  18
ATOM     18  C   LIG    1       -3.077   5.360   0.019  0.00  0.00    +0.580 C 
ATOM     19  O   LIG    1       -2.279   6.282   0.027  0.00  0.00    -0.550 OA
BRANCH  18  25
ATOM     20  C   LIG    1       -7.326   9.537  -0.025  0.00  0.00    +0.370 C 
ATOM     21  N   LIG    1       -6.139   8.679  -0.013  0.00  0.00    -0.390 N 
ATOM     22  C   LIG    1       -4.844   9.107  -0.000  0.00  0.00    +0.350 A 
ATOM     23  C   LIG    1       -4.027   8.033   0.008  0.00  0.00    -0.110 A 
ATOM     24  C   LIG    1       -4.826   6.870   0.001  0.00  0.00    +0.490 A 
ATOM     25  N   LIG    1       -4.390   5.613   0.006  0.00  0.00    -0.660 NA
ATOM     26  N   LIG    1       -6.138   7.277  -0.018  0.00  0.00    -0.470 N 
ATOM     27  H   LIG    1       -6.919   6.702  -0.030  0.00  0.00    +0.450 HD
ENDBRANCH  18  25
ENDBRANCH   1  18
TORSDOF 4
