REMARK  Name = ZINCpk000000ozze.2
REMARK                            x       y       z     vdW  Elec       q    Type
REMARK                         _______ _______ _______ _____ _____    ______ ____
ROOT
ATOM      1  N   LIG    1       -0.729   3.042  -1.273  0.00  0.00    -0.500 NA
ATOM      2  C   LIG    1       -0.725   1.564  -1.183  0.00  0.00    +0.180 C 
ATOM      3  C   LIG    1       -0.044   1.085   0.018  0.00  0.00    +0.050 C 
ATOM      4  C   LIG    1       -0.729   1.591   1.305  0.00  0.00    +0.200 C 
ATOM      5  N   LIG    1       -0.332   2.959   1.531  0.00  0.00    -0.460 N 
ATOM      6  C   LIG    1       -1.264   3.964   0.967  0.00  0.00    +0.230 C 
ATOM      7  C   LIG    1       -1.772   3.584  -0.436  0.00  0.00    +0.180 C 
ENDROOT
BRANCH   5   8
ATOM      8  C   LIG    1       -0.103   3.195   2.877  0.00  0.00    +0.380 A 
ATOM      9  N   LIG    1       -0.699   4.213   3.462  0.00  0.00    -0.510 NA
ATOM     10  C   LIG    1       -0.508   4.479   4.759  0.00  0.00    +0.300 A 
ATOM     11  N   LIG    1       -1.119   5.516   5.343  0.00  0.00    -0.430 NA
ATOM     12  C   LIG    1       -0.918   5.759   6.619  0.00  0.00    +0.290 A 
ATOM     13  C   LIG    1       -0.073   4.946   7.375  0.00  0.00    +0.230 A 
ATOM     14  N   LIG    1        0.538   3.921   6.824  0.00  0.00    -0.410 NA
ATOM     15  C   LIG    1        0.350   3.655   5.530  0.00  0.00    +0.000 A 
ATOM     16  C   LIG    1        0.992   2.562   4.909  0.00  0.00    +0.140 A 
ATOM     17  C   LIG    1        0.754   2.339   3.587  0.00  0.00    -0.020 A 
ENDBRANCH   5   8
BRANCH   1  18
ATOM     18  C   LIG    1       -0.889   3.485  -2.665  0.00  0.00    +0.260 C 
BRANCH  18  20
ATOM     19  N   LIG    1       -2.566   3.260  -4.469  0.00  0.00    -0.610 N 
ATOM     20  C   LIG    1       -2.236   3.048  -3.179  0.00  0.00    +0.480 C 
ATOM     21  O   LIG    1       -3.024   2.506  -2.433  0.00  0.00    -0.540 OA
BRANCH  19  23
ATOM     22  C   LIG    1       -0.732   2.858  -6.036  0.00  0.00    +0.020 C 
ATOM     23  C   LIG    1       -1.615   3.916  -5.370  0.00  0.00    +0.260 C 
ENDBRANCH  19  23
BRANCH  19  24
ATOM     24  C   LIG    1       -3.876   2.836  -4.969  0.00  0.00    +0.270 C 
ATOM     25  C   LIG    1       -4.883   3.973  -4.791  0.00  0.00    +0.020 C 
ENDBRANCH  19  24
ENDBRANCH  18  20
ENDBRANCH   1  18
TORSDOF 5
