REMARK  Name = ZINCvU0000000Cov.0
REMARK                            x       y       z     vdW  Elec       q    Type
REMARK                         _______ _______ _______ _____ _____    ______ ____
ROOT
ATOM      1  O   LIG    1       -7.136   3.932  -1.317  0.00  0.00    -0.490 OA
ATOM      2  C   LIG    1       -6.232   3.439  -0.675  0.00  0.00    +0.530 C 
ATOM      3  N   LIG    1       -6.450   2.321   0.045  0.00  0.00    -0.670 N 
ATOM      4  H   LIG    1       -5.711   1.883   0.497  0.00  0.00    +0.420 HD
ENDROOT
BRANCH   3   5
ATOM      5  C   LIG    1       -7.741   1.790   0.141  0.00  0.00    +0.130 A 
ATOM      6  C   LIG    1       -7.924   0.417   0.234  0.00  0.00    +0.050 A 
ATOM      7  C   LIG    1       -9.200  -0.103   0.328  0.00  0.00    +0.020 A 
ATOM      8  C   LIG    1      -10.295   0.742   0.330  0.00  0.00    +0.100 A 
ATOM      9  C   LIG    1      -10.116   2.110   0.237  0.00  0.00    -0.660 A 
ATOM     10  C   LIG    1       -8.842   2.637   0.149  0.00  0.00    +0.130 A 
BRANCH   9  11
ATOM     11  S   LIG    1      -11.514   3.183   0.238  0.00  0.00    +2.680 S 
ATOM     12  O   LIG    1      -12.617   2.405  -0.207  0.00  0.00    -0.950 OA
ATOM     13  O   LIG    1      -11.100   4.382  -0.403  0.00  0.00    -0.950 OA
BRANCH  11  14
ATOM     14  N   LIG    1      -11.827   3.578   1.815  0.00  0.00    -0.990 NA
ATOM     15  C   LIG    1      -12.732   2.744   2.572  0.00  0.00    +0.280 C 
ATOM     16  C   LIG    1      -14.180   3.250   2.402  0.00  0.00    +0.010 C 
ATOM     17  C   LIG    1      -14.364   4.521   3.119  0.00  0.00    +0.000 C 
ATOM     18  C   LIG    1      -13.498   5.665   2.601  0.00  0.00    +0.010 C 
ATOM     19  C   LIG    1      -12.140   5.601   3.255  0.00  0.00    +0.030 C 
ATOM     20  C   LIG    1      -11.175   4.772   2.388  0.00  0.00    +0.270 C 
ENDBRANCH  11  14
ENDBRANCH   9  11
ENDBRANCH   3   5
BRANCH   2  21
ATOM     21  C   LIG    1       -4.867   4.077  -0.682  0.00  0.00    +0.080 C 
BRANCH  21  22
ATOM     22  S   LIG    1       -4.895   5.554  -1.734  0.00  0.00    -0.020 S 
BRANCH  22  23
ATOM     23  C   LIG    1       -3.242   6.154  -1.621  0.00  0.00    -0.100 A 
ATOM     24  C   LIG    1       -2.881   7.293  -2.308  0.00  0.00    +0.050 A 
ATOM     25  C   LIG    1       -1.564   7.770  -2.210  0.00  0.00    -0.030 A 
ATOM     26  C   LIG    1       -1.159   8.931  -2.890  0.00  0.00    +0.020 A 
ATOM     27  C   LIG    1        0.126   9.367  -2.773  0.00  0.00    +0.020 A 
ATOM     28  C   LIG    1        1.047   8.678  -1.987  0.00  0.00    +0.000 A 
ATOM     29  C   LIG    1        0.691   7.550  -1.314  0.00  0.00    +0.030 A 
ATOM     30  C   LIG    1       -0.626   7.070  -1.410  0.00  0.00    -0.060 A 
ATOM     31  C   LIG    1       -1.028   5.908  -0.727  0.00  0.00    +0.050 A 
ATOM     32  C   LIG    1       -2.307   5.465  -0.837  0.00  0.00    -0.010 A 
ENDBRANCH  22  23
ENDBRANCH  21  22
ENDBRANCH   2  21
TORSDOF 6
