REMARK  Name = ZINCpk000000nxHh.0
REMARK                            x       y       z     vdW  Elec       q    Type
REMARK                         _______ _______ _______ _____ _____    ______ ____
ROOT
ATOM      1  C   LIG    1       -1.239   2.140   0.020  0.00  0.00    +0.480 C 
ENDROOT
BRANCH   1   6
ATOM      2  C   LIG    1        2.165   0.655  -0.015  0.00  0.00    +0.220 C 
ATOM      3  N   LIG    1        1.252  -0.501  -0.013  0.00  0.00    -0.720 N 
ATOM      4  H   LIG    1        1.503  -1.438  -0.021  0.00  0.00    +0.440 HD
ATOM      5  C   LIG    1        0.002  -0.004   0.002  0.00  0.00    +0.700 C 
ATOM      6  N   LIG    1       -0.016   1.334   0.009  0.00  0.00    -0.570 N 
ATOM      7  O   LIG    1       -0.999  -0.693   0.008  0.00  0.00    -0.540 OA
ATOM      8  C   LIG    1        1.230   1.848   0.000  0.00  0.00    +0.530 C 
ATOM      9  O   LIG    1        1.538   3.020   0.003  0.00  0.00    -0.460 OA
BRANCH   2  10
ATOM     10  C   LIG    1        3.047   0.647   1.235  0.00  0.00    +0.060 C 
BRANCH  10  12
ATOM     11  C   LIG    1        4.957  -0.400   0.009  0.00  0.00    +0.020 C 
ATOM     12  C   LIG    1        3.991  -0.557   1.185  0.00  0.00    -0.020 C 
ATOM     13  C   LIG    1        4.785  -0.636   2.490  0.00  0.00    +0.030 C 
ENDBRANCH  10  12
ENDBRANCH   2  10
ENDBRANCH   1   6
BRANCH   1  14
ATOM     14  N   LIG    1       -1.641   2.403   1.408  0.00  0.00    -0.550 NA
ATOM     15  C   LIG    1       -2.355   1.251   1.976  0.00  0.00    +0.190 C 
ATOM     16  C   LIG    1       -2.596   1.491   3.470  0.00  0.00    +0.300 C 
ATOM     17  N   LIG    1       -3.274   2.785   3.633  0.00  0.00    -0.600 N 
ATOM     18  C   LIG    1       -2.691   3.964   2.975  0.00  0.00    +0.310 C 
ATOM     19  C   LIG    1       -4.402   2.889   4.365  0.00  0.00    +0.660 C 
ATOM     20  O   LIG    1       -4.949   3.966   4.488  0.00  0.00    -0.570 OA
ATOM     21  C   LIG    1       -2.446   3.628   1.500  0.00  0.00    +0.200 C 
BRANCH  19  22
ATOM     22  O   LIG    1       -4.920   1.798   4.959  0.00  0.00    -0.360 OA
BRANCH  22  23
ATOM     23  C   LIG    1       -6.136   1.983   5.732  0.00  0.00    +0.140 C 
ATOM     24  C   LIG    1       -5.875   2.982   6.861  0.00  0.00    +0.040 C 
ATOM     25  C   LIG    1       -6.572   0.643   6.327  0.00  0.00    +0.080 C 
ATOM     26  C   LIG    1       -7.242   2.521   4.821  0.00  0.00    +0.040 C 
ENDBRANCH  22  23
ENDBRANCH  19  22
ENDBRANCH   1  14
TORSDOF 6
