REMARK  Name = ZINC9p0000002rnb.0
REMARK                            x       y       z     vdW  Elec       q    Type
REMARK                         _______ _______ _______ _____ _____    ______ ____
ROOT
ATOM      1  C   LIG    1        1.405   1.701   2.561  0.00  0.00    +0.090 C 
ATOM      2  C   LIG    1        0.011   1.072   2.506  0.00  0.00    +0.170 C 
ENDROOT
BRANCH   2   3
ATOM      3  C   LIG    1       -0.729   1.579   1.267  0.00  0.00    -0.010 C 
ATOM      4  C   LIG    1       -0.013   1.086   0.008  0.00  0.00    +0.040 C 
ATOM      5  C   LIG    1       -0.753   1.593  -1.232  0.00  0.00    +0.020 C 
ATOM      6  C   LIG    1       -0.773   3.123  -1.223  0.00  0.00    +0.010 C 
ATOM      7  C   LIG    1       -1.490   3.616   0.036  0.00  0.00    +0.020 C 
ATOM      8  C   LIG    1       -0.750   3.109   1.275  0.00  0.00    +0.010 C 
ENDBRANCH   2   3
BRANCH   2   9
ATOM      9  N   LIG    1       -0.741   1.444   3.712  0.00  0.00    -0.640 N 
ATOM     10  H   LIG    1       -1.660   1.030   3.676  0.00  0.00    +0.440 HD
ATOM     11  H   LIG    1       -0.827   2.449   3.759  0.00  0.00    +0.430 HD
ATOM     12  H   LIG    1       -0.253   1.110   4.529  0.00  0.00    +0.440 HD
ENDBRANCH   2   9
TORSDOF 2
