REMARK  Name = ZINCpk00000KfLGT.1
REMARK                            x       y       z     vdW  Elec       q    Type
REMARK                         _______ _______ _______ _____ _____    ______ ____
ROOT
ATOM      1  C   LIG    1        2.470  -0.275   0.587  0.00  0.00    +0.270 C 
ATOM      2  C   LIG    1        1.010  -0.667   0.842  0.00  0.00    +0.290 C 
ATOM      3  N   LIG    1        0.168  -0.004  -0.167  0.00  0.00    -0.610 N 
ATOM      4  C   LIG    1        0.338   1.444  -0.366  0.00  0.00    +0.260 C 
ATOM      5  C   LIG    1        1.831   1.733  -0.563  0.00  0.00    +0.230 C 
ATOM      6  C   LIG    1       -0.732  -0.703  -0.886  0.00  0.00    +0.570 C 
ATOM      7  O   LIG    1       -0.783  -1.913  -0.786  0.00  0.00    -0.520 OA
ATOM      8  O   LIG    1        2.569   1.150   0.514  0.00  0.00    -0.360 OA
ENDROOT
BRANCH   1  11
ATOM      9  C   LIG    1        4.750  -1.999   2.800  0.00  0.00    +0.290 A 
ATOM     10  N   LIG    1        4.152  -1.831   1.649  0.00  0.00    -0.530 NA
ATOM     11  C   LIG    1        3.332  -0.783   1.713  0.00  0.00    +0.230 A 
ATOM     12  N   LIG    1        3.401  -0.263   2.911  0.00  0.00    -0.280 NA
ATOM     13  N   LIG    1        4.315  -1.043   3.639  0.00  0.00    -0.480 N 
ATOM     14  H   LIG    1        4.582  -0.914   4.563  0.00  0.00    +0.440 HD
BRANCH   9  15
ATOM     15  C   LIG    1        5.750  -3.077   3.129  0.00  0.00    +0.150 C 
BRANCH  15  17
ATOM     16  C   LIG    1        6.048  -5.351   4.120  0.00  0.00    +0.030 C 
ATOM     17  C   LIG    1        5.032  -4.257   3.786  0.00  0.00    +0.010 C 
ENDBRANCH  15  17
ENDBRANCH   9  15
ENDBRANCH   1  11
BRANCH   6  18
ATOM     18  C   LIG    1       -1.659   0.004  -1.801  0.00  0.00    -0.040 A 
ATOM     19  C   LIG    1       -2.189   1.254  -1.461  0.00  0.00    -0.080 A 
ATOM     20  C   LIG    1       -3.049   1.881  -2.339  0.00  0.00    +0.310 A 
ATOM     21  N   LIG    1       -3.375   1.321  -3.487  0.00  0.00    -0.530 NA
ATOM     22  C   LIG    1       -2.898   0.141  -3.851  0.00  0.00    +0.400 A 
ATOM     23  C   LIG    1       -2.022  -0.556  -3.026  0.00  0.00    -0.050 A 
BRANCH  22  24
ATOM     24  N   LIG    1       -3.273  -0.405  -5.073  0.00  0.00    -0.610 N 
ATOM     25  C   LIG    1       -4.103   0.371  -5.999  0.00  0.00    +0.300 C 
ATOM     26  C   LIG    1       -2.839  -1.756  -5.436  0.00  0.00    +0.300 C 
ENDBRANCH  22  24
ENDBRANCH   6  18
TORSDOF 5
