REMARK  Name = ZINCpk00000KfLGT.0
REMARK                            x       y       z     vdW  Elec       q    Type
REMARK                         _______ _______ _______ _____ _____    ______ ____
ROOT
ATOM      1  C   LIG    1        0.245   3.139  -4.676  0.00  0.00    +0.250 C 
ATOM      2  C   LIG    1       -0.978   2.675  -5.475  0.00  0.00    +0.300 C 
ATOM      3  N   LIG    1       -1.026   3.435  -6.734  0.00  0.00    -0.610 N 
ATOM      4  C   LIG    1       -0.921   4.901  -6.661  0.00  0.00    +0.260 C 
ATOM      5  C   LIG    1        0.299   5.257  -5.804  0.00  0.00    +0.230 C 
ATOM      6  C   LIG    1       -1.160   2.807  -7.919  0.00  0.00    +0.570 C 
ATOM      7  O   LIG    1       -1.131   1.594  -7.970  0.00  0.00    -0.520 OA
ATOM      8  O   LIG    1        0.218   4.564  -4.557  0.00  0.00    -0.360 OA
ENDROOT
BRANCH   1  12
ATOM      9  C   LIG    1        0.742   1.434  -1.505  0.00  0.00    +0.190 A 
ATOM     10  N   LIG    1       -0.454   1.942  -1.377  0.00  0.00    -0.290 NA
ATOM     11  N   LIG    1       -0.764   2.591  -2.443  0.00  0.00    -0.260 NA
ATOM     12  C   LIG    1        0.215   2.519  -3.303  0.00  0.00    +0.170 A 
ATOM     13  N   LIG    1        1.199   1.783  -2.732  0.00  0.00    -0.570 N 
ATOM     14  H   LIG    1        2.056   1.552  -3.123  0.00  0.00    +0.430 HD
BRANCH   9  15
ATOM     15  C   LIG    1        1.476   0.608  -0.480  0.00  0.00    +0.150 C 
BRANCH  15  17
ATOM     16  C   LIG    1        2.298   0.543   1.878  0.00  0.00    +0.020 C 
ATOM     17  C   LIG    1        1.553   1.381   0.838  0.00  0.00    +0.020 C 
ENDBRANCH  15  17
ENDBRANCH   9  15
ENDBRANCH   1  12
BRANCH   6  18
ATOM     18  C   LIG    1       -1.344   3.597  -9.159  0.00  0.00    -0.040 A 
ATOM     19  C   LIG    1       -2.002   4.832  -9.134  0.00  0.00    -0.070 A 
ATOM     20  C   LIG    1       -2.153   5.538 -10.310  0.00  0.00    +0.310 A 
ATOM     21  N   LIG    1       -1.687   5.066 -11.450  0.00  0.00    -0.530 NA
ATOM     22  C   LIG    1       -1.059   3.904 -11.522  0.00  0.00    +0.400 A 
ATOM     23  C   LIG    1       -0.860   3.132 -10.383  0.00  0.00    -0.040 A 
BRANCH  22  24
ATOM     24  N   LIG    1       -0.587   3.452 -12.749  0.00  0.00    -0.620 N 
ATOM     25  C   LIG    1       -0.689   4.309 -13.934  0.00  0.00    +0.290 C 
ATOM     26  C   LIG    1        0.011   2.119 -12.859  0.00  0.00    +0.300 C 
ENDBRANCH  22  24
ENDBRANCH   6  18
TORSDOF 5
