REMARK  Name = ZINCpk00000KfLGT.2
REMARK                            x       y       z     vdW  Elec       q    Type
REMARK                         _______ _______ _______ _____ _____    ______ ____
ROOT
ATOM      1  C   LIG    1        0.334   3.907  -1.276  0.00  0.00    +0.250 C 
ATOM      2  C   LIG    1       -0.808   3.725  -0.270  0.00  0.00    +0.300 C 
ATOM      3  N   LIG    1       -0.236   3.249   1.000  0.00  0.00    -0.610 N 
ATOM      4  C   LIG    1        0.672   2.092   0.960  0.00  0.00    +0.260 C 
ATOM      5  C   LIG    1        1.741   2.353  -0.107  0.00  0.00    +0.230 C 
ATOM      6  C   LIG    1       -0.534   3.857   2.165  0.00  0.00    +0.570 C 
ATOM      7  O   LIG    1       -1.202   4.872   2.168  0.00  0.00    -0.520 OA
ATOM      8  O   LIG    1        1.103   2.704  -1.338  0.00  0.00    -0.360 OA
ENDROOT
BRANCH   1  13
ATOM      9  C   LIG    1       -1.397   4.047  -4.454  0.00  0.00    +0.230 A 
ATOM     10  N   LIG    1       -0.697   5.144  -4.576  0.00  0.00    -0.300 NA
ATOM     11  N   LIG    1        0.066   5.271  -3.404  0.00  0.00    -0.470 N 
ATOM     12  H   LIG    1        0.689   5.983  -3.190  0.00  0.00    +0.440 HD
ATOM     13  C   LIG    1       -0.238   4.209  -2.638  0.00  0.00    +0.290 A 
ATOM     14  N   LIG    1       -1.113   3.480  -3.282  0.00  0.00    -0.510 NA
BRANCH   9  15
ATOM     15  C   LIG    1       -2.363   3.506  -5.477  0.00  0.00    +0.150 C 
BRANCH  15  17
ATOM     16  C   LIG    1       -2.602   2.026  -7.475  0.00  0.00    +0.030 C 
ATOM     17  C   LIG    1       -1.621   2.574  -6.437  0.00  0.00    +0.010 C 
ENDBRANCH  15  17
ENDBRANCH   9  15
ENDBRANCH   1  13
BRANCH   6  18
ATOM     18  C   LIG    1       -0.048   3.286   3.443  0.00  0.00    -0.040 A 
ATOM     19  C   LIG    1        0.127   1.905   3.594  0.00  0.00    -0.070 A 
ATOM     20  C   LIG    1        0.586   1.413   4.798  0.00  0.00    +0.310 A 
ATOM     21  N   LIG    1        0.851   2.221   5.806  0.00  0.00    -0.530 NA
ATOM     22  C   LIG    1        0.696   3.532   5.712  0.00  0.00    +0.400 A 
ATOM     23  C   LIG    1        0.243   4.111   4.531  0.00  0.00    -0.050 A 
BRANCH  22  24
ATOM     24  N   LIG    1        0.990   4.340   6.804  0.00  0.00    -0.610 N 
ATOM     25  C   LIG    1        1.572   3.752   8.014  0.00  0.00    +0.300 C 
ATOM     26  C   LIG    1        0.718   5.778   6.747  0.00  0.00    +0.300 C 
ENDBRANCH  22  24
ENDBRANCH   6  18
TORSDOF 5
