REMARK  Name = ZINCrD0000073nx6.0
REMARK                            x       y       z     vdW  Elec       q    Type
REMARK                         _______ _______ _______ _____ _____    ______ ____
ROOT
ATOM      1  C   LIG    1       -2.222   8.276  -1.045  0.00  0.00    +0.550 C 
ATOM      2  O   LIG    1       -3.263   7.670  -1.204  0.00  0.00    -0.520 OA
ENDROOT
BRANCH   1   3
ATOM      3  C   LIG    1       -2.090   9.656  -1.542  0.00  0.00    -0.280 A 
ATOM      4  C   LIG    1       -3.056  10.384  -2.207  0.00  0.00    +0.330 A 
ATOM      5  N   LIG    1       -2.534  11.591  -2.479  0.00  0.00    -0.350 N 
ATOM      6  N   LIG    1       -1.223  11.627  -1.992  0.00  0.00    -0.290 NA
ATOM      7  C   LIG    1       -0.948  10.481  -1.433  0.00  0.00    +0.300 A 
BRANCH   5   8
ATOM      8  C   LIG    1       -3.220  12.683  -3.174  0.00  0.00    +0.380 C 
BRANCH   8   9
ATOM      9  C   LIG    1       -3.178  13.925  -2.322  0.00  0.00    -0.120 A 
ATOM     10  C   LIG    1       -4.194  14.178  -1.420  0.00  0.00    +0.020 A 
ATOM     11  C   LIG    1       -4.154  15.315  -0.635  0.00  0.00    +0.010 A 
ATOM     12  C   LIG    1       -3.103  16.204  -0.760  0.00  0.00    +0.010 A 
ATOM     13  C   LIG    1       -2.090  15.954  -1.666  0.00  0.00    +0.010 A 
ATOM     14  C   LIG    1       -2.127  14.814  -2.447  0.00  0.00    +0.050 A 
ENDBRANCH   8   9
ENDBRANCH   5   8
ENDBRANCH   1   3
BRANCH   1  15
ATOM     15  O   LIG    1       -1.188   7.684  -0.415  0.00  0.00    -0.330 OA
BRANCH  15  16
ATOM     16  C   LIG    1       -1.389   6.323   0.048  0.00  0.00    +0.160 C 
ATOM     17  C   LIG    1       -1.943   6.346   1.474  0.00  0.00    +0.060 C 
BRANCH  16  18
ATOM     18  C   LIG    1       -0.074   5.587   0.032  0.00  0.00    +0.400 C 
ATOM     19  O   LIG    1        0.968   6.208   0.026  0.00  0.00    -0.430 OA
BRANCH  18  23
ATOM     20  C   LIG    1       -0.016   1.352   0.009  0.00  0.00    +0.170 A 
ATOM     21  C   LIG    1       -1.232   2.029   0.019  0.00  0.00    -0.080 A 
ATOM     22  C   LIG    1       -1.256   3.400   0.031  0.00  0.00    +0.110 A 
ATOM     23  C   LIG    1       -0.054   4.119   0.024  0.00  0.00    -0.210 A 
ATOM     24  C   LIG    1        1.167   3.433   0.009  0.00  0.00    +0.130 A 
ATOM     25  C   LIG    1        1.180   2.062   0.002  0.00  0.00    -0.020 A 
BRANCH  20  27
ATOM     26  C   LIG    1       -1.262  -0.670   0.011  0.00  0.00    +0.250 C 
ATOM     27  O   LIG    1        0.002  -0.004   0.002  0.00  0.00    -0.310 OA
ENDBRANCH  20  27
ENDBRANCH  18  23
ENDBRANCH  16  18
ENDBRANCH  15  16
ENDBRANCH   1  15
TORSDOF 8
