REMARK  Name = ZINCpe00000MJICN.0
REMARK                            x       y       z     vdW  Elec       q    Type
REMARK                         _______ _______ _______ _____ _____    ______ ____
ROOT
ATOM      1  C   LIG    1       -1.016   1.404   5.590  0.00  0.00    +0.160 C 
ATOM      2  C   LIG    1        0.348   1.394   6.313  0.00  0.00    +0.250 C 
ATOM      3  N   LIG    1        0.804   2.803   6.271  0.00  0.00    -0.620 N 
ATOM      4  C   LIG    1        0.416   3.273   4.920  0.00  0.00    +0.280 C 
ATOM      5  C   LIG    1        1.430   3.499   7.241  0.00  0.00    +0.540 C 
ATOM      6  O   LIG    1        1.742   4.655   7.052  0.00  0.00    -0.520 OA
ATOM      7  C   LIG    1       -0.971   2.643   4.672  0.00  0.00    +0.100 C 
ENDROOT
BRANCH   7   8
ATOM      8  C   LIG    1       -1.108   2.231   3.229  0.00  0.00    -0.010 A 
ATOM      9  C   LIG    1       -0.115   1.824   2.405  0.00  0.00    +0.140 A 
ATOM     10  N   LIG    1       -0.698   1.558   1.213  0.00  0.00    -0.290 N 
ATOM     11  N   LIG    1       -1.959   1.797   1.319  0.00  0.00    -0.080 NA
ATOM     12  C   LIG    1       -0.013   1.086   0.008  0.00  0.00    +0.370 C 
ATOM     13  N   LIG    1       -2.236   2.195   2.511  0.00  0.00    -0.260 NA
ENDBRANCH   7   8
BRANCH   1  15
ATOM     14  C   LIG    1       -2.641   0.277   6.945  0.00  0.00    +0.200 C 
ATOM     15  O   LIG    1       -2.079   1.526   6.537  0.00  0.00    -0.370 OA
ENDBRANCH   1  15
BRANCH   5  16
ATOM     16  C   LIG    1        1.742   2.840   8.559  0.00  0.00    +0.140 C 
BRANCH  16  17
ATOM     17  C   LIG    1        2.438   3.826   9.462  0.00  0.00    -0.200 A 
ATOM     18  C   LIG    1        1.860   4.615  10.406  0.00  0.00    +0.240 A 
ATOM     19  N   LIG    1        2.791   5.358  11.007  0.00  0.00    -0.540 NA
ATOM     20  C   LIG    1        3.988   5.103  10.505  0.00  0.00    +0.250 A 
ATOM     21  N   LIG    1        5.246   5.583  10.766  0.00  0.00    -0.490 N 
ATOM     22  H   LIG    1        5.369   6.258  11.452  0.00  0.00    +0.420 HD
ATOM     23  C   LIG    1        6.308   5.130  10.081  0.00  0.00    +0.330 A 
ATOM     24  C   LIG    1        6.184   4.185   9.108  0.00  0.00    -0.080 A 
ATOM     25  C   LIG    1        4.936   3.657   8.796  0.00  0.00    +0.170 A 
ATOM     26  C   LIG    1        3.821   4.110   9.499  0.00  0.00    -0.150 A 
ENDBRANCH  16  17
ENDBRANCH   5  16
TORSDOF 4
