REMARK  Name = ZINCvU0000000IME.0
REMARK                            x       y       z     vdW  Elec       q    Type
REMARK                         _______ _______ _______ _____ _____    ______ ____
ROOT
ATOM      1  C   LIG    1        0.049   0.713  -4.827  0.00  0.00    +0.270 C 
ENDROOT
BRANCH   1   2
ATOM      2  C   LIG    1       -0.630   1.171  -6.092  0.00  0.00    +0.520 C 
ATOM      3  N   LIG    1       -0.126   0.820  -7.292  0.00  0.00    -0.510 N 
ATOM      4  C   LIG    1        0.970  -0.051  -7.348  0.00  0.00    +0.140 A 
ATOM      5  C   LIG    1        1.981   0.032  -6.408  0.00  0.00    -0.010 A 
ATOM      6  C   LIG    1        3.059  -0.834  -6.472  0.00  0.00    +0.060 A 
ATOM      7  C   LIG    1        3.132  -1.788  -7.468  0.00  0.00    +0.030 A 
ATOM      8  C   LIG    1        2.123  -1.886  -8.411  0.00  0.00    +0.080 A 
ATOM      9  C   LIG    1        1.042  -1.024  -8.353  0.00  0.00    -0.130 A 
ATOM     10  S   LIG    1       -0.257  -1.129  -9.542  0.00  0.00    +0.030 S 
ATOM     11  C   LIG    1       -0.830   0.539  -9.597  0.00  0.00    -0.130 A 
ATOM     12  C   LIG    1       -1.397   1.052 -10.751  0.00  0.00    +0.070 A 
ATOM     13  C   LIG    1       -1.844   2.361 -10.773  0.00  0.00    +0.030 A 
ATOM     14  C   LIG    1       -1.725   3.154  -9.647  0.00  0.00    +0.050 A 
ATOM     15  C   LIG    1       -1.158   2.647  -8.491  0.00  0.00    +0.040 A 
ATOM     16  C   LIG    1       -0.705   1.338  -8.458  0.00  0.00    +0.150 A 
ATOM     17  O   LIG    1       -1.629   1.855  -6.031  0.00  0.00    -0.470 OA
ENDBRANCH   1   2
BRANCH   1  18
ATOM     18  O   LIG    1       -0.807   0.995  -3.689  0.00  0.00    -0.330 OA
BRANCH  18  19
ATOM     19  C   LIG    1       -0.346   0.646  -2.478  0.00  0.00    +0.470 C 
ATOM     20  O   LIG    1        0.737   0.122  -2.372  0.00  0.00    -0.500 OA
BRANCH  19  21
ATOM     21  C   LIG    1       -1.180   0.908  -1.250  0.00  0.00    +0.040 C 
BRANCH  21  23
ATOM     22  C   LIG    1       -2.304   2.874  -2.304  0.00  0.00    +0.040 C 
ATOM     23  C   LIG    1       -1.447   2.409  -1.125  0.00  0.00    +0.040 C 
ENDBRANCH  21  23
BRANCH  21  24
ATOM     24  C   LIG    1       -0.429   0.419  -0.010  0.00  0.00    +0.100 C 
BRANCH  24  25
ATOM     25  C   LIG    1       -1.311   0.567   1.203  0.00  0.00    -0.140 A 
ATOM     26  C   LIG    1       -1.282   1.739   1.938  0.00  0.00    +0.060 A 
ATOM     27  C   LIG    1       -2.093   1.881   3.046  0.00  0.00    -0.080 A 
ATOM     28  C   LIG    1       -2.931   0.841   3.429  0.00  0.00    +0.220 A 
ATOM     29  C   LIG    1       -2.954  -0.336   2.692  0.00  0.00    -0.080 A 
ATOM     30  C   LIG    1       -2.144  -0.469   1.582  0.00  0.00    +0.060 A 
BRANCH  28  31
ATOM     31  N   LIG    1       -3.749   0.979   4.553  0.00  0.00    -0.880 N 
ATOM     32  H   LIG    1       -3.732   1.801   5.067  0.00  0.00    +0.400 HD
ATOM     33  H   LIG    1       -4.334   0.252   4.820  0.00  0.00    +0.400 HD
ENDBRANCH  28  31
ENDBRANCH  24  25
ENDBRANCH  21  24
ENDBRANCH  19  21
ENDBRANCH  18  19
ENDBRANCH   1  18
TORSDOF 8
