REMARK  Name = ZINCqH0000001z09.0
REMARK                            x       y       z     vdW  Elec       q    Type
REMARK                         _______ _______ _______ _____ _____    ______ ____
ROOT
ATOM      1  C   LIG    1        1.320  -2.124  -0.021  0.00  0.00    +0.570 C 
ATOM      2  N   LIG    1        0.195  -2.859   0.087  0.00  0.00    -0.600 N 
ATOM      3  C   LIG    1       -1.123  -2.211   0.111  0.00  0.00    +0.270 C 
ATOM      4  C   LIG    1       -2.001  -2.848  -0.976  0.00  0.00    +0.030 C 
ATOM      5  C   LIG    1       -2.042  -4.364  -0.767  0.00  0.00    +0.030 C 
ATOM      6  C   LIG    1       -0.629  -4.936  -0.892  0.00  0.00    +0.250 C 
ATOM      7  C   LIG    1        0.264  -4.323   0.191  0.00  0.00    +0.270 C 
ATOM      8  O   LIG    1        2.397  -2.675  -0.140  0.00  0.00    -0.500 OA
ENDROOT
BRANCH   1  14
ATOM      9  C   LIG    1        1.812   0.112  -1.032  0.00  0.00    +0.160 A 
ATOM     10  N   LIG    1        1.741   1.434  -1.004  0.00  0.00    -0.490 NA
ATOM     11  C   LIG    1        1.144   2.076  -0.020  0.00  0.00    +0.300 A 
ATOM     12  C   LIG    1        0.561   1.394   1.034  0.00  0.00    -0.050 A 
ATOM     13  C   LIG    1        0.605   0.011   1.057  0.00  0.00    +0.110 A 
ATOM     14  C   LIG    1        1.244  -0.652   0.003  0.00  0.00    -0.170 A 
BRANCH   9  15
ATOM     15  S   LIG    1        2.623  -0.695  -2.372  0.00  0.00    -0.020 S 
BRANCH  15  17
ATOM     16  C   LIG    1        4.145   1.567  -2.552  0.00  0.00    +0.050 C 
ATOM     17  C   LIG    1        3.128   0.745  -3.346  0.00  0.00    +0.020 C 
ATOM     18  C   LIG    1        3.763   0.277  -4.657  0.00  0.00    +0.070 C 
ENDBRANCH  15  17
ENDBRANCH   9  15
ENDBRANCH   1  14
BRANCH   6  19
ATOM     19  N   LIG    1       -0.673  -6.391  -0.723  0.00  0.00    -0.710 N 
ATOM     20  H   LIG    1       -1.396  -6.799  -0.222  0.00  0.00    +0.410 HD
ATOM     21  C   LIG    1        0.291  -7.162  -1.264  0.00  0.00    +0.650 C 
ATOM     22  O   LIG    1        1.197  -6.650  -1.892  0.00  0.00    -0.560 OA
BRANCH  21  23
ATOM     23  O   LIG    1        0.251  -8.498  -1.109  0.00  0.00    -0.360 OA
BRANCH  23  24
ATOM     24  C   LIG    1        1.322  -9.266  -1.718  0.00  0.00    +0.140 C 
ATOM     25  C   LIG    1        1.324  -9.027  -3.230  0.00  0.00    +0.040 C 
ATOM     26  C   LIG    1        1.107 -10.754  -1.437  0.00  0.00    +0.080 C 
ATOM     27  C   LIG    1        2.664  -8.824  -1.131  0.00  0.00    +0.040 C 
ENDBRANCH  23  24
ENDBRANCH  21  23
ENDBRANCH   6  19
TORSDOF 6
