REMARK  Name = ZINCtV00000L6lbb.0
REMARK                            x       y       z     vdW  Elec       q    Type
REMARK                         _______ _______ _______ _____ _____    ______ ____
ROOT
ATOM      1  C   LIG    1        6.125  -1.701   0.214  0.00  0.00    +0.160 C 
ATOM      2  C   LIG    1        4.868  -2.529   0.135  0.00  0.00    +0.230 A 
ATOM      3  N   LIG    1        4.950  -3.842   0.104  0.00  0.00    -0.460 NA
ATOM      4  C   LIG    1        3.853  -4.603   0.034  0.00  0.00    +0.300 A 
ATOM      5  C   LIG    1        3.665  -5.990  -0.011  0.00  0.00    -0.160 A 
ATOM      6  C   LIG    1        2.286  -6.220  -0.080  0.00  0.00    +0.040 A 
ATOM      7  N   LIG    1        1.664  -5.066  -0.079  0.00  0.00    -0.250 NA
ATOM      8  N   LIG    1        2.607  -4.035  -0.009  0.00  0.00    -0.320 N 
ATOM      9  C   LIG    1        2.483  -2.670   0.021  0.00  0.00    +0.430 A 
ATOM     10  C   LIG    1        3.625  -1.900   0.088  0.00  0.00    -0.040 A 
ENDROOT
BRANCH   5  11
ATOM     11  C   LIG    1        4.728  -7.022   0.011  0.00  0.00    -0.010 A 
ATOM     12  C   LIG    1        5.538  -7.168   1.137  0.00  0.00    +0.050 A 
ATOM     13  C   LIG    1        6.523  -8.134   1.154  0.00  0.00    +0.030 A 
ATOM     14  C   LIG    1        6.715  -8.950   0.053  0.00  0.00    -0.030 A 
ATOM     15  C   LIG    1        5.917  -8.806  -1.070  0.00  0.00    +0.030 A 
ATOM     16 CL   LIG    1        7.961 -10.159   0.078  0.00  0.00    -0.070 Cl
ATOM     17  C   LIG    1        4.926  -7.847  -1.096  0.00  0.00    +0.040 A 
ENDBRANCH   5  11
BRANCH   6  18
ATOM     18  C   LIG    1        1.624  -7.572  -0.145  0.00  0.00    +0.560 C 
ATOM     19  F   LIG    1        1.865  -8.267   1.045  0.00  0.00    -0.160 F 
ATOM     20  F   LIG    1        2.148  -8.296  -1.222  0.00  0.00    -0.160 F 
ATOM     21  F   LIG    1        0.246  -7.409  -0.320  0.00  0.00    -0.160 F 
ENDBRANCH   6  18
BRANCH   9  22
ATOM     22  N   LIG    1        1.238  -2.078  -0.021  0.00  0.00    -0.670 N 
ATOM     23  H   LIG    1        1.022  -1.454  -0.732  0.00  0.00    +0.430 HD
BRANCH  22  24
ATOM     24  C   LIG    1        0.288  -2.376   0.960  0.00  0.00    +0.200 A 
ATOM     25  C   LIG    1        0.643  -3.146   2.060  0.00  0.00    -0.040 A 
ATOM     26  C   LIG    1       -0.298  -3.439   3.029  0.00  0.00    +0.080 A 
ATOM     27  C   LIG    1       -1.591  -2.967   2.904  0.00  0.00    +0.000 A 
ATOM     28  C   LIG    1       -1.948  -2.200   1.808  0.00  0.00    +0.000 A 
ATOM     29 CL   LIG    1       -3.572  -1.604   1.659  0.00  0.00    -0.060 Cl
ATOM     30  C   LIG    1       -1.012  -1.903   0.836  0.00  0.00    -0.010 A 
ENDBRANCH  22  24
ENDBRANCH   9  22
TORSDOF 4
