REMARK  Name = ZINCrg000000oAV9.0
REMARK                            x       y       z     vdW  Elec       q    Type
REMARK                         _______ _______ _______ _____ _____    ______ ____
ROOT
ATOM      1  N   LIG    1        2.407   1.044  -0.032  0.00  0.00    -0.710 N 
ATOM      2  H   LIG    1        2.243   0.088  -0.030  0.00  0.00    +0.420 HD
ATOM      3  C   LIG    1        3.671   1.511  -0.052  0.00  0.00    +0.510 C 
ATOM      4  O   LIG    1        3.876   2.706  -0.055  0.00  0.00    -0.520 OA
ENDROOT
BRANCH   1   5
ATOM      5  C   LIG    1        1.280   1.980  -0.015  0.00  0.00    +0.320 C 
BRANCH   5   8
ATOM      6  N   LIG    1       -1.191   1.867   0.018  0.00  0.00    -0.660 N 
ATOM      7  H   LIG    1       -1.205   2.833   0.099  0.00  0.00    +0.410 HD
ATOM      8  C   LIG    1       -0.014   1.209   0.005  0.00  0.00    +0.510 C 
ATOM      9  O   LIG    1        0.003  -0.004   0.005  0.00  0.00    -0.510 OA
BRANCH   6  15
ATOM     10  C   LIG    1       -3.564   1.691   0.429  0.00  0.00    -0.110 A 
ATOM     11  C   LIG    1       -4.748   0.989   0.320  0.00  0.00    +0.030 A 
ATOM     12  C   LIG    1       -4.765  -0.252  -0.291  0.00  0.00    -0.010 A 
ATOM     13  C   LIG    1       -3.597  -0.791  -0.799  0.00  0.00    +0.030 A 
ATOM     14  C   LIG    1       -2.411  -0.091  -0.699  0.00  0.00    +0.010 A 
ATOM     15  C   LIG    1       -2.391   1.155  -0.086  0.00  0.00    +0.140 A 
BRANCH  10  17
ATOM     16  C   LIG    1       -3.682   4.138   0.042  0.00  0.00    +0.020 C 
ATOM     17  C   LIG    1       -3.546   3.041   1.100  0.00  0.00    +0.060 C 
ENDBRANCH  10  17
ENDBRANCH   6  15
ENDBRANCH   5   8
ENDBRANCH   1   5
BRANCH   3  18
ATOM     18  C   LIG    1        4.830   0.547  -0.070  0.00  0.00    +0.380 C 
BRANCH  18  19
ATOM     19  N   LIG    1        6.088   1.297  -0.089  0.00  0.00    -0.330 N 
ATOM     20  N   LIG    1        6.609   1.612  -1.218  0.00  0.00    -0.200 NA
ATOM     21  C   LIG    1        7.721   2.281  -1.339  0.00  0.00    +0.070 A 
ATOM     22  C   LIG    1        8.441   2.700  -0.215  0.00  0.00    +0.040 A 
ATOM     23  C   LIG    1        7.931   2.384   1.043  0.00  0.00    -0.110 A 
ATOM     24  C   LIG    1        9.729   3.469  -0.360  0.00  0.00    +0.150 C 
ATOM     25  C   LIG    1        8.243   2.604  -2.715  0.00  0.00    +0.180 C 
ATOM     26  C   LIG    1        6.669   1.633   1.080  0.00  0.00    +0.510 A 
ATOM     27  O   LIG    1        6.160   1.321   2.142  0.00  0.00    -0.510 OA
BRANCH  23  28
ATOM     28  C   LIG    1        8.605   2.775   2.245  0.00  0.00    +0.270 C 
ATOM     29  N   LIG    1        9.140   3.084   3.198  0.00  0.00    -0.390 NA
ENDBRANCH  23  28
ENDBRANCH  18  19
ENDBRANCH   3  18
TORSDOF 7
