REMARK  Name = ZINCrH000004n0tM.0
REMARK                            x       y       z     vdW  Elec       q    Type
REMARK                         _______ _______ _______ _____ _____    ______ ____
ROOT
ATOM      1  C   LIG    1        0.064  -4.282  -0.035  0.00  0.00    +0.220 C 
ATOM      2  C   LIG    1        0.006  -4.806   1.415  0.00  0.00    +0.010 C 
ATOM      3  C   LIG    1        0.971  -6.021   1.387  0.00  0.00    +0.030 C 
ATOM      4  C   LIG    1        2.064  -5.529   0.405  0.00  0.00    +0.170 C 
ATOM      5  N   LIG    1        1.330  -4.758  -0.622  0.00  0.00    -0.500 NA
ENDROOT
BRANCH   1   9
ATOM      6  C   LIG    1       -0.023  -0.005  -0.040  0.00  0.00    +0.170 A 
ATOM      7  C   LIG    1        0.910  -0.683   0.731  0.00  0.00    -0.110 A 
ATOM      8  C   LIG    1        0.932  -2.065   0.735  0.00  0.00    +0.090 A 
ATOM      9  C   LIG    1        0.034  -2.775  -0.037  0.00  0.00    -0.170 A 
ATOM     10  C   LIG    1       -0.898  -2.101  -0.815  0.00  0.00    +0.180 A 
ATOM     11  C   LIG    1       -0.926  -0.716  -0.817  0.00  0.00    -0.100 A 
BRANCH   6  13
ATOM     12  C   LIG    1        0.912   2.019   0.784  0.00  0.00    +0.250 C 
ATOM     13  O   LIG    1       -0.048   1.353  -0.039  0.00  0.00    -0.320 OA
ENDBRANCH   6  13
BRANCH  10  14
ATOM     14  O   LIG    1       -1.782  -2.800  -1.575  0.00  0.00    -0.300 OA
ATOM     15  C   LIG    1       -2.712  -2.042  -2.350  0.00  0.00    +0.240 C 
ENDBRANCH  10  14
ENDBRANCH   1   9
BRANCH   5  16
ATOM     16  C   LIG    1        2.139  -3.635  -1.113  0.00  0.00    +0.200 C 
BRANCH  16  17
ATOM     17  C   LIG    1        3.215  -4.154  -2.031  0.00  0.00    +0.510 C 
ATOM     18  N   LIG    1        4.083  -3.297  -2.605  0.00  0.00    -0.730 N 
ATOM     19  H   LIG    1        4.015  -2.346  -2.427  0.00  0.00    +0.400 HD
ATOM     20  O   LIG    1        3.300  -5.343  -2.254  0.00  0.00    -0.520 OA
BRANCH  18  21
ATOM     21  C   LIG    1        5.129  -3.802  -3.498  0.00  0.00    +0.290 C 
ATOM     22  C   LIG    1        6.338  -4.242  -2.669  0.00  0.00    +0.040 C 
BRANCH  21  23
ATOM     23  C   LIG    1        5.544  -2.712  -4.452  0.00  0.00    -0.090 A 
ATOM     24  C   LIG    1        5.662  -1.410  -4.005  0.00  0.00    +0.000 A 
ATOM     25  C   LIG    1        6.047  -0.411  -4.880  0.00  0.00    +0.000 A 
ATOM     26  C   LIG    1        6.306  -0.713  -6.203  0.00  0.00    +0.000 A 
ATOM     27  C   LIG    1        6.183  -2.015  -6.652  0.00  0.00    +0.020 A 
ATOM     28  C   LIG    1        5.802  -3.015  -5.776  0.00  0.00    +0.020 A 
ENDBRANCH  21  23
ENDBRANCH  18  21
ENDBRANCH  16  17
ENDBRANCH   5  16
TORSDOF 7
