REMARK  Name = ZINCrH000004u720.1
REMARK                            x       y       z     vdW  Elec       q    Type
REMARK                         _______ _______ _______ _____ _____    ______ ____
ROOT
ATOM      1  O   LIG    1       -1.204   2.840   0.023  0.00  0.00    -0.590 OA
ATOM      2  C   LIG    1       -1.187   1.624   0.017  0.00  0.00    +0.710 C 
ATOM      3  N   LIG    1       -2.345   0.934   0.018  0.00  0.00    -0.740 N 
ATOM      4  H   LIG    1       -2.332  -0.036   0.013  0.00  0.00    +0.400 HD
ATOM      5  N   LIG    1       -0.011   0.966   0.007  0.00  0.00    -0.740 N 
ATOM      6  H   LIG    1        0.002  -0.004   0.002  0.00  0.00    +0.400 HD
ENDROOT
BRANCH   3   7
ATOM      7  C   LIG    1       -3.624   1.649   0.028  0.00  0.00    +0.300 C 
ATOM      8  C   LIG    1       -4.056   1.989   1.474  0.00  0.00    +0.240 C 
ATOM      9  O   LIG    1       -5.484   1.827   1.427  0.00  0.00    -0.300 OA
ATOM     10  C   LIG    1       -5.801   0.919   0.463  0.00  0.00    +0.120 A 
ATOM     11  C   LIG    1       -6.972   0.189   0.276  0.00  0.00    -0.010 A 
ATOM     12  C   LIG    1       -7.084  -0.683  -0.787  0.00  0.00    +0.060 A 
ATOM     13  C   LIG    1       -6.037  -0.840  -1.676  0.00  0.00    -0.020 A 
ATOM     14  C   LIG    1       -4.869  -0.120  -1.494  0.00  0.00    +0.070 A 
ATOM     15  C   LIG    1       -4.753   0.748  -0.432  0.00  0.00    -0.200 A 
ENDBRANCH   3   7
BRANCH   5  16
ATOM     16  C   LIG    1        1.248   1.716  -0.001  0.00  0.00    +0.250 C 
ATOM     17  C   LIG    1        1.613   2.086  -1.441  0.00  0.00    +0.010 C 
ATOM     18  C   LIG    1        2.958   2.816  -1.448  0.00  0.00    +0.180 C 
ATOM     19  N   LIG    1        3.991   1.946  -0.871  0.00  0.00    -0.530 NA
ATOM     20  C   LIG    1        3.686   1.616   0.527  0.00  0.00    +0.180 C 
ATOM     21  C   LIG    1        2.362   0.850   0.594  0.00  0.00    +0.040 C 
BRANCH  19  22
ATOM     22  C   LIG    1        5.321   2.559  -0.988  0.00  0.00    +0.230 C 
BRANCH  22  23
ATOM     23  C   LIG    1        5.501   3.106  -2.381  0.00  0.00    -0.080 A 
ATOM     24  C   LIG    1        6.042   2.308  -3.371  0.00  0.00    +0.040 A 
ATOM     25  C   LIG    1        6.203   2.807  -4.650  0.00  0.00    +0.020 A 
ATOM     26  C   LIG    1        5.833   4.109  -4.936  0.00  0.00    -0.030 A 
ATOM     27  C   LIG    1        5.297   4.909  -3.943  0.00  0.00    +0.020 A 
ATOM     28 CL   LIG    1        6.042   4.739  -6.540  0.00  0.00    -0.070 Cl
ATOM     29  C   LIG    1        5.131   4.407  -2.666  0.00  0.00    +0.030 A 
ENDBRANCH  22  23
ENDBRANCH  19  22
ENDBRANCH   5  16
TORSDOF 4
