REMARK  Name = ZINCtV00000L6kpa.0
REMARK                            x       y       z     vdW  Elec       q    Type
REMARK                         _______ _______ _______ _____ _____    ______ ____
ROOT
ATOM      1  C   LIG    1       -0.041  -0.025  -0.577  0.00  0.00    +0.200 A 
ATOM      2  N   LIG    1        1.191  -0.403  -0.337  0.00  0.00    -0.470 NA
ATOM      3  C   LIG    1        2.011   0.668  -0.376  0.00  0.00    +0.110 A 
ATOM      4  C   LIG    1        1.234   1.781  -0.658  0.00  0.00    +0.070 A 
ATOM      5  N   LIG    1       -0.067   1.323  -0.783  0.00  0.00    -0.540 N 
ATOM      6  H   LIG    1       -0.850   1.859  -0.983  0.00  0.00    +0.430 HD
ENDROOT
BRANCH   4   7
ATOM      7  C   LIG    1        1.698   3.167  -0.798  0.00  0.00    -0.140 A 
ATOM      8  C   LIG    1        1.092   4.260  -0.254  0.00  0.00    +0.020 A 
ATOM      9  C   LIG    1        1.724   5.455  -0.526  0.00  0.00    +0.020 A 
ATOM     10  C   LIG    1        2.818   5.360  -1.285  0.00  0.00    -0.040 A 
ATOM     11  S   LIG    1        3.117   3.679  -1.702  0.00  0.00    +0.170 S 
ENDBRANCH   4   7
BRANCH   3  12
ATOM     12  C   LIG    1        3.470   0.657  -0.157  0.00  0.00    -0.110 A 
ATOM     13  C   LIG    1        4.123  -0.148   0.707  0.00  0.00    +0.030 A 
ATOM     14  C   LIG    1        5.491   0.026   0.735  0.00  0.00    +0.010 A 
ATOM     15  C   LIG    1        5.960   0.962  -0.095  0.00  0.00    -0.060 A 
ATOM     16  S   LIG    1        4.629   1.686  -0.988  0.00  0.00    +0.130 S 
ENDBRANCH   3  12
BRANCH   1  17
ATOM     17  S   LIG    1       -1.443  -1.090  -0.625  0.00  0.00    +0.070 S 
BRANCH  17  18
ATOM     18  C   LIG    1       -0.646  -2.675  -0.268  0.00  0.00    +0.120 C 
BRANCH  18  20
ATOM     19  N   LIG    1       -1.317  -5.042  -0.013  0.00  0.00    -0.570 N 
ATOM     20  C   LIG    1       -1.683  -3.769  -0.259  0.00  0.00    +0.540 C 
ATOM     21  O   LIG    1       -2.847  -3.502  -0.472  0.00  0.00    -0.510 OA
BRANCH  19  22
ATOM     22  C   LIG    1       -2.292  -6.042   0.096  0.00  0.00    +0.130 A 
ATOM     23  C   LIG    1       -3.171  -6.041   1.171  0.00  0.00    +0.050 A 
ATOM     24  C   LIG    1       -4.135  -7.025   1.274  0.00  0.00    +0.000 A 
ATOM     25  C   LIG    1       -4.218  -8.018   0.313  0.00  0.00    +0.100 A 
ATOM     26  C   LIG    1       -3.338  -8.024  -0.757  0.00  0.00    +0.000 A 
ATOM     27  F   LIG    1       -5.157  -8.983   0.419  0.00  0.00    -0.140 F 
ATOM     28  C   LIG    1       -2.377  -7.039  -0.867  0.00  0.00    +0.050 A 
ENDBRANCH  19  22
BRANCH  19  30
ATOM     29  C   LIG    1        0.499  -5.252   1.611  0.00  0.00    +0.030 C 
ATOM     30  C   LIG    1        0.100  -5.381   0.140  0.00  0.00    +0.280 C 
ENDBRANCH  19  30
ENDBRANCH  18  20
ENDBRANCH  17  18
ENDBRANCH   1  17
TORSDOF 7
