REMARK  Name = ZINCpe00000gNmsr.0
REMARK                            x       y       z     vdW  Elec       q    Type
REMARK                         _______ _______ _______ _____ _____    ______ ____
ROOT
ATOM      1  N   LIG    1        4.997   1.420  -0.899  0.00  0.00    -0.680 NA
ATOM      2  H   LIG    1        4.374   2.161  -0.950  0.00  0.00    +0.420 HD
ENDROOT
BRANCH   1   7
ATOM      3  N   LIG    1        3.262  -0.263  -1.276  0.00  0.00    -0.370 N 
ATOM      4  N   LIG    1        3.302  -1.667  -1.324  0.00  0.00    -0.090 NA
ATOM      5  N   LIG    1        4.525  -2.014  -1.109  0.00  0.00    -0.010 NA
ATOM      6  N   LIG    1        5.259  -0.975  -0.932  0.00  0.00    -0.370 NA
ATOM      7  C   LIG    1        4.539   0.121  -1.028  0.00  0.00    +0.500 C 
BRANCH   3  11
ATOM      8  C   LIG    1       -0.064   2.196  -1.800  0.00  0.00    +0.020 A 
ATOM      9  C   LIG    1        0.926   2.557  -0.905  0.00  0.00    +0.050 A 
ATOM     10  C   LIG    1        2.030   1.744  -0.730  0.00  0.00    +0.000 A 
ATOM     11  C   LIG    1        2.143   0.565  -1.453  0.00  0.00    +0.140 A 
ATOM     12  C   LIG    1        1.147   0.205  -2.350  0.00  0.00    +0.040 A 
ATOM     13  C   LIG    1        0.047   1.021  -2.522  0.00  0.00    +0.040 A 
ENDBRANCH   3  11
ENDBRANCH   1   7
BRANCH   1  14
ATOM     14  C   LIG    1        6.423   1.675  -0.684  0.00  0.00    +0.300 C 
BRANCH  14  15
ATOM     15  C   LIG    1        6.644   3.171  -0.451  0.00  0.00    +0.180 C 
BRANCH  15  16
ATOM     16  N   LIG    1        5.824   3.616   0.683  0.00  0.00    -0.530 NA
ATOM     17  C   LIG    1        6.196   4.976   1.101  0.00  0.00    +0.160 C 
ATOM     18  C   LIG    1        5.279   5.422   2.243  0.00  0.00    +0.220 C 
ATOM     19  O   LIG    1        5.370   4.481   3.317  0.00  0.00    -0.380 OA
ATOM     20  C   LIG    1        5.014   3.147   2.945  0.00  0.00    +0.220 C 
ATOM     21  C   LIG    1        5.929   2.678   1.810  0.00  0.00    +0.140 C 
ENDBRANCH  15  16
BRANCH  15  22
ATOM     22  C   LIG    1        8.121   3.427  -0.144  0.00  0.00    -0.050 C 
ATOM     23  C   LIG    1        9.003   3.124  -1.379  0.00  0.00    +0.010 C 
ATOM     24  C   LIG    1       10.238   2.410  -0.796  0.00  0.00    +0.190 C 
ATOM     25  O   LIG    1       10.074   2.371   0.631  0.00  0.00    -0.370 OA
ATOM     26  C   LIG    1        8.655   2.408   0.895  0.00  0.00    +0.210 C 
ENDBRANCH  15  22
ENDBRANCH  14  15
ENDBRANCH   1  14
TORSDOF 6
