REMARK  Name = ZINCrD00000hQ4tj.0
REMARK                            x       y       z     vdW  Elec       q    Type
REMARK                         _______ _______ _______ _____ _____    ______ ____
ROOT
ATOM      1  N   LIG    1       -0.095   6.102  -1.545  0.00  0.00    -0.850 N 
ATOM      2  N   LIG    1        1.026   6.273  -2.356  0.00  0.00    -0.200 NA
ATOM      3  C   LIG    1        0.755   6.668  -3.551  0.00  0.00    +0.140 C 
ATOM      4  C   LIG    1       -0.740   6.835  -3.701  0.00  0.00    +0.100 C 
ATOM      5  C   LIG    1       -1.298   6.443  -2.319  0.00  0.00    +0.280 C 
ENDROOT
BRANCH   3   6
ATOM      6  C   LIG    1        1.750   6.922  -4.609  0.00  0.00    -0.090 A 
ATOM      7  C   LIG    1        3.117   6.740  -4.361  0.00  0.00    +0.110 A 
ATOM      8  C   LIG    1        4.009   6.986  -5.389  0.00  0.00    -0.030 A 
ATOM      9  C   LIG    1        3.529   7.413  -6.614  0.00  0.00    +0.270 A 
ATOM     10  N   LIG    1        2.236   7.582  -6.819  0.00  0.00    -0.480 NA
ATOM     11  C   LIG    1        1.347   7.354  -5.875  0.00  0.00    +0.290 A 
ENDBRANCH   3   6
BRANCH   5  12
ATOM     12  C   LIG    1       -2.213   5.251  -2.432  0.00  0.00    -0.140 A 
ATOM     13  C   LIG    1       -1.722   3.980  -2.204  0.00  0.00    +0.020 A 
ATOM     14  C   LIG    1       -2.562   2.885  -2.301  0.00  0.00    +0.010 A 
ATOM     15  C   LIG    1       -3.892   3.059  -2.638  0.00  0.00    +0.030 A 
ATOM     16  C   LIG    1       -4.386   4.328  -2.872  0.00  0.00    +0.000 A 
ATOM     17  C   LIG    1       -3.547   5.428  -2.770  0.00  0.00    +0.130 A 
BRANCH  17  18
ATOM     18  O   LIG    1       -4.031   6.677  -2.999  0.00  0.00    -0.490 OA
ATOM     19  H   LIG    1       -3.964   6.961  -3.921  0.00  0.00    +0.390 HD
ENDBRANCH  17  18
ENDBRANCH   5  12
BRANCH   1  21
ATOM     20  O   LIG    1       -1.324   5.983   0.592  0.00  0.00    -0.930 OA
ATOM     21  S   LIG    1       -0.074   5.602   0.034  0.00  0.00    +2.710 S 
ATOM     22  O   LIG    1        1.175   6.017   0.570  0.00  0.00    -0.930 OA
BRANCH  21  23
ATOM     23  C   LIG    1       -0.050   3.840   0.023  0.00  0.00    -0.690 A 
ATOM     24  C   LIG    1        1.156   3.165   0.008  0.00  0.00    +0.130 A 
ATOM     25  C   LIG    1        1.175   1.783   0.000  0.00  0.00    -0.020 A 
ATOM     26  C   LIG    1       -0.013   1.076   0.008  0.00  0.00    +0.080 A 
ATOM     27  C   LIG    1       -1.219   1.751   0.017  0.00  0.00    -0.010 A 
ATOM     28  C   LIG    1       -1.238   3.133   0.029  0.00  0.00    +0.140 A 
ENDBRANCH  21  23
ENDBRANCH   1  21
TORSDOF 5
