REMARK  Name = ZINCtV00000L6kIJ.0
REMARK                            x       y       z     vdW  Elec       q    Type
REMARK                         _______ _______ _______ _____ _____    ______ ____
ROOT
ATOM      1  C   LIG    1       -1.242   1.906   0.104  0.00  0.00    -0.250 A 
ATOM      2  C   LIG    1       -2.500   1.347   0.178  0.00  0.00    +0.140 A 
ATOM      3  N   LIG    1       -3.435   2.323   0.103  0.00  0.00    -0.420 N 
ATOM      4  C   LIG    1       -2.833   3.562  -0.023  0.00  0.00    +0.100 A 
ATOM      5  C   LIG    1       -3.338   4.853  -0.134  0.00  0.00    +0.030 A 
ATOM      6  C   LIG    1       -2.477   5.923  -0.248  0.00  0.00    +0.040 A 
ATOM      7  C   LIG    1       -1.100   5.726  -0.254  0.00  0.00    +0.070 A 
ATOM      8  C   LIG    1       -0.581   4.448  -0.145  0.00  0.00    +0.060 A 
ATOM      9  C   LIG    1       -2.790  -0.126   0.320  0.00  0.00    +0.160 C 
ATOM     10  C   LIG    1       -1.443   3.363  -0.022  0.00  0.00    -0.050 A 
ENDROOT
BRANCH   3  11
ATOM     11  C   LIG    1       -4.818   2.109   0.148  0.00  0.00    +0.130 A 
ATOM     12  C   LIG    1       -5.407   1.603   1.299  0.00  0.00    +0.040 A 
ATOM     13  C   LIG    1       -6.771   1.393   1.340  0.00  0.00    +0.060 A 
ATOM     14  C   LIG    1       -7.551   1.685   0.237  0.00  0.00    +0.040 A 
ATOM     15  C   LIG    1       -6.968   2.189  -0.912  0.00  0.00    -0.020 A 
ATOM     16 CL   LIG    1       -7.951   2.555  -2.296  0.00  0.00    -0.050 Cl
ATOM     17  C   LIG    1       -5.604   2.406  -0.958  0.00  0.00    +0.040 A 
ENDBRANCH   3  11
BRANCH   1  19
ATOM     18  C   LIG    1        0.628   0.888   1.475  0.00  0.00    +0.070 C 
ATOM     19  C   LIG    1       -0.003   1.220   0.147  0.00  0.00    +0.440 C 
ATOM     20  O   LIG    1        0.552   0.904  -0.885  0.00  0.00    -0.450 OA
ENDBRANCH   1  19
BRANCH   7  21
ATOM     21  O   LIG    1       -0.263   6.791  -0.367  0.00  0.00    -0.280 OA
BRANCH  21  22
ATOM     22  C   LIG    1        0.305   6.997  -1.571  0.00  0.00    +0.500 C 
ATOM     23  O   LIG    1        0.130   6.199  -2.470  0.00  0.00    -0.480 OA
BRANCH  22  24
ATOM     24  C   LIG    1        1.139   8.195  -1.799  0.00  0.00    -0.130 A 
ATOM     25  C   LIG    1        1.337   9.117  -0.770  0.00  0.00    +0.080 A 
ATOM     26  C   LIG    1        2.122  10.231  -0.988  0.00  0.00    +0.000 A 
ATOM     27  C   LIG    1        2.703  10.440  -2.226  0.00  0.00    +0.050 A 
ATOM     28  C   LIG    1        2.507   9.532  -3.252  0.00  0.00    +0.010 A 
ATOM     29  C   LIG    1        1.729   8.412  -3.046  0.00  0.00    +0.090 A 
ENDBRANCH  22  24
ENDBRANCH  21  22
ENDBRANCH   7  21
TORSDOF 5
