REMARK  Name = ZINCpk00000KfKu3.0
REMARK                            x       y       z     vdW  Elec       q    Type
REMARK                         _______ _______ _______ _____ _____    ______ ____
ROOT
ATOM      1  C   LIG    1       -2.482   0.853   0.018  0.00  0.00    +0.260 C 
ATOM      2  C   LIG    1       -2.545  -0.035   1.263  0.00  0.00    +0.060 C 
ENDROOT
BRANCH   1   5
ATOM      3  N   LIG    1       -0.011   0.966   0.007  0.00  0.00    -0.520 N 
ATOM      4  H   LIG    1        0.002  -0.004   0.002  0.00  0.00    +0.420 HD
ATOM      5  C   LIG    1       -1.187   1.624   0.017  0.00  0.00    +0.510 C 
ATOM      6  O   LIG    1       -1.204   2.837   0.023  0.00  0.00    -0.520 OA
BRANCH   3  10
ATOM      7  N   LIG    1        2.387  -0.323  -0.022  0.00  0.00    -0.740 N 
ATOM      8  H   LIG    1        1.554  -0.819  -0.017  0.00  0.00    +0.390 HD
ATOM      9  C   LIG    1        2.369   1.025  -0.015  0.00  0.00    +0.710 C 
ATOM     10  N   LIG    1        1.193   1.683  -0.000  0.00  0.00    -0.530 N 
ATOM     11  H   LIG    1        1.179   2.653   0.005  0.00  0.00    +0.440 HD
ATOM     12  O   LIG    1        3.413   1.647  -0.022  0.00  0.00    -0.560 OA
BRANCH   7  13
ATOM     13  C   LIG    1        3.666  -1.038  -0.038  0.00  0.00    +0.270 C 
BRANCH  13  15
ATOM     14  C   LIG    1        4.742  -3.293  -0.061  0.00  0.00    +0.030 C 
ATOM     15  C   LIG    1        3.406  -2.546  -0.044  0.00  0.00    +0.000 C 
ENDBRANCH  13  15
ENDBRANCH   7  13
ENDBRANCH   3  10
ENDBRANCH   1   5
BRANCH   1  16
ATOM     16  N   LIG    1       -3.608   1.789   0.029  0.00  0.00    -0.710 N 
ATOM     17  H   LIG    1       -3.493   2.683   0.388  0.00  0.00    +0.410 HD
ATOM     18  C   LIG    1       -4.805   1.410  -0.461  0.00  0.00    +0.530 C 
ATOM     19  O   LIG    1       -4.950   0.292  -0.910  0.00  0.00    -0.530 OA
BRANCH  18  20
ATOM     20  C   LIG    1       -5.964   2.373  -0.450  0.00  0.00    -0.070 C 
ATOM     21  C   LIG    1       -5.604   3.612  -1.272  0.00  0.00    +0.040 C 
ATOM     22  C   LIG    1       -6.780   4.591  -1.262  0.00  0.00    +0.000 C 
ATOM     23  C   LIG    1       -7.085   5.006   0.179  0.00  0.00    +0.020 C 
ATOM     24  C   LIG    1       -7.445   3.767   1.002  0.00  0.00    +0.000 C 
ATOM     25  C   LIG    1       -8.676   3.091   0.394  0.00  0.00    +0.010 C 
ATOM     26  C   LIG    1       -8.371   2.676  -1.047  0.00  0.00    -0.020 C 
ATOM     27  C   LIG    1       -8.011   3.915  -1.869  0.00  0.00    +0.010 C 
ATOM     28  C   LIG    1       -6.269   2.788   0.991  0.00  0.00    +0.040 C 
ATOM     29  C   LIG    1       -7.195   1.698  -1.058  0.00  0.00    +0.050 C 
ENDBRANCH  18  20
ENDBRANCH   1  16
TORSDOF 6
