REMARK  Name = ZINCrD0000074Ikh.0
REMARK                            x       y       z     vdW  Elec       q    Type
REMARK                         _______ _______ _______ _____ _____    ______ ____
ROOT
ATOM      1  C   LIG    1        5.285  -2.650  -0.062  0.00  0.00    +0.250 C 
ENDROOT
BRANCH   1   2
ATOM      2  C   LIG    1        5.308  -4.156  -0.071  0.00  0.00    +0.520 C 
ATOM      3  N   LIG    1        6.485  -4.813  -0.086  0.00  0.00    -0.720 N 
ATOM      4  H   LIG    1        7.318  -4.315  -0.091  0.00  0.00    +0.400 HD
ATOM      5  O   LIG    1        4.267  -4.779  -0.064  0.00  0.00    -0.510 OA
BRANCH   3   6
ATOM      6  C   LIG    1        6.507  -6.277  -0.094  0.00  0.00    +0.190 C 
ATOM      7  C   LIG    1        5.782  -6.792  -1.339  0.00  0.00    +0.030 C 
ATOM      8  C   LIG    1        5.805  -8.321  -1.347  0.00  0.00    -0.010 C 
ATOM      9  C   LIG    1        5.103  -8.849  -0.094  0.00  0.00    +0.020 C 
ATOM     10  C   LIG    1        5.828  -8.335   1.151  0.00  0.00    -0.010 C 
ATOM     11  C   LIG    1        7.278  -8.823   1.135  0.00  0.00    +0.020 C 
ATOM     12  C   LIG    1        7.980  -8.295  -0.118  0.00  0.00    +0.000 C 
ATOM     13  C   LIG    1        7.255  -8.809  -1.364  0.00  0.00    +0.020 C 
ATOM     14  C   LIG    1        5.806  -6.805   1.160  0.00  0.00    +0.030 C 
ATOM     15  C   LIG    1        7.957  -6.766  -0.110  0.00  0.00    +0.020 C 
ENDBRANCH   3   6
ENDBRANCH   1   2
BRANCH   1  16
ATOM     16  O   LIG    1        3.909  -2.186  -0.047  0.00  0.00    -0.330 OA
BRANCH  16  17
ATOM     17  C   LIG    1        3.713  -0.858  -0.038  0.00  0.00    +0.470 C 
ATOM     18  O   LIG    1        4.660  -0.108  -0.043  0.00  0.00    -0.480 OA
BRANCH  17  19
ATOM     19  C   LIG    1        2.312  -0.303  -0.022  0.00  0.00    +0.290 C 
BRANCH  19  20
ATOM     20  O   LIG    1        2.366   1.125  -0.015  0.00  0.00    -0.300 OA
BRANCH  20  25
ATOM     21  C   LIG    1       -2.554   3.867   0.046  0.00  0.00    +0.100 C 
ATOM     22  C   LIG    1       -1.237   3.133   0.030  0.00  0.00    -0.120 A 
ATOM     23  C   LIG    1       -1.218   1.751   0.017  0.00  0.00    +0.050 A 
ATOM     24  C   LIG    1       -0.013   1.076   0.008  0.00  0.00    -0.080 A 
ATOM     25  C   LIG    1        1.179   1.786   0.000  0.00  0.00    +0.120 A 
ATOM     26  C   LIG    1        1.157   3.174   0.008  0.00  0.00    -0.010 A 
ATOM     27  C   LIG    1       -0.051   3.844   0.022  0.00  0.00    -0.050 A 
ATOM     28  C   LIG    1       -0.076   5.351   0.029  0.00  0.00    +0.100 C 
ENDBRANCH  20  25
ENDBRANCH  19  20
ENDBRANCH  17  19
ENDBRANCH  16  17
ENDBRANCH   1  16
TORSDOF 7
