REMARK  Name = ZINCrH00000No4Tx.0
REMARK                            x       y       z     vdW  Elec       q    Type
REMARK                         _______ _______ _______ _____ _____    ______ ____
ROOT
ATOM      1  N   LIG    1        4.270  -0.747   1.317  0.00  0.00    -0.720 N 
ATOM      2  H   LIG    1        3.790  -0.331   2.050  0.00  0.00    +0.400 HD
ATOM      3  C   LIG    1        5.449  -1.359   1.544  0.00  0.00    +0.550 C 
ATOM      4  O   LIG    1        6.052  -1.881   0.624  0.00  0.00    -0.550 OA
ENDROOT
BRANCH   3   5
ATOM      5  C   LIG    1        5.987  -1.395   2.853  0.00  0.00    -0.080 C 
ATOM      6  C   LIG    1        7.173  -2.011   3.083  0.00  0.00    +0.160 C 
BRANCH   6   7
ATOM      7  C   LIG    1        7.711  -2.047   4.392  0.00  0.00    -0.020 A 
ATOM      8  C   LIG    1        7.141  -1.495   5.520  0.00  0.00    +0.010 A 
ATOM      9  C   LIG    1        8.012  -1.773   6.585  0.00  0.00    -0.060 A 
ATOM     10  C   LIG    1        9.059  -2.460   6.075  0.00  0.00    +0.050 A 
ATOM     11  O   LIG    1        8.875  -2.623   4.758  0.00  0.00    -0.160 OA
BRANCH  10  12
ATOM     12  C   LIG    1       10.242  -2.962   6.862  0.00  0.00    +0.050 C 
ATOM     13  C   LIG    1       11.224  -3.892   6.146  0.00  0.00    +0.050 C 
ATOM     14  C   LIG    1       11.626  -2.450   6.461  0.00  0.00    -0.030 C 
ATOM     15  C   LIG    1       12.649  -2.229   7.577  0.00  0.00    +0.060 C 
ENDBRANCH  10  12
ENDBRANCH   6   7
ENDBRANCH   3   5
BRANCH   1  16
ATOM     16  C   LIG    1        3.714  -0.710  -0.038  0.00  0.00    +0.340 C 
BRANCH  16  22
ATOM     17  C   LIG    1        2.383   1.414  -0.013  0.00  0.00    +0.150 A 
ATOM     18  C   LIG    1        1.175   2.094   0.002  0.00  0.00    -0.130 A 
ATOM     19  C   LIG    1       -0.017   1.387   0.010  0.00  0.00    +0.150 A 
ATOM     20  C   LIG    1        0.002  -0.004   0.002  0.00  0.00    +0.060 A 
ATOM     21  C   LIG    1        1.212  -0.680  -0.013  0.00  0.00    +0.040 A 
ATOM     22  C   LIG    1        2.399   0.028  -0.021  0.00  0.00    -0.140 A 
BRANCH  17  24
ATOM     23  C   LIG    1        3.462   3.534  -0.012  0.00  0.00    +0.250 C 
ATOM     24  O   LIG    1        3.553   2.108  -0.021  0.00  0.00    -0.310 OA
ENDBRANCH  17  24
BRANCH  20  25
ATOM     25  O   LIG    1       -1.167  -0.701   0.009  0.00  0.00    -0.310 OA
ATOM     26  C   LIG    1       -1.072  -2.127   0.001  0.00  0.00    +0.240 C 
ENDBRANCH  20  25
BRANCH  19  27
ATOM     27  O   LIG    1       -1.203   2.052   0.019  0.00  0.00    -0.300 OA
ATOM     28  C   LIG    1       -1.147   3.480   0.026  0.00  0.00    +0.240 C 
ENDBRANCH  19  27
ENDBRANCH  16  22
ENDBRANCH   1  16
TORSDOF 8
