REMARK  Name = ZINCpe000027pH7l.2
REMARK                            x       y       z     vdW  Elec       q    Type
REMARK                         _______ _______ _______ _____ _____    ______ ____
ROOT
ATOM      1  C   LIG    1       -0.013   1.086   0.008  0.00  0.00    +0.110 C 
ATOM      2  C   LIG    1       -0.729   1.579   1.267  0.00  0.00    +0.180 C 
ENDROOT
BRANCH   2   3
ATOM      3  N   LIG    1       -0.749   3.048   1.275  0.00  0.00    -0.360 N 
ATOM      4  C   LIG    1       -1.451   3.533   0.081  0.00  0.00    +0.270 C 
ATOM      5  C   LIG    1       -1.404   5.062   0.043  0.00  0.00    +0.050 C 
ATOM      6  C   LIG    1       -2.083   5.620   1.297  0.00  0.00    +0.120 C 
ATOM      7  C   LIG    1       -1.389   5.048   2.537  0.00  0.00    +0.070 C 
ATOM      8  C   LIG    1       -1.436   3.520   2.483  0.00  0.00    +0.270 C 
ATOM      9  H   LIG    1        0.198   3.396   1.270  0.00  0.00    +0.410 HD
BRANCH   6  10
ATOM     10  C   LIG    1       -1.971   7.122   1.305  0.00  0.00    +0.180 A 
ATOM     11  N   LIG    1       -2.860   7.962   1.763  0.00  0.00    -0.280 NA
ATOM     12  N   LIG    1       -2.437   9.166   1.610  0.00  0.00    -0.290 NA
ATOM     13  C   LIG    1       -1.259   9.150   1.048  0.00  0.00    +0.390 A 
ATOM     14  N   LIG    1       -0.928   7.853   0.842  0.00  0.00    -0.580 N 
ATOM     15  H   LIG    1       -0.111   7.515   0.444  0.00  0.00    +0.430 HD
ENDBRANCH   6  10
ENDBRANCH   2   3
BRANCH   2  16
ATOM     16  C   LIG    1       -2.143   1.058   1.278  0.00  0.00    +0.520 C 
ATOM     17  N   LIG    1       -2.371  -0.271   1.273  0.00  0.00    -1.100 NA
ATOM     18  O   LIG    1       -3.075   1.833   1.291  0.00  0.00    -0.620 OA
BRANCH  17  19
ATOM     19  S   LIG    1       -3.925  -0.844   1.284  0.00  0.00    +2.660 S 
ATOM     20  O   LIG    1       -4.501  -0.465   0.042  0.00  0.00    -1.010 OA
ATOM     21  O   LIG    1       -4.477  -0.479   2.541  0.00  0.00    -1.010 OA
BRANCH  19  22
ATOM     22  C   LIG    1       -3.831  -2.603   1.274  0.00  0.00    -0.630 A 
ATOM     23  C   LIG    1       -3.812  -3.287   0.073  0.00  0.00    +0.120 A 
ATOM     24  C   LIG    1       -3.734  -4.668   0.065  0.00  0.00    -0.010 A 
ATOM     25  C   LIG    1       -3.686  -5.364   1.258  0.00  0.00    +0.050 A 
ATOM     26  C   LIG    1       -3.711  -4.680   2.459  0.00  0.00    -0.010 A 
ATOM     27  C   LIG    1       -3.783  -3.300   2.467  0.00  0.00    +0.120 A 
ENDBRANCH  19  22
ENDBRANCH  17  19
ENDBRANCH   2  16
TORSDOF 5
