REMARK  Name = ZINCAx0000000ecj.0
REMARK                            x       y       z     vdW  Elec       q    Type
REMARK                         _______ _______ _______ _____ _____    ______ ____
ROOT
ATOM      1  C   LIG    1        5.096  -5.320  -5.447  0.00  0.00    +0.550 A 
ATOM      2  N   LIG    1        4.697  -6.294  -6.242  0.00  0.00    -0.590 NA
ATOM      3  C   LIG    1        3.531  -6.918  -6.018  0.00  0.00    +0.220 A 
ATOM      4  C   LIG    1        3.077  -7.957  -6.842  0.00  0.00    +0.050 A 
ATOM      5  C   LIG    1        1.884  -8.559  -6.572  0.00  0.00    +0.080 A 
ATOM      6  C   LIG    1        1.107  -8.157  -5.489  0.00  0.00    -0.060 A 
ATOM      7  C   LIG    1        1.520  -7.148  -4.667  0.00  0.00    +0.080 A 
ATOM      8 CL   LIG    1       -0.406  -8.949  -5.179  0.00  0.00    -0.070 Cl
ATOM      9  C   LIG    1        2.742  -6.514  -4.914  0.00  0.00    -0.210 A 
ATOM     10  C   LIG    1        3.219  -5.458  -4.098  0.00  0.00    +0.500 A 
ATOM     11  N   LIG    1        4.384  -4.906  -4.402  0.00  0.00    -0.600 NA
ENDROOT
BRANCH   1  15
ATOM     12  C   LIG    1        9.166  -4.514  -6.053  0.00  0.00    +0.090 C 
ATOM     13  C   LIG    1        8.204  -4.487  -7.244  0.00  0.00    +0.070 C 
ATOM     14  C   LIG    1        6.947  -5.287  -6.896  0.00  0.00    +0.220 C 
ATOM     15  N   LIG    1        6.305  -4.702  -5.712  0.00  0.00    -0.460 N 
ATOM     16  C   LIG    1        7.193  -4.760  -4.543  0.00  0.00    +0.220 C 
ATOM     17  C   LIG    1        8.458  -3.945  -4.821  0.00  0.00    +0.060 C 
BRANCH  12  21
ATOM     18  C   LIG    1       13.814  -2.629  -6.104  0.00  0.00    +0.350 C 
ATOM     19  N   LIG    1       12.396  -2.851  -6.398  0.00  0.00    -0.420 NA
ATOM     20  N   LIG    1       11.561  -3.825  -5.827  0.00  0.00    -0.330 NA
ATOM     21  C   LIG    1       10.380  -3.679  -6.367  0.00  0.00    +0.260 C 
ATOM     22  N   LIG    1       10.420  -2.668  -7.236  0.00  0.00    -0.580 NA
ATOM     23  C   LIG    1       11.632  -2.157  -7.267  0.00  0.00    +0.530 C 
BRANCH  23  24
ATOM     24  N   LIG    1       12.049  -1.096  -8.051  0.00  0.00    -0.830 NA
ATOM     25  H   LIG    1       12.968  -0.790  -8.004  0.00  0.00    +0.410 HD
ATOM     26  H   LIG    1       11.422  -0.659  -8.649  0.00  0.00    +0.420 HD
ENDBRANCH  23  24
ENDBRANCH  12  21
ENDBRANCH   1  15
BRANCH  10  27
ATOM     27  N   LIG    1        2.492  -5.019  -3.012  0.00  0.00    -0.690 N 
ATOM     28  H   LIG    1        1.640  -5.432  -2.800  0.00  0.00    +0.410 HD
BRANCH  27  29
ATOM     29  C   LIG    1        3.006  -3.930  -2.178  0.00  0.00    +0.300 C 
BRANCH  29  30
ATOM     30  C   LIG    1        2.014  -3.641  -1.049  0.00  0.00    -0.010 C 
ATOM     31  C   LIG    1        2.502  -2.596  -0.036  0.00  0.00    +0.240 C 
ATOM     32  N   LIG    1        1.132  -2.050  -0.020  0.00  0.00    -0.410 N 
ATOM     33  C   LIG    1        0.969  -2.569  -1.390  0.00  0.00    +0.210 C 
BRANCH  32  34
ATOM     34  C   LIG    1        1.150  -0.666  -0.013  0.00  0.00    +0.460 A 
ATOM     35  N   LIG    1        0.002  -0.004   0.002  0.00  0.00    -0.510 NA
ATOM     36  C   LIG    1       -0.016   1.319   0.009  0.00  0.00    +0.340 A 
ATOM     37  C   LIG    1        1.185   2.011   0.002  0.00  0.00    -0.090 A 
ATOM     38  C   LIG    1        2.367   1.288  -0.014  0.00  0.00    +0.340 A 
ATOM     39  N   LIG    1        2.314  -0.034  -0.021  0.00  0.00    -0.550 NA
ENDBRANCH  32  34
ENDBRANCH  29  30
ENDBRANCH  27  29
ENDBRANCH  10  27
TORSDOF 7
