REMARK  Name = ZINCnE000001KM4V.0
REMARK                            x       y       z     vdW  Elec       q    Type
REMARK                         _______ _______ _______ _____ _____    ______ ____
ROOT
ATOM      1  C   LIG    1        2.453  -0.049  -0.132  0.00  0.00    +0.080 A 
ATOM      2  C   LIG    1        3.755   0.428  -0.157  0.00  0.00    -0.090 A 
ATOM      3  C   LIG    1        3.997   1.788  -0.120  0.00  0.00    +0.120 A 
ATOM      4  C   LIG    1        2.924   2.687  -0.062  0.00  0.00    -0.160 A 
ATOM      5  C   LIG    1        1.610   2.203  -0.042  0.00  0.00    +0.040 A 
ATOM      6  F   LIG    1        5.266   2.249  -0.141  0.00  0.00    -0.120 F 
ATOM      7  C   LIG    1        1.379   0.842  -0.079  0.00  0.00    +0.160 A 
ENDROOT
BRANCH   4   8
ATOM      8  C   LIG    1        3.178   4.135  -0.023  0.00  0.00    +0.520 C 
ATOM      9  O   LIG    1        4.326   4.556  -0.041  0.00  0.00    -0.670 OA
ATOM     10  O   LIG    1        2.240   4.919   0.027  0.00  0.00    -0.690 OA
ENDBRANCH   4   8
BRANCH   1  12
ATOM     11  C   LIG    1        3.366  -2.241  -0.216  0.00  0.00    +0.220 C 
ATOM     12  O   LIG    1        2.222  -1.387  -0.163  0.00  0.00    -0.320 OA
ENDBRANCH   1  12
BRANCH   7  13
ATOM     13  N   LIG    1        0.065   0.355  -0.059  0.00  0.00    -0.740 N 
ATOM     14  H   LIG    1       -0.098  -0.601  -0.085  0.00  0.00    +0.400 HD
BRANCH  13  15
ATOM     15  C   LIG    1       -1.062   1.289  -0.003  0.00  0.00    +0.370 C 
BRANCH  15  16
ATOM     16  C   LIG    1       -2.356   0.516   0.002  0.00  0.00    -0.020 A 
ATOM     17  C   LIG    1       -3.120   0.242  -1.068  0.00  0.00    -0.010 A 
ATOM     18  O   LIG    1       -4.177  -0.469  -0.629  0.00  0.00    -0.200 OA
ATOM     19  C   LIG    1       -4.051  -0.611   0.697  0.00  0.00    +0.410 A 
ATOM     20  N   LIG    1       -2.956  -0.019   1.080  0.00  0.00    -0.470 NA
BRANCH  17  21
ATOM     21  C   LIG    1       -2.844   0.648  -2.493  0.00  0.00    +0.020 C 
ATOM     22  C   LIG    1       -2.928   2.171  -2.614  0.00  0.00    +0.050 C 
ATOM     23  C   LIG    1       -3.881   0.005  -3.417  0.00  0.00    +0.050 C 
ATOM     24  C   LIG    1       -1.444   0.182  -2.895  0.00  0.00    +0.060 C 
ENDBRANCH  17  21
ENDBRANCH  15  16
ENDBRANCH  13  15
ENDBRANCH   7  13
TORSDOF 6
