REMARK  Name = ZINCrH000004lWvh.0
REMARK                            x       y       z     vdW  Elec       q    Type
REMARK                         _______ _______ _______ _____ _____    ______ ____
ROOT
ATOM      1  C   LIG    1        1.237  -0.437  -0.012  0.00  0.00    +0.210 A 
ATOM      2  N   LIG    1        0.002  -0.004   0.002  0.00  0.00    -0.350 NA
ATOM      3  O   LIG    1       -0.014   1.209   0.009  0.00  0.00    +0.090 OA
ATOM      4  C   LIG    1        1.235   1.684  -0.001  0.00  0.00    +0.180 A 
ATOM      5  N   LIG    1        2.041   0.651  -0.014  0.00  0.00    -0.460 NA
ENDROOT
BRANCH   1  12
ATOM      6  C   LIG    1        0.724  -2.881  -0.014  0.00  0.00    +0.170 A 
ATOM      7  C   LIG    1        1.140  -4.202  -0.030  0.00  0.00    -0.040 A 
ATOM      8  C   LIG    1        2.490  -4.503  -0.044  0.00  0.00    -0.030 A 
ATOM      9  C   LIG    1        3.432  -3.488  -0.048  0.00  0.00    +0.020 A 
ATOM     10  C   LIG    1        3.030  -2.168  -0.038  0.00  0.00    +0.120 A 
ATOM     11 BR   LIG    1        3.052  -6.309  -0.058  0.00  0.00    -0.030 Br
ATOM     12  C   LIG    1        1.673  -1.854  -0.023  0.00  0.00    -0.050 A 
BRANCH   6  14
ATOM     13  C   LIG    1       -1.512  -3.685   0.013  0.00  0.00    +0.250 C 
ATOM     14  O   LIG    1       -0.601  -2.584   0.005  0.00  0.00    -0.290 OA
ENDBRANCH   6  14
ENDBRANCH   1  12
BRANCH   4  15
ATOM     15  C   LIG    1        1.641   3.135   0.003  0.00  0.00    +0.220 C 
BRANCH  15  16
ATOM     16  C   LIG    1        1.764   3.633  -1.439  0.00  0.00    +0.220 C 
BRANCH  16  17
ATOM     17  C   LIG    1        2.169   5.085  -1.436  0.00  0.00    +0.180 A 
ATOM     18  N   LIG    1        3.393   5.551  -1.445  0.00  0.00    -0.440 NA
ATOM     19  C   LIG    1        3.270   6.897  -1.438  0.00  0.00    +0.220 A 
ATOM     20  N   LIG    1        1.991   7.167  -1.424  0.00  0.00    -0.360 NA
ATOM     21  O   LIG    1        1.347   6.139  -1.428  0.00  0.00    +0.090 OA
BRANCH  19  22
ATOM     22  C   LIG    1        4.379   7.884  -1.444  0.00  0.00    +0.190 A 
ATOM     23  C   LIG    1        4.091   9.246  -1.440  0.00  0.00    +0.010 A 
ATOM     24  C   LIG    1        5.136  10.155  -1.441  0.00  0.00    +0.080 A 
ATOM     25  C   LIG    1        6.435   9.669  -1.457  0.00  0.00    -0.010 A 
ATOM     26  C   LIG    1        6.648   8.302  -1.465  0.00  0.00    +0.280 A 
ATOM     27  N   LIG    1        5.636   7.460  -1.459  0.00  0.00    -0.450 NA
ENDBRANCH  19  22
ENDBRANCH  16  17
ENDBRANCH  15  16
ENDBRANCH   4  15
TORSDOF 6
