REMARK  Name = ZINCpk000005dWRo.0
REMARK                            x       y       z     vdW  Elec       q    Type
REMARK                         _______ _______ _______ _____ _____    ______ ____
ROOT
ATOM      1  C   LIG    1       -0.800   1.987  -1.118  0.00  0.00    +0.180 C 
ENDROOT
BRANCH   1   6
ATOM      2  C   LIG    1       -0.877  -2.233   2.634  0.00  0.00    +0.190 C 
ATOM      3  N   LIG    1       -1.169  -1.171   1.663  0.00  0.00    -0.550 NA
ATOM      4  C   LIG    1       -0.719   0.136   2.161  0.00  0.00    +0.180 C 
ATOM      5  C   LIG    1       -1.112   1.224   1.159  0.00  0.00    +0.190 C 
ATOM      6  N   LIG    1       -0.508   0.925  -0.147  0.00  0.00    -0.510 NA
ATOM      7  C   LIG    1       -0.958  -0.382  -0.645  0.00  0.00    +0.180 C 
ATOM      8  C   LIG    1       -0.565  -1.470   0.357  0.00  0.00    +0.190 C 
ENDBRANCH   1   6
BRANCH   1   9
ATOM      9  C   LIG    1       -0.319   3.309  -0.577  0.00  0.00    -0.090 A 
ATOM     10  C   LIG    1        0.933   3.405   0.002  0.00  0.00    +0.050 A 
ATOM     11  C   LIG    1        1.376   4.618   0.495  0.00  0.00    +0.000 A 
ATOM     12  C   LIG    1        0.563   5.733   0.417  0.00  0.00    +0.010 A 
ATOM     13  C   LIG    1       -0.690   5.637  -0.158  0.00  0.00    +0.000 A 
ATOM     14  C   LIG    1       -1.132   4.425  -0.654  0.00  0.00    +0.010 A 
ENDBRANCH   1   9
BRANCH   1  15
ATOM     15  C   LIG    1       -0.095   1.690  -2.416  0.00  0.00    +0.530 C 
ATOM     16  N   LIG    1       -0.602   2.145  -3.579  0.00  0.00    -0.720 N 
ATOM     17  H   LIG    1       -1.421   2.664  -3.580  0.00  0.00    +0.400 HD
ATOM     18  O   LIG    1        0.930   1.040  -2.415  0.00  0.00    -0.500 OA
BRANCH  16  19
ATOM     19  C   LIG    1        0.084   1.855  -4.841  0.00  0.00    +0.330 C 
ATOM     20  C   LIG    1       -0.262   2.925  -5.902  0.00  0.00    +0.060 C 
ATOM     21  C   LIG    1       -0.314   2.087  -7.197  0.00  0.00    +0.300 C 
ATOM     22  N   LIG    1       -0.647   0.720  -6.774  0.00  0.00    -0.480 N 
ATOM     23  C   LIG    1       -1.104  -0.464  -7.244  0.00  0.00    +0.420 A 
ATOM     24  N   LIG    1       -1.160  -1.313  -6.255  0.00  0.00    -0.490 NA
ATOM     25  C   LIG    1       -0.748  -0.711  -5.130  0.00  0.00    +0.170 A 
ATOM     26  C   LIG    1       -0.426   0.561  -5.435  0.00  0.00    -0.060 A 
ENDBRANCH  16  19
ENDBRANCH   1  15
TORSDOF 4
