REMARK  Name = ZINCkj00000dDYOc.0
REMARK                            x       y       z     vdW  Elec       q    Type
REMARK                         _______ _______ _______ _____ _____    ______ ____
ROOT
ATOM      1  C   LIG    1       -0.196  -0.888  -0.538  0.00  0.00    +0.210 C 
ATOM      2  C   LIG    1       -0.921   0.118  -1.456  0.00  0.00    +0.040 C 
ATOM      3  C   LIG    1        0.151   0.435  -2.536  0.00  0.00    +0.040 C 
ATOM      4  C   LIG    1        0.859  -0.935  -2.685  0.00  0.00    +0.240 C 
ATOM      5  N   LIG    1        0.891  -1.494  -1.321  0.00  0.00    -0.620 N 
ATOM      6  C   LIG    1        1.772  -2.408  -0.867  0.00  0.00    +0.500 C 
ATOM      7  O   LIG    1        1.658  -2.855   0.255  0.00  0.00    -0.480 OA
ENDROOT
BRANCH   1   8
ATOM      8  C   LIG    1       -1.173  -1.973  -0.079  0.00  0.00    +0.280 C 
BRANCH   8  14
ATOM      9  C   LIG    1       -0.113  -1.283   2.749  0.00  0.00    +0.160 C 
ATOM     10  C   LIG    1       -0.017  -2.618   2.057  0.00  0.00    +0.230 A 
ATOM     11  N   LIG    1        0.528  -3.695   2.554  0.00  0.00    -0.490 NA
ATOM     12  C   LIG    1        0.433  -4.691   1.661  0.00  0.00    +0.140 A 
ATOM     13  C   LIG    1       -0.195  -4.214   0.570  0.00  0.00    +0.110 A 
ATOM     14  N   LIG    1       -0.485  -2.900   0.823  0.00  0.00    -0.440 N 
ENDBRANCH   8  14
ENDBRANCH   1   8
BRANCH   6  15
ATOM     15  C   LIG    1        2.898  -2.874  -1.753  0.00  0.00    +0.090 C 
BRANCH  15  16
ATOM     16  C   LIG    1        3.815  -3.809  -0.963  0.00  0.00    -0.170 C 
ATOM     17  C   LIG    1        4.265  -5.102  -1.646  0.00  0.00    +0.050 C 
ATOM     18  C   LIG    1        3.237  -5.153  -0.514  0.00  0.00    +0.120 C 
BRANCH  16  19
ATOM     19  C   LIG    1        4.811  -3.120  -0.027  0.00  0.00    +0.320 C 
BRANCH  19  20
ATOM     20  N   LIG    1        5.782  -2.357  -0.822  0.00  0.00    -0.640 N 
ATOM     21  H   LIG    1        5.309  -1.601  -1.294  0.00  0.00    +0.430 HD
ATOM     22  H   LIG    1        6.210  -2.964  -1.504  0.00  0.00    +0.430 HD
ATOM     23  H   LIG    1        6.493  -1.980  -0.213  0.00  0.00    +0.440 HD
ENDBRANCH  19  20
ENDBRANCH  16  19
ENDBRANCH  15  16
ENDBRANCH   6  15
TORSDOF 6
