REMARK  Name = ZINCpe00000gMRvA.0
REMARK                            x       y       z     vdW  Elec       q    Type
REMARK                         _______ _______ _______ _____ _____    ______ ____
ROOT
ATOM      1  C   LIG    1       -4.541   4.967  -2.989  0.00  0.00    +0.180 C 
ATOM      2  C   LIG    1       -3.983   6.365  -3.265  0.00  0.00    +0.080 C 
ENDROOT
BRANCH   1   3
ATOM      3  C   LIG    1       -6.042   4.989  -3.125  0.00  0.00    +0.520 C 
ATOM      4  N   LIG    1       -6.606   5.165  -4.336  0.00  0.00    -0.610 N 
ATOM      5  C   LIG    1       -8.064   5.295  -4.471  0.00  0.00    +0.280 C 
ATOM      6  C   LIG    1       -8.562   4.273  -5.490  0.00  0.00    +0.030 C 
ATOM      7  C   LIG    1       -7.791   4.445  -6.801  0.00  0.00    +0.040 C 
ATOM      8  C   LIG    1       -6.301   4.198  -6.555  0.00  0.00    -0.020 C 
ATOM      9  C   LIG    1       -5.777   5.226  -5.547  0.00  0.00    +0.300 C 
ATOM     10  O   LIG    1       -6.742   4.848  -2.144  0.00  0.00    -0.510 OA
BRANCH   8  11
ATOM     11  C   LIG    1       -5.547   4.337  -7.853  0.00  0.00    +0.530 C 
ATOM     12  O   LIG    1       -4.677   5.174  -7.962  0.00  0.00    -0.540 OA
ATOM     13  N   LIG    1       -5.841   3.530  -8.892  0.00  0.00    -0.850 N 
ATOM     14  H   LIG    1       -5.355   3.620  -9.727  0.00  0.00    +0.410 HD
ATOM     15  H   LIG    1       -6.537   2.861  -8.805  0.00  0.00    +0.400 HD
ENDBRANCH   8  11
ENDBRANCH   1   3
BRANCH   1  16
ATOM     16  O   LIG    1       -4.183   4.560  -1.642  0.00  0.00    -0.330 OA
BRANCH  16  17
ATOM     17  C   LIG    1       -3.022   3.904  -1.492  0.00  0.00    +0.460 C 
ATOM     18  O   LIG    1       -2.327   3.677  -2.455  0.00  0.00    -0.500 OA
BRANCH  17  19
ATOM     19  C   LIG    1       -2.584   3.450  -0.123  0.00  0.00    +0.170 C 
BRANCH  19  24
ATOM     20  C   LIG    1        2.503   0.731  -0.531  0.00  0.00    +0.090 C 
ATOM     21  C   LIG    1        1.178   1.440  -0.424  0.00  0.00    -0.100 A 
ATOM     22  C   LIG    1        0.000   0.728  -0.539  0.00  0.00    +0.030 A 
ATOM     23  C   LIG    1       -1.216   1.379  -0.447  0.00  0.00    +0.020 A 
ATOM     24  C   LIG    1       -1.257   2.744  -0.229  0.00  0.00    -0.070 A 
ATOM     25  C   LIG    1       -0.082   3.462  -0.114  0.00  0.00    +0.010 A 
ATOM     26  C   LIG    1        1.139   2.811  -0.211  0.00  0.00    +0.100 A 
BRANCH  26  27
ATOM     27  O   LIG    1        2.296   3.515  -0.097  0.00  0.00    -0.500 OA
ATOM     28  H   LIG    1        2.635   3.854  -0.937  0.00  0.00    +0.390 HD
ENDBRANCH  26  27
ENDBRANCH  19  24
ENDBRANCH  17  19
ENDBRANCH  16  17
ENDBRANCH   1  16
TORSDOF 7
