REMARK  Name = ZINCtV00000L6kYa.0
REMARK                            x       y       z     vdW  Elec       q    Type
REMARK                         _______ _______ _______ _____ _____    ______ ____
ROOT
ATOM      1  C   LIG    1       -0.256   1.466  -0.916  0.00  0.00    +0.080 C 
ENDROOT
BRANCH   1   2
ATOM      2  C   LIG    1       -1.021   1.994  -2.131  0.00  0.00    +0.090 C 
BRANCH   2   3
ATOM      3  C   LIG    1       -0.318   1.541  -3.413  0.00  0.00    +0.090 C 
BRANCH   3   5
ATOM      4  O   LIG    1       -2.072   2.728  -4.454  0.00  0.00    -0.510 OA
ATOM      5  C   LIG    1       -1.071   2.061  -4.610  0.00  0.00    +0.520 C 
ATOM      6  N   LIG    1       -0.632   1.785  -5.854  0.00  0.00    -0.670 N 
ATOM      7  H   LIG    1        0.199   1.301  -5.979  0.00  0.00    +0.420 HD
BRANCH   6   8
ATOM      8  C   LIG    1       -1.376   2.197  -6.966  0.00  0.00    +0.170 A 
ATOM      9  C   LIG    1       -2.083   3.391  -6.926  0.00  0.00    +0.060 A 
ATOM     10  C   LIG    1       -2.813   3.797  -8.028  0.00  0.00    -0.010 A 
ATOM     11  C   LIG    1       -2.848   3.010  -9.165  0.00  0.00    +0.040 A 
ATOM     12  C   LIG    1       -2.150   1.817  -9.205  0.00  0.00    +0.070 A 
ATOM     13 CL   LIG    1       -3.692   5.294  -7.981  0.00  0.00    -0.050 Cl
ATOM     14  C   LIG    1       -1.414   1.408  -8.110  0.00  0.00    -0.060 A 
ATOM     15 CL   LIG    1       -0.538  -0.090  -8.161  0.00  0.00    -0.050 Cl
ENDBRANCH   6   8
ENDBRANCH   3   5
ENDBRANCH   2   3
ENDBRANCH   1   2
BRANCH   1  16
ATOM     16  S   LIG    1       -1.089   2.002   0.600  0.00  0.00    +0.040 S 
BRANCH  16  17
ATOM     17  C   LIG    1       -0.027   1.275   1.804  0.00  0.00    +0.300 A 
ATOM     18  N   LIG    1       -0.299   1.439   3.089  0.00  0.00    -0.480 NA
ATOM     19  C   LIG    1        0.476   0.905   4.026  0.00  0.00    +0.210 A 
ATOM     20  C   LIG    1        1.577   0.170   3.643  0.00  0.00    -0.140 A 
ATOM     21  C   LIG    1        1.837   0.019   2.285  0.00  0.00    +0.100 A 
ATOM     22  C   LIG    1        2.507  -0.478   4.631  0.00  0.00    +0.080 C 
ATOM     23  C   LIG    1        2.325   0.136   6.018  0.00  0.00    +0.030 C 
ATOM     24  C   LIG    1        0.832   0.122   6.364  0.00  0.00    +0.030 C 
ATOM     25  C   LIG    1        0.117   1.133   5.469  0.00  0.00    +0.130 C 
ATOM     26  N   LIG    1        1.023   0.572   1.403  0.00  0.00    -0.490 NA
BRANCH  21  27
ATOM     27  C   LIG    1        3.032  -0.774   1.823  0.00  0.00    +0.530 C 
ATOM     28  F   LIG    1        4.193  -0.241   2.391  0.00  0.00    -0.160 F 
ATOM     29  F   LIG    1        3.123  -0.710   0.428  0.00  0.00    -0.160 F 
ATOM     30  F   LIG    1        2.888  -2.108   2.220  0.00  0.00    -0.160 F 
ENDBRANCH  21  27
ENDBRANCH  16  17
ENDBRANCH   1  16
TORSDOF 7
