REMARK  Name = ZINCAx0000000bPy.0
REMARK                            x       y       z     vdW  Elec       q    Type
REMARK                         _______ _______ _______ _____ _____    ______ ____
ROOT
ATOM      1  C   LIG    1       -1.341   3.020   0.031  0.00  0.00    -0.310 A 
ATOM      2  C   LIG    1       -1.207   1.635   0.017  0.00  0.00    +0.490 A 
ATOM      3  N   LIG    1       -2.429   1.038   0.019  0.00  0.00    -0.480 N 
ATOM      4  C   LIG    1       -3.435   1.983   0.029  0.00  0.00    +0.290 A 
ATOM      5  N   LIG    1       -4.749   1.909   0.035  0.00  0.00    -0.440 NA
ATOM      6  C   LIG    1       -5.480   3.031   0.046  0.00  0.00    +0.100 A 
ATOM      7  C   LIG    1       -6.885   2.962   0.054  0.00  0.00    +0.060 A 
ATOM      8  C   LIG    1       -7.620   4.107   0.064  0.00  0.00    +0.040 A 
ATOM      9  C   LIG    1       -7.001   5.356   0.067  0.00  0.00    +0.040 A 
ATOM     10  C   LIG    1       -5.645   5.463   0.060  0.00  0.00    +0.060 A 
ATOM     11  C   LIG    1       -4.851   4.302   0.049  0.00  0.00    +0.090 A 
ATOM     12  N   LIG    1       -3.516   4.396   0.043  0.00  0.00    -0.420 NA
ATOM     13  C   LIG    1       -2.787   3.298   0.033  0.00  0.00    +0.180 A 
ENDROOT
BRANCH   2  14
ATOM     14  N   LIG    1       -0.011   0.966   0.007  0.00  0.00    -0.820 N 
ATOM     15  H   LIG    1        0.822   1.462   0.002  0.00  0.00    +0.430 HD
ATOM     16  H   LIG    1        0.002  -0.004   0.002  0.00  0.00    +0.410 HD
ENDBRANCH   2  14
BRANCH   1  17
ATOM     17  C   LIG    1       -0.294   3.974   0.038  0.00  0.00    +0.570 C 
ATOM     18  O   LIG    1        0.153   4.394  -1.013  0.00  0.00    -0.490 OA
BRANCH  17  19
ATOM     19  O   LIG    1        0.207   4.416   1.210  0.00  0.00    -0.350 OA
BRANCH  19  21
ATOM     20  C   LIG    1        1.697   5.758   2.559  0.00  0.00    +0.070 C 
ATOM     21  C   LIG    1        1.262   5.378   1.143  0.00  0.00    +0.200 C 
ENDBRANCH  19  21
ENDBRANCH  17  19
ENDBRANCH   1  17
BRANCH   3  22
ATOM     22  C   LIG    1       -2.649  -0.410   0.012  0.00  0.00    +0.310 C 
BRANCH  22  23
ATOM     23  C   LIG    1       -2.719  -0.923   1.452  0.00  0.00    +0.270 C 
BRANCH  23  24
ATOM     24  N   LIG    1       -2.938  -2.371   1.445  0.00  0.00    -0.720 N 
ATOM     25  H   LIG    1       -3.014  -2.846   0.602  0.00  0.00    +0.400 HD
ATOM     26  C   LIG    1       -3.034  -3.044   2.608  0.00  0.00    +0.570 C 
ATOM     27  O   LIG    1       -2.938  -2.449   3.664  0.00  0.00    -0.520 OA
BRANCH  26  28
ATOM     28  C   LIG    1       -3.255  -4.503   2.601  0.00  0.00    -0.060 A 
ATOM     29  C   LIG    1       -3.370  -5.188   1.389  0.00  0.00    -0.060 A 
ATOM     30  C   LIG    1       -3.574  -6.555   1.384  0.00  0.00    +0.140 A 
ATOM     31  C   LIG    1       -3.672  -7.249   2.587  0.00  0.00    +0.060 A 
ATOM     32  C   LIG    1       -3.561  -6.569   3.797  0.00  0.00    +0.140 A 
ATOM     33  C   LIG    1       -3.354  -5.202   3.807  0.00  0.00    -0.020 A 
BRANCH  32  34
ATOM     34  O   LIG    1       -3.658  -7.250   4.971  0.00  0.00    -0.300 OA
ATOM     35  C   LIG    1       -3.536  -6.489   6.174  0.00  0.00    +0.250 C 
ENDBRANCH  32  34
BRANCH  31  36
ATOM     36  O   LIG    1       -3.876  -8.592   2.580  0.00  0.00    -0.310 OA
ATOM     37  C   LIG    1       -5.232  -9.042   2.584  0.00  0.00    +0.240 C 
ENDBRANCH  31  36
BRANCH  30  38
ATOM     38  O   LIG    1       -3.682  -7.222   0.204  0.00  0.00    -0.300 OA
ATOM     39  C   LIG    1       -3.571  -6.447  -0.992  0.00  0.00    +0.250 C 
ENDBRANCH  30  38
ENDBRANCH  26  28
ENDBRANCH  23  24
ENDBRANCH  22  23
ENDBRANCH   3  22
TORSDOF 11
