REMARK  Name = ZINCpk000000om5c.0
REMARK                            x       y       z     vdW  Elec       q    Type
REMARK                         _______ _______ _______ _____ _____    ______ ____
ROOT
ATOM      1  N   LIG    1        8.255  -5.119  -0.831  0.00  0.00    -0.740 N 
ATOM      2  H   LIG    1        8.958  -4.678  -0.329  0.00  0.00    +0.410 HD
ATOM      3  C   LIG    1        7.004  -4.616  -0.823  0.00  0.00    +0.710 C 
ATOM      4  N   LIG    1        6.730  -3.502  -0.116  0.00  0.00    -0.740 N 
ATOM      5  H   LIG    1        7.433  -3.062   0.387  0.00  0.00    +0.400 HD
ATOM      6  O   LIG    1        6.123  -5.168  -1.453  0.00  0.00    -0.590 OA
ENDROOT
BRANCH   4   7
ATOM      7  C   LIG    1        5.371  -2.956  -0.107  0.00  0.00    +0.250 C 
ATOM      8  C   LIG    1        5.156  -2.139   1.171  0.00  0.00    +0.040 C 
ATOM      9  C   LIG    1        3.756  -1.522   1.146  0.00  0.00    +0.190 C 
ATOM     10  N   LIG    1        3.621  -0.660  -0.036  0.00  0.00    -0.490 N 
ATOM     11  C   LIG    1        3.776  -1.431  -1.276  0.00  0.00    +0.190 C 
ATOM     12  C   LIG    1        5.177  -2.046  -1.323  0.00  0.00    +0.020 C 
BRANCH  10  13
ATOM     13  C   LIG    1        2.400   0.024  -0.020  0.00  0.00    +0.050 A 
ATOM     14  C   LIG    1        1.207  -0.682  -0.013  0.00  0.00    +0.020 A 
ATOM     15  C   LIG    1        0.002  -0.004   0.002  0.00  0.00    -0.030 A 
ATOM     16  C   LIG    1       -0.017   1.378   0.010  0.00  0.00    +0.050 A 
ATOM     17  C   LIG    1        1.169   2.090   0.002  0.00  0.00    -0.080 A 
ATOM     18  C   LIG    1        2.380   1.418  -0.013  0.00  0.00    +0.150 A 
BRANCH  18  19
ATOM     19  O   LIG    1        3.547   2.116  -0.020  0.00  0.00    -0.300 OA
ATOM     20  C   LIG    1        3.450   3.542  -0.012  0.00  0.00    +0.220 C 
ENDBRANCH  18  19
ENDBRANCH  10  13
ENDBRANCH   4   7
BRANCH   1  21
ATOM     21  C   LIG    1        8.552  -6.330  -1.599  0.00  0.00    +0.320 C 
BRANCH  21  24
ATOM     22  N   LIG    1       10.514  -7.763  -2.065  0.00  0.00    -0.730 N 
ATOM     23  H   LIG    1        9.939  -8.319  -2.613  0.00  0.00    +0.410 HD
ATOM     24  C   LIG    1       10.010  -6.679  -1.443  0.00  0.00    +0.510 C 
ATOM     25  O   LIG    1       10.729  -5.984  -0.757  0.00  0.00    -0.540 OA
BRANCH  22  26
ATOM     26  C   LIG    1       11.931  -8.102  -1.913  0.00  0.00    +0.260 C 
BRANCH  26  28
ATOM     27  C   LIG    1       13.722  -9.721  -2.556  0.00  0.00    +0.030 C 
ATOM     28  C   LIG    1       12.242  -9.367  -2.715  0.00  0.00    +0.000 C 
ENDBRANCH  26  28
ENDBRANCH  22  26
ENDBRANCH  21  24
ENDBRANCH   1  21
TORSDOF 7
