REMARK  Name = ZINCb7000000406H.0
REMARK                            x       y       z     vdW  Elec       q    Type
REMARK                         _______ _______ _______ _____ _____    ______ ____
ROOT
ATOM      1  C   LIG    1       -0.939   1.683   1.080  0.00  0.00    -0.010 C 
ATOM      2  C   LIG    1       -1.349   2.730   0.028  0.00  0.00    +0.050 C 
ATOM      3  C   LIG    1       -0.959   1.695  -1.040  0.00  0.00    +0.270 C 
ATOM      4  C   LIG    1       -0.013   1.086   0.008  0.00  0.00    +0.070 C 
ENDROOT
BRANCH   3   5
ATOM      5  N   LIG    1       -0.264   2.274  -2.192  0.00  0.00    -0.380 N 
ATOM      6  C   LIG    1        0.245   3.514  -2.286  0.00  0.00    +0.460 A 
ATOM      7  N   LIG    1        0.785   3.643  -3.471  0.00  0.00    -0.530 NA
ATOM      8  C   LIG    1        0.634   2.514  -4.162  0.00  0.00    +0.430 A 
ATOM      9  N   LIG    1       -0.003   1.645  -3.421  0.00  0.00    -0.310 NA
ENDBRANCH   3   5
BRANCH   1  10
ATOM     10  C   LIG    1       -0.190   2.275   2.276  0.00  0.00    +0.280 C 
BRANCH  10  11
ATOM     11  N   LIG    1       -1.157   2.709   3.293  0.00  0.00    -0.640 N 
ATOM     12  H   LIG    1       -0.663   3.100   4.082  0.00  0.00    +0.440 HD
ATOM     13  H   LIG    1       -1.704   1.918   3.597  0.00  0.00    +0.440 HD
ATOM     14  H   LIG    1       -1.768   3.409   2.899  0.00  0.00    +0.440 HD
ENDBRANCH  10  11
ENDBRANCH   1  10
TORSDOF 3
