REMARK  Name = ZINCqH0000037ALs.0
REMARK                            x       y       z     vdW  Elec       q    Type
REMARK                         _______ _______ _______ _____ _____    ______ ____
ROOT
ATOM      1  C   LIG    1        2.555   1.306  -0.492  0.00  0.00    +0.590 C 
ATOM      2  N   LIG    1        2.680  -0.031  -0.612  0.00  0.00    -0.720 N 
ATOM      3  H   LIG    1        1.899  -0.600  -0.525  0.00  0.00    +0.400 HD
ATOM      4  O   LIG    1        3.533   2.020  -0.601  0.00  0.00    -0.520 OA
ENDROOT
BRANCH   1   7
ATOM      5  C   LIG    1        2.328   4.143   0.041  0.00  0.00    +0.180 C 
ATOM      6  C   LIG    1        1.111   3.255   0.027  0.00  0.00    +0.280 A 
ATOM      7  C   LIG    1        1.232   1.903  -0.228  0.00  0.00    -0.270 A 
ATOM      8  C   LIG    1        0.067   1.099  -0.233  0.00  0.00    +0.390 A 
ATOM      9  N   LIG    1       -1.104   1.638  -0.003  0.00  0.00    -0.460 NA
ATOM     10  C   LIG    1       -1.226   2.950   0.250  0.00  0.00    +0.260 A 
ATOM     11  C   LIG    1       -2.327   3.748   0.524  0.00  0.00    -0.080 A 
ATOM     12  C   LIG    1       -1.871   5.048   0.702  0.00  0.00    +0.310 A 
ATOM     13  N   LIG    1       -0.567   5.068   0.550  0.00  0.00    -0.300 NA
ATOM     14  N   LIG    1       -0.126   3.771   0.266  0.00  0.00    -0.320 N 
ENDBRANCH   1   7
BRANCH   2  15
ATOM     15  C   LIG    1        3.994  -0.623  -0.875  0.00  0.00    +0.410 C 
BRANCH  15  16
ATOM     16  C   LIG    1        3.860  -2.122  -0.964  0.00  0.00    +0.020 A 
ATOM     17  N   LIG    1        3.617  -2.774  -2.048  0.00  0.00    -0.440 NA
ATOM     18  C   LIG    1        3.534  -4.093  -1.953  0.00  0.00    +0.110 A 
ATOM     19  C   LIG    1        3.711  -4.567  -0.703  0.00  0.00    -0.060 A 
ATOM     20  S   LIG    1        4.002  -3.193   0.360  0.00  0.00    +0.170 S 
BRANCH  18  21
ATOM     21  C   LIG    1        3.264  -4.970  -3.119  0.00  0.00    -0.020 A 
ATOM     22  C   LIG    1        3.188  -6.352  -2.951  0.00  0.00    +0.040 A 
ATOM     23  C   LIG    1        2.933  -7.163  -4.038  0.00  0.00    +0.030 A 
ATOM     24  C   LIG    1        2.760  -6.608  -5.294  0.00  0.00    -0.030 A 
ATOM     25  C   LIG    1        2.840  -5.237  -5.466  0.00  0.00    +0.030 A 
ATOM     26 CL   LIG    1        2.445  -7.635  -6.658  0.00  0.00    -0.060 Cl
ATOM     27  C   LIG    1        3.090  -4.416  -4.386  0.00  0.00    +0.070 A 
ENDBRANCH  18  21
ENDBRANCH  15  16
ENDBRANCH   2  15
TORSDOF 4
