REMARK  Name = ZINCrH000004rLVW.1
REMARK                            x       y       z     vdW  Elec       q    Type
REMARK                         _______ _______ _______ _____ _____    ______ ____
ROOT
ATOM      1  N   LIG    1       -2.991   4.114  -1.332  0.00  0.00    -0.740 N 
ATOM      2  H   LIG    1       -2.447   3.810  -2.076  0.00  0.00    +0.400 HD
ATOM      3  C   LIG    1       -4.149   4.762  -1.565  0.00  0.00    +0.700 C 
ATOM      4  N   LIG    1       -4.553   4.988  -2.831  0.00  0.00    -0.740 N 
ATOM      5  H   LIG    1       -4.009   4.684  -3.575  0.00  0.00    +0.400 HD
ATOM      6  O   LIG    1       -4.831   5.143  -0.633  0.00  0.00    -0.590 OA
ENDROOT
BRANCH   4   7
ATOM      7  C   LIG    1       -5.812   5.692  -3.084  0.00  0.00    +0.250 C 
ATOM      8  C   LIG    1       -6.972   4.693  -3.057  0.00  0.00    +0.020 C 
ATOM      9  C   LIG    1       -8.276   5.424  -3.382  0.00  0.00    +0.180 C 
ATOM     10  N   LIG    1       -8.173   6.045  -4.709  0.00  0.00    -0.530 NA
ATOM     11  C   LIG    1       -7.096   7.043  -4.746  0.00  0.00    +0.190 C 
ATOM     12  C   LIG    1       -5.756   6.361  -4.461  0.00  0.00    +0.030 C 
BRANCH  10  13
ATOM     13  C   LIG    1       -9.454   6.639  -5.114  0.00  0.00    +0.170 C 
ATOM     14  C   LIG    1       -9.338   7.182  -6.539  0.00  0.00    +0.050 C 
BRANCH  13  15
ATOM     15  C   LIG    1      -10.533   5.587  -5.064  0.00  0.00    -0.040 A 
ATOM     16  C   LIG    1      -10.284   4.294  -5.497  0.00  0.00    -0.010 A 
ATOM     17  C   LIG    1      -11.296   3.356  -5.433  0.00  0.00    +0.240 A 
ATOM     18  N   LIG    1      -12.489   3.680  -4.975  0.00  0.00    -0.490 NA
ATOM     19  C   LIG    1      -12.763   4.901  -4.558  0.00  0.00    +0.260 A 
ATOM     20  C   LIG    1      -11.799   5.891  -4.588  0.00  0.00    -0.040 A 
ENDBRANCH  13  15
ENDBRANCH  10  13
ENDBRANCH   4   7
BRANCH   1  21
ATOM     21  C   LIG    1       -2.553   3.869   0.044  0.00  0.00    +0.340 C 
BRANCH  21  29
ATOM     22  C   LIG    1       -2.514   0.980   0.019  0.00  0.00    +0.090 C 
ATOM     23  C   LIG    1       -1.219   1.751   0.017  0.00  0.00    -0.060 A 
ATOM     24  C   LIG    1       -0.013   1.076   0.008  0.00  0.00    -0.010 A 
ATOM     25  C   LIG    1        1.175   1.783   0.000  0.00  0.00    +0.020 A 
ATOM     26  C   LIG    1        1.156   3.165   0.008  0.00  0.00    -0.010 A 
ATOM     27  C   LIG    1       -0.050   3.840   0.022  0.00  0.00    -0.060 A 
ATOM     28  C   LIG    1       -0.070   5.347   0.030  0.00  0.00    +0.090 C 
ATOM     29  C   LIG    1       -1.238   3.133   0.029  0.00  0.00    -0.120 A 
ENDBRANCH  21  29
ENDBRANCH   1  21
TORSDOF 5
