REMARK  Name = ZINCpk00001AZiro.0
REMARK                            x       y       z     vdW  Elec       q    Type
REMARK                         _______ _______ _______ _____ _____    ______ ____
ROOT
ATOM      1  C   LIG    1       -1.084  -1.250   3.298  0.00  0.00    +0.170 A 
ATOM      2  N   LIG    1       -2.308  -0.838   3.127  0.00  0.00    -0.270 NA
ATOM      3  N   LIG    1       -2.322   0.201   2.371  0.00  0.00    -0.320 NA
ATOM      4  C   LIG    1       -1.097   0.510   2.017  0.00  0.00    +0.390 A 
ATOM      5  N   LIG    1       -0.270  -0.409   2.593  0.00  0.00    -0.470 N 
ENDROOT
BRANCH   1   9
ATOM      6  O   LIG    1       -1.912  -5.667   4.993  0.00  0.00    -0.530 OA
ATOM      7  C   LIG    1       -1.622  -4.490   4.933  0.00  0.00    +0.520 C 
ATOM      8  C   LIG    1       -1.369  -3.725   3.652  0.00  0.00    +0.080 C 
ATOM      9  C   LIG    1       -0.648  -2.438   4.117  0.00  0.00    +0.100 C 
ATOM     10  C   LIG    1       -1.136  -2.313   5.577  0.00  0.00    +0.280 C 
ATOM     11  N   LIG    1       -1.480  -3.677   5.994  0.00  0.00    -0.730 N 
ATOM     12  H   LIG    1       -1.590  -3.957   6.916  0.00  0.00    +0.410 HD
ENDBRANCH   1   9
BRANCH   4  13
ATOM     13  N   LIG    1       -0.716   1.568   1.206  0.00  0.00    -0.420 N 
ATOM     14  C   LIG    1       -0.013   1.086   0.008  0.00  0.00    +0.200 C 
ATOM     15  C   LIG    1       -0.772   1.603  -1.224  0.00  0.00    +0.020 C 
ATOM     16  C   LIG    1       -1.670   2.734  -0.689  0.00  0.00    -0.010 C 
ATOM     17  C   LIG    1       -0.893   3.961  -0.192  0.00  0.00    +0.040 C 
ATOM     18  C   LIG    1       -1.723   3.869   1.099  0.00  0.00    +0.050 C 
ATOM     19  C   LIG    1       -1.884   2.368   0.798  0.00  0.00    +0.170 C 
ENDBRANCH   4  13
BRANCH   5  20
ATOM     20  C   LIG    1        1.190  -0.478   2.481  0.00  0.00    +0.330 C 
BRANCH  20  21
ATOM     21  C   LIG    1        1.827   0.342   3.605  0.00  0.00    +0.140 C 
ATOM     22  C   LIG    1        3.347   0.169   3.564  0.00  0.00    +0.010 C 
ATOM     23  C   LIG    1        3.982   1.040   4.653  0.00  0.00    +0.010 C 
ATOM     24  C   LIG    1        3.555   2.495   4.441  0.00  0.00    -0.020 C 
ATOM     25  C   LIG    1        2.027   2.578   4.448  0.00  0.00    +0.210 C 
ATOM     26  O   LIG    1        1.500   1.722   3.432  0.00  0.00    -0.360 OA
ENDBRANCH  20  21
ENDBRANCH   5  20
TORSDOF 4
