REMARK  Name = ZINCfA000000yvy2.1
REMARK                            x       y       z     vdW  Elec       q    Type
REMARK                         _______ _______ _______ _____ _____    ______ ____
ROOT
ATOM      1  C   LIG    1        1.109  -2.932   2.031  0.00  0.00    +0.230 C 
ATOM      2  C   LIG    1        0.987  -4.436   1.782  0.00  0.00    +0.100 C 
ENDROOT
BRANCH   1   3
ATOM      3  C   LIG    1        0.341  -2.565   3.275  0.00  0.00    -0.130 A 
ATOM      4  C   LIG    1       -1.031  -2.404   3.219  0.00  0.00    +0.010 A 
ATOM      5  C   LIG    1       -1.736  -2.073   4.361  0.00  0.00    +0.070 A 
ATOM      6  C   LIG    1       -1.067  -1.892   5.558  0.00  0.00    -0.070 A 
ATOM      7  C   LIG    1        0.306  -2.047   5.613  0.00  0.00    +0.070 A 
ATOM      8 BR   LIG    1       -2.030  -1.431   7.118  0.00  0.00    -0.010 Br
ATOM      9  C   LIG    1        1.010  -2.383   4.471  0.00  0.00    +0.070 A 
ENDBRANCH   1   3
BRANCH   1  10
ATOM     10  N   LIG    1        0.559  -2.199   0.883  0.00  0.00    -0.380 N 
ATOM     11  C   LIG    1        1.307  -2.557  -0.330  0.00  0.00    +0.330 C 
ATOM     12  H   LIG    1       -0.413  -2.443   0.762  0.00  0.00    +0.430 HD
BRANCH  10  13
ATOM     13  C   LIG    1        0.675  -0.755   1.122  0.00  0.00    +0.260 C 
BRANCH  13  15
ATOM     14  C   LIG    1       -0.018   1.503   0.010  0.00  0.00    +0.120 C 
ATOM     15  C   LIG    1        0.002  -0.004   0.002  0.00  0.00    +0.350 C 
ATOM     16  O   LIG    1       -0.521  -0.610  -0.902  0.00  0.00    -0.440 OA
ENDBRANCH  13  15
ENDBRANCH  10  13
ENDBRANCH   1  10
TORSDOF 4
