REMARK  Name = ZINCfA000000yvy2.2
REMARK                            x       y       z     vdW  Elec       q    Type
REMARK                         _______ _______ _______ _____ _____    ______ ____
ROOT
ATOM      1  C   LIG    1        2.451   3.936   0.001  0.00  0.00    +0.230 C 
ATOM      2  C   LIG    1        2.748   4.421  -1.420  0.00  0.00    +0.100 C 
ENDROOT
BRANCH   1   3
ATOM      3  C   LIG    1        1.156   3.166   0.009  0.00  0.00    -0.130 A 
ATOM      4  C   LIG    1        1.175   1.783   0.000  0.00  0.00    +0.060 A 
ATOM      5  C   LIG    1       -0.013   1.076   0.008  0.00  0.00    +0.070 A 
ATOM      6  C   LIG    1       -1.220   1.751   0.017  0.00  0.00    -0.070 A 
ATOM      7  C   LIG    1       -1.238   3.134   0.030  0.00  0.00    +0.070 A 
ATOM      8 BR   LIG    1       -2.845   0.784   0.020  0.00  0.00    -0.020 Br
ATOM      9  C   LIG    1       -0.050   3.841   0.023  0.00  0.00    +0.010 A 
ENDBRANCH   1   3
BRANCH   1  10
ATOM     10  N   LIG    1        2.338   5.093   0.899  0.00  0.00    -0.380 N 
ATOM     11  C   LIG    1        2.053   4.628   2.263  0.00  0.00    +0.330 C 
ATOM     12  H   LIG    1        1.588   5.691   0.584  0.00  0.00    +0.430 HD
BRANCH  10  13
ATOM     13  C   LIG    1        3.600   5.845   0.891  0.00  0.00    +0.270 C 
BRANCH  13  15
ATOM     14  C   LIG    1        4.603   8.048   1.867  0.00  0.00    +0.120 C 
ATOM     15  C   LIG    1        3.444   7.097   1.715  0.00  0.00    +0.350 C 
ATOM     16  O   LIG    1        2.390   7.339   2.253  0.00  0.00    -0.440 OA
ENDBRANCH  13  15
ENDBRANCH  10  13
ENDBRANCH   1  10
TORSDOF 4
