REMARK  Name = ZINCrH000004sTbB.0
REMARK                            x       y       z     vdW  Elec       q    Type
REMARK                         _______ _______ _______ _____ _____    ______ ____
ROOT
ATOM      1  C   LIG    1        6.379   6.795   1.608  0.00  0.00    +0.600 C 
ATOM      2  N   LIG    1        5.845   5.582   1.360  0.00  0.00    -0.710 N 
ATOM      3  H   LIG    1        5.598   5.002   2.097  0.00  0.00    +0.400 HD
ATOM      4  O   LIG    1        6.689   7.523   0.684  0.00  0.00    -0.520 OA
ENDROOT
BRANCH   1   7
ATOM      5  C   LIG    1        8.966   6.352   3.425  0.00  0.00    +0.200 C 
ATOM      6  C   LIG    1        7.688   7.060   3.796  0.00  0.00    +0.030 A 
ATOM      7  C   LIG    1        6.587   7.238   2.997  0.00  0.00    -0.250 A 
ATOM      8  C   LIG    1        5.659   7.979   3.877  0.00  0.00    +0.100 A 
ATOM      9  N   LIG    1        6.306   8.131   5.004  0.00  0.00    -0.340 NA
ATOM     10  O   LIG    1        7.407   7.638   4.966  0.00  0.00    +0.110 OA
BRANCH   8  11
ATOM     11  C   LIG    1        4.290   8.449   3.552  0.00  0.00    -0.030 A 
ATOM     12  C   LIG    1        3.990   8.891   2.265  0.00  0.00    +0.040 A 
ATOM     13  C   LIG    1        2.713   9.322   1.967  0.00  0.00    +0.010 A 
ATOM     14  C   LIG    1        1.736   9.328   2.946  0.00  0.00    +0.030 A 
ATOM     15  C   LIG    1        2.030   8.896   4.227  0.00  0.00    +0.010 A 
ATOM     16  C   LIG    1        3.302   8.457   4.534  0.00  0.00    +0.040 A 
ENDBRANCH   8  11
ENDBRANCH   1   7
BRANCH   2  17
ATOM     17  C   LIG    1        5.638   5.141  -0.021  0.00  0.00    +0.360 C 
BRANCH  17  18
ATOM     18  C   LIG    1        5.034   3.761  -0.023  0.00  0.00    -0.250 A 
ATOM     19  C   LIG    1        3.712   3.471  -0.014  0.00  0.00    +0.260 A 
ATOM     20  N   LIG    1        3.586   2.125  -0.019  0.00  0.00    -0.320 N 
ATOM     21  N   LIG    1        4.873   1.572  -0.027  0.00  0.00    -0.280 NA
ATOM     22  C   LIG    1        5.739   2.553  -0.035  0.00  0.00    +0.270 A 
BRANCH  20  23
ATOM     23  C   LIG    1        2.381   1.409  -0.013  0.00  0.00    +0.150 A 
ATOM     24  C   LIG    1        1.169   2.087   0.002  0.00  0.00    -0.010 A 
ATOM     25  C   LIG    1       -0.017   1.379   0.010  0.00  0.00    +0.040 A 
ATOM     26  C   LIG    1        0.002  -0.004   0.002  0.00  0.00    +0.000 A 
ATOM     27  C   LIG    1        1.207  -0.682  -0.013  0.00  0.00    +0.040 A 
ATOM     28  C   LIG    1        2.396   0.021  -0.020  0.00  0.00    +0.020 A 
ENDBRANCH  20  23
ENDBRANCH  17  18
ENDBRANCH   2  17
TORSDOF 5
