REMARK  Name = ZINCpe00000MCX9E.0
REMARK                            x       y       z     vdW  Elec       q    Type
REMARK                         _______ _______ _______ _____ _____    ______ ____
ROOT
ATOM      1  C   LIG    1        1.820   2.893   0.888  0.00  0.00    +0.580 C 
ATOM      2  N   LIG    1        1.451   1.960  -0.012  0.00  0.00    -0.600 N 
ATOM      3  C   LIG    1        2.431   1.371  -0.938  0.00  0.00    +0.260 C 
ATOM      4  C   LIG    1        2.308  -0.155  -0.865  0.00  0.00    +0.240 C 
ATOM      5  O   LIG    1        0.942  -0.527  -1.065  0.00  0.00    -0.380 OA
ATOM      6  C   LIG    1        0.048  -0.032  -0.066  0.00  0.00    +0.140 C 
ATOM      7  C   LIG    1        0.056   1.501  -0.098  0.00  0.00    +0.290 C 
ATOM      8  O   LIG    1        0.995   3.369   1.644  0.00  0.00    -0.510 OA
ENDROOT
BRANCH   1  16
ATOM      9  C   LIG    1        3.659   4.418   0.175  0.00  0.00    +0.130 A 
ATOM     10  C   LIG    1        4.982   4.832   0.250  0.00  0.00    +0.080 A 
ATOM     11  C   LIG    1        5.869   4.172   1.082  0.00  0.00    +0.070 A 
ATOM     12  C   LIG    1        5.446   3.101   1.849  0.00  0.00    +0.030 A 
ATOM     13  C   LIG    1        4.131   2.679   1.792  0.00  0.00    +0.140 A 
ATOM     14  F   LIG    1        3.723   1.634   2.544  0.00  0.00    -0.120 F 
ATOM     15  F   LIG    1        5.406   5.876  -0.495  0.00  0.00    -0.120 F 
ATOM     16  C   LIG    1        3.224   3.338   0.955  0.00  0.00    -0.160 A 
BRANCH   9  18
ATOM     17  C   LIG    1        2.076   6.169  -0.093  0.00  0.00    +0.260 C 
ATOM     18  O   LIG    1        2.790   5.061  -0.645  0.00  0.00    -0.320 OA
ENDBRANCH   9  18
ENDBRANCH   1  16
BRANCH   6  19
ATOM     19  C   LIG    1       -1.367  -0.542  -0.347  0.00  0.00    +0.280 C 
BRANCH  19  20
ATOM     20  N   LIG    1       -1.401  -2.002  -0.190  0.00  0.00    -0.360 N 
ATOM     21  C   LIG    1       -2.716  -2.509  -0.603  0.00  0.00    +0.320 C 
ATOM     22  H   LIG    1       -0.684  -2.419  -0.765  0.00  0.00    +0.430 HD
BRANCH  20  23
ATOM     23  C   LIG    1       -1.162  -2.349   1.217  0.00  0.00    +0.150 C 
BRANCH  23  24
ATOM     24  C   LIG    1       -1.075  -3.847   1.357  0.00  0.00    +0.490 C 
ATOM     25  O   LIG    1       -0.879  -4.346   2.452  0.00  0.00    -0.640 OA
ATOM     26  O   LIG    1       -1.200  -4.560   0.376  0.00  0.00    -0.670 OA
ENDBRANCH  23  24
ENDBRANCH  20  23
ENDBRANCH  19  20
ENDBRANCH   6  19
TORSDOF 6
