REMARK  Name = ZINCpe00000MCX9E.1
REMARK                            x       y       z     vdW  Elec       q    Type
REMARK                         _______ _______ _______ _____ _____    ______ ____
ROOT
ATOM      1  C   LIG    1       -0.900   1.430  -7.138  0.00  0.00    +0.580 C 
ATOM      2  N   LIG    1       -0.470   2.074  -6.035  0.00  0.00    -0.600 N 
ATOM      3  C   LIG    1       -0.528   3.541  -5.943  0.00  0.00    +0.260 C 
ATOM      4  C   LIG    1       -1.212   3.917  -4.624  0.00  0.00    +0.240 C 
ATOM      5  O   LIG    1       -0.562   3.239  -3.546  0.00  0.00    -0.380 OA
ATOM      6  C   LIG    1       -0.643   1.813  -3.618  0.00  0.00    +0.140 C 
ATOM      7  C   LIG    1        0.070   1.330  -4.886  0.00  0.00    +0.290 C 
ATOM      8  O   LIG    1       -0.844   0.217  -7.194  0.00  0.00    -0.510 OA
ENDROOT
BRANCH   1  16
ATOM      9  C   LIG    1       -0.582   2.642  -9.293  0.00  0.00    +0.130 A 
ATOM     10  C   LIG    1       -1.100   3.358 -10.363  0.00  0.00    +0.080 A 
ATOM     11  C   LIG    1       -2.453   3.641 -10.419  0.00  0.00    +0.070 A 
ATOM     12  C   LIG    1       -3.301   3.209  -9.414  0.00  0.00    +0.030 A 
ATOM     13  C   LIG    1       -2.804   2.490  -8.345  0.00  0.00    +0.140 A 
ATOM     14  F   LIG    1       -3.636   2.070  -7.367  0.00  0.00    -0.120 F 
ATOM     15  F   LIG    1       -0.281   3.785 -11.349  0.00  0.00    -0.120 F 
ATOM     16  C   LIG    1       -1.438   2.197  -8.276  0.00  0.00    -0.160 A 
BRANCH   9  18
ATOM     17  C   LIG    1        1.186   1.154  -9.845  0.00  0.00    +0.260 C 
ATOM     18  O   LIG    1        0.746   2.369  -9.235  0.00  0.00    -0.320 OA
ENDBRANCH   9  18
ENDBRANCH   1  16
BRANCH   6  19
ATOM     19  C   LIG    1        0.029   1.201  -2.388  0.00  0.00    +0.280 C 
BRANCH  19  20
ATOM     20  N   LIG    1       -0.723   1.572  -1.182  0.00  0.00    -0.360 N 
ATOM     21  C   LIG    1       -2.061   0.969  -1.234  0.00  0.00    +0.310 C 
ATOM     22  H   LIG    1       -0.809   2.577  -1.135  0.00  0.00    +0.430 HD
BRANCH  20  23
ATOM     23  C   LIG    1       -0.013   1.086   0.008  0.00  0.00    +0.160 C 
BRANCH  23  24
ATOM     24  C   LIG    1       -0.718   1.572   1.248  0.00  0.00    +0.490 C 
ATOM     25  O   LIG    1       -0.287   1.277   2.350  0.00  0.00    -0.640 OA
ATOM     26  O   LIG    1       -1.720   2.260   1.149  0.00  0.00    -0.670 OA
ENDBRANCH  23  24
ENDBRANCH  20  23
ENDBRANCH  19  20
ENDBRANCH   6  19
TORSDOF 6
