REMARK  Name = ZINCrD0000074LPf.0
REMARK                            x       y       z     vdW  Elec       q    Type
REMARK                         _______ _______ _______ _____ _____    ______ ____
ROOT
ATOM      1  C   LIG    1        1.280   1.980   0.001  0.00  0.00    +0.040 C 
ENDROOT
BRANCH   1   2
ATOM      2  C   LIG    1       -0.014   1.209   0.009  0.00  0.00    +0.520 C 
ATOM      3  N   LIG    1       -1.191   1.867   0.018  0.00  0.00    -0.720 N 
ATOM      4  H   LIG    1       -1.204   2.837   0.023  0.00  0.00    +0.400 HD
ATOM      5  O   LIG    1        0.002  -0.004   0.002  0.00  0.00    -0.530 OA
BRANCH   3   6
ATOM      6  C   LIG    1       -2.449   1.117   0.020  0.00  0.00    +0.240 C 
ATOM      7  C   LIG    1       -2.830   0.756  -1.417  0.00  0.00    +0.020 C 
BRANCH   6   8
ATOM      8  C   LIG    1       -3.554   1.976   0.639  0.00  0.00    +0.080 C 
BRANCH   8   9
ATOM      9  C   LIG    1       -3.238   2.229   2.091  0.00  0.00    -0.070 A 
ATOM     10  C   LIG    1       -2.493   3.336   2.454  0.00  0.00    +0.010 A 
ATOM     11  C   LIG    1       -2.204   3.569   3.785  0.00  0.00    +0.030 A 
ATOM     12  C   LIG    1       -2.660   2.696   4.755  0.00  0.00    +0.020 A 
ATOM     13  C   LIG    1       -3.405   1.588   4.393  0.00  0.00    -0.030 A 
ATOM     14 CL   LIG    1       -3.978   0.491   5.610  0.00  0.00    -0.070 Cl
ATOM     15  C   LIG    1       -3.699   1.358   3.060  0.00  0.00    +0.020 A 
ENDBRANCH   8   9
ENDBRANCH   6   8
ENDBRANCH   3   6
ENDBRANCH   1   2
BRANCH   1  16
ATOM     16  C   LIG    1        2.457   1.002  -0.016  0.00  0.00    +0.350 C 
BRANCH  16  23
ATOM     17  C   LIG    1        8.788   4.755   1.383  0.00  0.00    +0.120 C 
ATOM     18  C   LIG    1        7.657   4.090   0.642  0.00  0.00    -0.060 A 
ATOM     19  C   LIG    1        7.644   4.098  -0.740  0.00  0.00    +0.040 A 
ATOM     20  C   LIG    1        6.610   3.490  -1.436  0.00  0.00    +0.100 A 
ATOM     21  C   LIG    1        5.584   2.872  -0.741  0.00  0.00    -0.150 A 
ATOM     22  C   LIG    1        4.361   2.142  -1.137  0.00  0.00    +0.570 C 
ATOM     23  N   LIG    1        3.715   1.751  -0.024  0.00  0.00    -0.580 N 
ATOM     24  C   LIG    1        4.380   2.135   1.081  0.00  0.00    +0.570 C 
ATOM     25  O   LIG    1        4.036   1.918   2.226  0.00  0.00    -0.460 OA
ATOM     26  O   LIG    1        3.999   1.932  -2.277  0.00  0.00    -0.460 OA
ATOM     27  C   LIG    1        5.597   2.865   0.669  0.00  0.00    -0.140 A 
ATOM     28  C   LIG    1        6.637   3.475   1.351  0.00  0.00    +0.090 A 
ENDBRANCH  16  23
ENDBRANCH   1  16
TORSDOF 6
