REMARK  Name = ZINCrH00000No57J.0
REMARK                            x       y       z     vdW  Elec       q    Type
REMARK                         _______ _______ _______ _____ _____    ______ ____
ROOT
ATOM      1  O   LIG    1       -3.454   2.039   0.152  0.00  0.00    -0.510 OA
ATOM      2  C   LIG    1       -2.529   1.259   0.020  0.00  0.00    +0.590 C 
ATOM      3  N   LIG    1       -2.772  -0.062  -0.088  0.00  0.00    -0.610 N 
ATOM      4  C   LIG    1       -1.667  -1.033  -0.106  0.00  0.00    +0.260 C 
ATOM      5  C   LIG    1       -1.961  -2.117   0.944  0.00  0.00    +0.180 C 
ATOM      6  N   LIG    1       -3.292  -2.686   0.694  0.00  0.00    -0.530 NA
ATOM      7  C   LIG    1       -4.343  -1.672   0.851  0.00  0.00    +0.170 C 
ATOM      8  C   LIG    1       -4.147  -0.571  -0.196  0.00  0.00    +0.300 C 
ENDROOT
BRANCH   2   9
ATOM      9  C   LIG    1       -1.147   1.759  -0.022  0.00  0.00    +0.020 A 
ATOM     10  C   LIG    1       -0.720   2.938   0.500  0.00  0.00    +0.070 A 
ATOM     11  C   LIG    1        0.668   3.045   0.244  0.00  0.00    -0.150 A 
ATOM     12  C   LIG    1        1.629   4.024   0.537  0.00  0.00    +0.160 A 
ATOM     13  C   LIG    1        2.936   3.835   0.147  0.00  0.00    -0.040 A 
ATOM     14  C   LIG    1        3.308   2.683  -0.534  0.00  0.00    +0.080 A 
ATOM     15  C   LIG    1        2.378   1.712  -0.830  0.00  0.00    -0.010 A 
ATOM     16  F   LIG    1        1.274   5.147   1.200  0.00  0.00    -0.130 F 
ATOM     17  C   LIG    1        1.050   1.878  -0.446  0.00  0.00    +0.140 A 
ATOM     18  N   LIG    1       -0.075   1.103  -0.597  0.00  0.00    -0.580 N 
ATOM     19  H   LIG    1       -0.111   0.239  -1.037  0.00  0.00    +0.420 HD
ENDBRANCH   2   9
BRANCH   6  20
ATOM     20  C   LIG    1       -3.541  -3.843   1.563  0.00  0.00    +0.210 C 
BRANCH  20  21
ATOM     21  C   LIG    1       -2.332  -4.743   1.562  0.00  0.00    -0.030 C 
ATOM     22  C   LIG    1       -1.753  -5.076   2.706  0.00  0.00    +0.010 C 
BRANCH  22  23
ATOM     23  C   LIG    1       -0.567  -5.959   2.705  0.00  0.00    -0.060 A 
ATOM     24  C   LIG    1       -0.059  -6.447   1.501  0.00  0.00    +0.010 A 
ATOM     25  C   LIG    1        1.053  -7.265   1.506  0.00  0.00    +0.000 A 
ATOM     26  C   LIG    1        1.655  -7.612   2.702  0.00  0.00    +0.000 A 
ATOM     27  C   LIG    1        1.152  -7.136   3.900  0.00  0.00    +0.000 A 
ATOM     28  C   LIG    1        0.045  -6.312   3.908  0.00  0.00    +0.010 A 
ENDBRANCH  22  23
ENDBRANCH  20  21
ENDBRANCH   6  20
TORSDOF 4
