REMARK  Name = ZINCkj00000kIYQ3.0
REMARK                            x       y       z     vdW  Elec       q    Type
REMARK                         _______ _______ _______ _____ _____    ______ ____
ROOT
ATOM      1  C   LIG    1       -0.017   1.362   0.009  0.00  0.00    -0.110 A 
ATOM      2  C   LIG    1        1.169   2.084   0.002  0.00  0.00    +0.060 A 
ATOM      3  C   LIG    1        2.385   1.436  -0.013  0.00  0.00    +0.020 A 
ATOM      4  C   LIG    1        2.428   0.046  -0.021  0.00  0.00    +0.100 A 
ATOM      5  N   LIG    1        3.455  -0.871  -0.036  0.00  0.00    -0.590 N 
ATOM      6  H   LIG    1        4.399  -0.650  -0.043  0.00  0.00    +0.430 HD
ATOM      7  C   LIG    1        2.945  -2.141  -0.038  0.00  0.00    +0.270 A 
ATOM      8  C   LIG    1        1.603  -2.095  -0.025  0.00  0.00    -0.200 A 
ATOM      9  C   LIG    1        1.223  -0.680  -0.013  0.00  0.00    -0.100 A 
ATOM     10  C   LIG    1        0.002  -0.004   0.002  0.00  0.00    +0.070 A 
ENDROOT
BRANCH   1  11
ATOM     11  C   LIG    1       -1.335   2.092   0.020  0.00  0.00    -0.290 C 
BRANCH  11  12
ATOM     12  S   LIG    1       -1.856   2.376   1.734  0.00  0.00    +2.610 S 
ATOM     13  O   LIG    1       -0.995   3.311   2.369  0.00  0.00    -0.950 OA
ATOM     14  O   LIG    1       -2.193   1.146   2.362  0.00  0.00    -0.950 OA
BRANCH  12  16
ATOM     15  C   LIG    1       -4.457   2.503   1.004  0.00  0.00    +0.300 C 
ATOM     16  N   LIG    1       -3.300   3.175   1.600  0.00  0.00    -1.120 NA
ATOM     17  H   LIG    1       -3.380   4.088   1.917  0.00  0.00    +0.420 HD
ENDBRANCH  12  16
ENDBRANCH  11  12
ENDBRANCH   1  11
BRANCH   8  18
ATOM     18  C   LIG    1        0.666  -3.275  -0.021  0.00  0.00    +0.120 C 
BRANCH  18  19
ATOM     19  C   LIG    1        0.236  -3.589  -1.456  0.00  0.00    +0.250 C 
BRANCH  19  20
ATOM     20  N   LIG    1       -0.677  -4.739  -1.453  0.00  0.00    -0.390 N 
ATOM     21  C   LIG    1       -0.995  -5.116  -2.837  0.00  0.00    +0.310 C 
ATOM     22  C   LIG    1       -1.914  -4.381  -0.746  0.00  0.00    +0.320 C 
ATOM     23  H   LIG    1       -0.236  -5.518  -0.986  0.00  0.00    +0.430 HD
ENDBRANCH  19  20
ENDBRANCH  18  19
ENDBRANCH   8  18
TORSDOF 6
