REMARK  Name = ZINCtV00000tRQCE.0
REMARK                            x       y       z     vdW  Elec       q    Type
REMARK                         _______ _______ _______ _____ _____    ______ ____
ROOT
ATOM      1  C   LIG    1       -1.170  -0.699   0.119  0.00  0.00    +0.360 A 
ATOM      2  N   LIG    1       -1.227  -2.008   0.114  0.00  0.00    -0.530 NA
ATOM      3  C   LIG    1       -0.111  -2.765   0.002  0.00  0.00    +0.160 A 
ATOM      4  C   LIG    1       -0.172  -4.162   0.003  0.00  0.00    +0.030 A 
ATOM      5  C   LIG    1        0.987  -4.895  -0.114  0.00  0.00    +0.070 A 
ATOM      6  C   LIG    1        2.219  -4.265  -0.231  0.00  0.00    +0.000 A 
ATOM      7  C   LIG    1        2.306  -2.890  -0.234  0.00  0.00    +0.100 A 
ATOM      8  C   LIG    1        1.145  -2.127  -0.117  0.00  0.00    -0.200 A 
ATOM      9  C   LIG    1        1.180  -0.659  -0.115  0.00  0.00    +0.560 A 
ATOM     10  O   LIG    1        2.232  -0.053  -0.215  0.00  0.00    -0.490 OA
ATOM     11  N   LIG    1        0.002  -0.004   0.002  0.00  0.00    -0.490 N 
ENDROOT
BRANCH  11  12
ATOM     12  C   LIG    1       -0.017   1.397   0.010  0.00  0.00    +0.090 A 
ATOM     13  C   LIG    1        0.091   2.087   1.210  0.00  0.00    +0.070 A 
ATOM     14  C   LIG    1        0.077   3.468   1.214  0.00  0.00    +0.050 A 
ATOM     15  C   LIG    1       -0.055   4.164   0.025  0.00  0.00    -0.010 A 
ATOM     16  C   LIG    1       -0.168   3.478  -1.172  0.00  0.00    +0.050 A 
ATOM     17 CL   LIG    1       -0.079   5.900   0.035  0.00  0.00    -0.050 Cl
ATOM     18  C   LIG    1       -0.149   2.097  -1.182  0.00  0.00    +0.070 A 
ENDBRANCH  11  12
BRANCH   1  19
ATOM     19  S   LIG    1       -2.673   0.207   0.275  0.00  0.00    +0.070 S 
BRANCH  19  20
ATOM     20  C   LIG    1       -3.854  -1.159   0.390  0.00  0.00    +0.110 C 
BRANCH  20  22
ATOM     21  O   LIG    1       -5.427   0.593   0.557  0.00  0.00    -0.420 OA
ATOM     22  C   LIG    1       -5.248  -0.607   0.534  0.00  0.00    +0.430 C 
BRANCH  22  23
ATOM     23  C   LIG    1       -6.387  -1.517   0.646  0.00  0.00    -0.170 A 
ATOM     24  C   LIG    1       -7.680  -1.096   0.785  0.00  0.00    -0.120 A 
ATOM     25  S   LIG    1       -8.741  -2.426   0.882  0.00  0.00    +0.300 S 
ATOM     26  C   LIG    1       -7.428  -3.583   0.745  0.00  0.00    -0.170 A 
ATOM     27 CL   LIG    1       -7.628  -5.307   0.757  0.00  0.00    +0.010 Cl
ATOM     28 CL   LIG    1       -8.174   0.567   0.851  0.00  0.00    +0.040 Cl
ATOM     29  C   LIG    1       -6.263  -2.959   0.628  0.00  0.00    +0.090 A 
ENDBRANCH  22  23
ENDBRANCH  20  22
ENDBRANCH  19  20
ENDBRANCH   1  19
TORSDOF 5
