REMARK  Name = ZINCpk00000FaPsZ.0
REMARK                            x       y       z     vdW  Elec       q    Type
REMARK                         _______ _______ _______ _____ _____    ______ ____
ROOT
ATOM      1  C   LIG    1        2.160   0.667   0.510  0.00  0.00    +0.160 C 
ATOM      2  C   LIG    1        1.283  -0.513   0.031  0.00  0.00    +0.080 C 
ATOM      3  C   LIG    1       -0.105   0.079  -0.081  0.00  0.00    +0.530 C 
ATOM      4  N   LIG    1       -0.036   1.421  -0.087  0.00  0.00    -0.580 N 
ATOM      5  O   LIG    1       -1.130  -0.565  -0.156  0.00  0.00    -0.520 OA
ATOM      6  C   LIG    1        1.353   1.884   0.007  0.00  0.00    +0.300 C 
ENDROOT
BRANCH   6   7
ATOM      7  C   LIG    1        1.458   3.022   0.990  0.00  0.00    +0.060 A 
ATOM      8  C   LIG    1        0.700   3.192   2.098  0.00  0.00    -0.100 A 
ATOM      9  C   LIG    1        1.119   4.366   2.730  0.00  0.00    +0.240 A 
ATOM     10  N   LIG    1        2.089   4.888   2.023  0.00  0.00    -0.280 NA
ATOM     11  N   LIG    1        2.321   4.057   0.919  0.00  0.00    -0.370 N 
ATOM     12  C   LIG    1        3.323   4.274  -0.127  0.00  0.00    +0.340 C 
ENDBRANCH   6   7
BRANCH   4  13
ATOM     13  C   LIG    1       -1.199   2.308  -0.182  0.00  0.00    +0.210 C 
ATOM     14  C   LIG    1       -2.585   1.669  -0.073  0.00  0.00    +0.050 C 
ATOM     15  C   LIG    1       -2.083   2.183  -1.424  0.00  0.00    +0.010 C 
ENDBRANCH   4  13
BRANCH   1  16
ATOM     16  N   LIG    1        3.489   0.622  -0.115  0.00  0.00    -0.660 NA
ATOM     17  H   LIG    1        3.867   1.551  -0.228  0.00  0.00    +0.340 HD
BRANCH  16  18
ATOM     18  C   LIG    1        4.405  -0.229   0.655  0.00  0.00    +0.270 C 
BRANCH  18  23
ATOM     19  C   LIG    1        7.980   0.595  -0.224  0.00  0.00    +0.170 A 
ATOM     20  C   LIG    1        8.180  -0.321  -1.253  0.00  0.00    -0.120 A 
ATOM     21  C   LIG    1        7.146  -1.162  -1.613  0.00  0.00    +0.300 A 
ATOM     22  N   LIG    1        5.982  -1.105  -0.995  0.00  0.00    -0.490 NA
ATOM     23  C   LIG    1        5.755  -0.250  -0.015  0.00  0.00    +0.160 A 
ATOM     24  C   LIG    1        6.735   0.628   0.399  0.00  0.00    -0.060 A 
BRANCH  19  26
ATOM     25  C   LIG    1       10.215   1.338  -0.540  0.00  0.00    +0.250 C 
ATOM     26  O   LIG    1        8.973   1.438   0.159  0.00  0.00    -0.310 OA
ENDBRANCH  19  26
ENDBRANCH  18  23
ENDBRANCH  16  18
ENDBRANCH   1  16
TORSDOF 6
