REMARK  Name = ZINCfA000000yxNR.0
REMARK                            x       y       z     vdW  Elec       q    Type
REMARK                         _______ _______ _______ _____ _____    ______ ____
ROOT
ATOM      1  N   LIG    1       -0.700   1.560   1.217  0.00  0.00    -0.510 N 
ATOM      2  H   LIG    1       -1.647   1.210   1.224  0.00  0.00    +0.430 HD
ATOM      3  H   LIG    1       -0.714   2.568   1.222  0.00  0.00    +0.430 HD
ENDROOT
BRANCH   1   4
ATOM      4  C   LIG    1        0.010   1.073   2.407  0.00  0.00    +0.250 C 
BRANCH   4   5
ATOM      5  C   LIG    1       -0.706   1.566   3.666  0.00  0.00    +0.100 C 
BRANCH   5   9
ATOM      6  C   LIG    1        1.359   0.152   7.127  0.00  0.00    +0.030 A 
ATOM      7  C   LIG    1        1.703   1.367   6.565  0.00  0.00    +0.020 A 
ATOM      8  C   LIG    1        1.035   1.825   5.445  0.00  0.00    +0.010 A 
ATOM      9  C   LIG    1        0.023   1.067   4.886  0.00  0.00    -0.110 A 
ATOM     10  C   LIG    1       -0.324  -0.146   5.451  0.00  0.00    +0.010 A 
ATOM     11  C   LIG    1        0.347  -0.606   6.568  0.00  0.00    +0.020 A 
ENDBRANCH   5   9
ENDBRANCH   4   5
ENDBRANCH   1   4
BRANCH   1  12
ATOM     12  C   LIG    1       -0.013   1.086   0.008  0.00  0.00    +0.370 C 
BRANCH  12  13
ATOM     13  C   LIG    1       -0.742   1.585  -1.213  0.00  0.00    -0.300 A 
ATOM     14  C   LIG    1       -0.496   2.738  -1.837  0.00  0.00    +0.080 A 
ATOM     15  C   LIG    1       -1.295   2.986  -2.940  0.00  0.00    +0.010 A 
ATOM     16  C   LIG    1       -2.188   2.033  -3.212  0.00  0.00    +0.020 A 
ATOM     17  S   LIG    1       -2.041   0.733  -2.037  0.00  0.00    +0.150 S 
ENDBRANCH  12  13
ENDBRANCH   1  12
TORSDOF 5
