REMARK  Name = ZINCqH0000033GoR.0
REMARK                            x       y       z     vdW  Elec       q    Type
REMARK                         _______ _______ _______ _____ _____    ______ ____
ROOT
ATOM      1  N   LIG    1        0.913   5.381  -0.958  0.00  0.00    -0.660 NA
ATOM      2  H   LIG    1        1.114   6.330  -0.679  0.00  0.00    +0.350 HD
ENDROOT
BRANCH   1   3
ATOM      3  C   LIG    1        1.421   5.111  -2.309  0.00  0.00    +0.230 C 
BRANCH   3   6
ATOM      4  C   LIG    1       -0.882   6.763  -4.806  0.00  0.00    +0.100 A 
ATOM      5  C   LIG    1       -0.347   5.840  -3.923  0.00  0.00    +0.000 A 
ATOM      6  C   LIG    1        0.843   6.113  -3.274  0.00  0.00    -0.080 A 
ATOM      7  C   LIG    1        1.506   7.302  -3.512  0.00  0.00    +0.010 A 
ATOM      8  C   LIG    1        0.980   8.226  -4.397  0.00  0.00    -0.040 A 
ATOM      9  C   LIG    1       -0.214   7.960  -5.046  0.00  0.00    +0.100 A 
BRANCH   9  10
ATOM     10  O   LIG    1       -0.734   8.867  -5.916  0.00  0.00    -0.310 OA
ATOM     11  C   LIG    1        0.006  10.074  -6.114  0.00  0.00    +0.230 C 
ENDBRANCH   9  10
BRANCH   4  12
ATOM     12  O   LIG    1       -2.056   6.497  -5.441  0.00  0.00    -0.310 OA
BRANCH  12  14
ATOM     13  C   LIG    1       -3.983   5.130  -5.947  0.00  0.00    +0.070 C 
ATOM     14  C   LIG    1       -2.685   5.249  -5.145  0.00  0.00    +0.170 C 
ENDBRANCH  12  14
ENDBRANCH   4  12
ENDBRANCH   3   6
ENDBRANCH   1   3
BRANCH   1  15
ATOM     15  C   LIG    1        1.456   4.421   0.012  0.00  0.00    +0.280 C 
BRANCH  15  16
ATOM     16  C   LIG    1        0.610   3.174   0.013  0.00  0.00    +0.220 A 
ATOM     17  N   LIG    1       -0.695   3.141   0.025  0.00  0.00    -0.450 NA
ATOM     18  C   LIG    1       -1.105   1.864   0.017  0.00  0.00    +0.140 A 
ATOM     19  C   LIG    1       -0.013   1.076   0.008  0.00  0.00    +0.110 A 
ATOM     20  N   LIG    1        1.075   1.907   0.002  0.00  0.00    -0.460 N 
ATOM     21  C   LIG    1        2.482   1.497  -0.013  0.00  0.00    +0.320 C 
ENDBRANCH  15  16
BRANCH  15  22
ATOM     22  C   LIG    1        1.447   5.036   1.387  0.00  0.00    -0.100 A 
ATOM     23  C   LIG    1        0.376   5.812   1.790  0.00  0.00    +0.060 A 
ATOM     24  C   LIG    1        0.365   6.373   3.054  0.00  0.00    +0.000 A 
ATOM     25  C   LIG    1        1.429   6.165   3.911  0.00  0.00    +0.010 A 
ATOM     26  C   LIG    1        2.503   5.393   3.506  0.00  0.00    +0.000 A 
ATOM     27  C   LIG    1        2.512   4.829   2.244  0.00  0.00    +0.010 A 
ENDBRANCH  15  22
ENDBRANCH   1  15
TORSDOF 8
