REMARK  Name = ZINCpk00000y6ygi.0
REMARK                            x       y       z     vdW  Elec       q    Type
REMARK                         _______ _______ _______ _____ _____    ______ ____
ROOT
ATOM      1  C   LIG    1       -3.758  -0.790   0.233  0.00  0.00    +0.160 C 
ATOM      2  C   LIG    1       -4.571   0.499   0.478  0.00  0.00    +0.080 C 
ATOM      3  C   LIG    1       -3.479   1.534   0.855  0.00  0.00    +0.050 C 
ATOM      4  C   LIG    1       -2.302   1.087  -0.047  0.00  0.00    +0.260 C 
ATOM      5  N   LIG    1       -2.376  -0.385  -0.063  0.00  0.00    -0.610 N 
ATOM      6  C   LIG    1       -1.349  -1.221  -0.313  0.00  0.00    +0.570 C 
ATOM      7  O   LIG    1       -1.548  -2.416  -0.412  0.00  0.00    -0.460 OA
ENDROOT
BRANCH   6   8
ATOM      8  C   LIG    1        0.017  -0.685  -0.466  0.00  0.00    -0.210 A 
ATOM      9  C   LIG    1        0.225   0.675  -0.717  0.00  0.00    +0.130 A 
ATOM     10  C   LIG    1        1.526   1.127  -0.853  0.00  0.00    -0.070 A 
ATOM     11  C   LIG    1        2.573   0.231  -0.738  0.00  0.00    +0.340 A 
ATOM     12  N   LIG    1        2.354  -1.048  -0.501  0.00  0.00    -0.540 NA
ATOM     13  C   LIG    1        1.131  -1.532  -0.363  0.00  0.00    +0.380 A 
BRANCH  13  14
ATOM     14  O   LIG    1        0.954  -2.852  -0.121  0.00  0.00    -0.270 OA
BRANCH  14  15
ATOM     15  C   LIG    1        2.130  -3.659  -0.028  0.00  0.00    +0.210 C 
BRANCH  15  16
ATOM     16  C   LIG    1        1.732  -5.111   0.247  0.00  0.00    -0.010 C 
ATOM     17  C   LIG    1        1.066  -5.205   1.621  0.00  0.00    +0.020 C 
ATOM     18  C   LIG    1        2.980  -5.995   0.223  0.00  0.00    +0.040 C 
ENDBRANCH  15  16
ENDBRANCH  14  15
ENDBRANCH  13  14
ENDBRANCH   6   8
BRANCH   1  22
ATOM     19  C   LIG    1       -2.666  -3.028   3.139  0.00  0.00    +0.280 C 
ATOM     20  N   LIG    1       -2.660  -2.263   1.890  0.00  0.00    -0.720 N 
ATOM     21  H   LIG    1       -1.847  -2.195   1.366  0.00  0.00    +0.410 HD
ATOM     22  C   LIG    1       -3.786  -1.653   1.468  0.00  0.00    +0.530 C 
ATOM     23  O   LIG    1       -4.821  -1.798   2.083  0.00  0.00    -0.550 OA
ENDBRANCH   1  22
BRANCH   1  24
ATOM     24  C   LIG    1       -4.341  -1.558  -0.955  0.00  0.00    +0.190 C 
BRANCH  24  25
ATOM     25  O   LIG    1       -3.571  -2.741  -1.181  0.00  0.00    -0.350 OA
ATOM     26  C   LIG    1       -4.034  -3.535  -2.275  0.00  0.00    +0.200 C 
ENDBRANCH  24  25
ENDBRANCH   1  24
TORSDOF 7
