REMARK  Name = ZINCrH000004tJJc.0
REMARK                            x       y       z     vdW  Elec       q    Type
REMARK                         _______ _______ _______ _____ _____    ______ ____
ROOT
ATOM      1  O   LIG    1        5.899   4.757  -0.057  0.00  0.00    -0.530 OA
ATOM      2  C   LIG    1        5.585   4.211  -1.093  0.00  0.00    +0.520 C 
ATOM      3  N   LIG    1        5.973   4.733  -2.274  0.00  0.00    -0.620 N 
ATOM      4  C   LIG    1        5.605   4.079  -3.538  0.00  0.00    +0.270 C 
ATOM      5  C   LIG    1        4.878   5.105  -4.422  0.00  0.00    +0.260 C 
ATOM      6  N   LIG    1        5.681   6.335  -4.469  0.00  0.00    -0.620 N 
ATOM      7  C   LIG    1        6.053   6.986  -3.205  0.00  0.00    +0.310 C 
ATOM      8  C   LIG    1        6.069   6.856  -5.650  0.00  0.00    +0.710 C 
ATOM      9  N   LIG    1        5.808   6.197  -6.796  0.00  0.00    -0.690 N 
ATOM     10  H   LIG    1        5.245   5.407  -6.784  0.00  0.00    +0.410 HD
ATOM     11  O   LIG    1        6.656   7.921  -5.681  0.00  0.00    -0.560 OA
ATOM     12  C   LIG    1        6.776   5.963  -2.321  0.00  0.00    +0.280 C 
ENDROOT
BRANCH   9  13
ATOM     13  C   LIG    1        6.349   6.653  -8.005  0.00  0.00    +0.150 A 
ATOM     14  C   LIG    1        7.590   7.275  -8.021  0.00  0.00    +0.050 A 
ATOM     15  C   LIG    1        8.123   7.720  -9.215  0.00  0.00    +0.010 A 
ATOM     16  C   LIG    1        7.417   7.555 -10.394  0.00  0.00    +0.080 A 
ATOM     17  C   LIG    1        6.176   6.939 -10.380  0.00  0.00    +0.010 A 
ATOM     18  F   LIG    1        7.938   7.995 -11.560  0.00  0.00    -0.140 F 
ATOM     19  C   LIG    1        5.642   6.488  -9.188  0.00  0.00    +0.020 A 
ENDBRANCH   9  13
BRANCH   2  20
ATOM     20  C   LIG    1        4.762   2.949  -1.061  0.00  0.00    +0.060 C 
BRANCH  20  21
ATOM     21  C   LIG    1        4.460   2.575   0.391  0.00  0.00    +0.110 C 
BRANCH  21  22
ATOM     22  C   LIG    1        3.636   1.313   0.424  0.00  0.00    -0.080 A 
ATOM     23  C   LIG    1        4.242   0.099   0.686  0.00  0.00    +0.030 A 
ATOM     24  C   LIG    1        3.487  -1.059   0.716  0.00  0.00    +0.020 A 
ATOM     25  C   LIG    1        2.126  -1.003   0.483  0.00  0.00    +0.020 A 
ATOM     26  C   LIG    1        1.518   0.211   0.221  0.00  0.00    +0.020 A 
ATOM     27  C   LIG    1        2.273   1.370   0.191  0.00  0.00    -0.030 A 
ATOM     28 CL   LIG    1        1.512   2.894  -0.139  0.00  0.00    -0.070 Cl
ENDBRANCH  21  22
ENDBRANCH  20  21
ENDBRANCH   2  20
TORSDOF 4
