REMARK  Name = ZINCpe000000U5EW.0
REMARK                            x       y       z     vdW  Elec       q    Type
REMARK                         _______ _______ _______ _____ _____    ______ ____
ROOT
ATOM      1  C   LIG    1        3.506   3.717   0.036  0.00  0.00    -0.080 A 
ATOM      2  C   LIG    1        2.266   4.324   0.118  0.00  0.00    +0.040 A 
ATOM      3  C   LIG    1        1.118   3.559   0.110  0.00  0.00    +0.080 A 
ATOM      4  C   LIG    1        1.210   2.170   0.018  0.00  0.00    -0.130 A 
ATOM      5  C   LIG    1        2.465   1.563  -0.059  0.00  0.00    +0.040 A 
ATOM      6  C   LIG    1        3.604   2.340  -0.056  0.00  0.00    +0.040 A 
ENDROOT
BRANCH   4   7
ATOM      7  C   LIG    1       -0.016   1.344   0.009  0.00  0.00    +0.570 C 
ATOM      8  N   LIG    1       -0.047   0.191  -0.688  0.00  0.00    -0.620 N 
ATOM      9  C   LIG    1       -1.204  -0.717  -0.617  0.00  0.00    +0.310 C 
ATOM     10  C   LIG    1       -1.806  -0.835  -2.019  0.00  0.00    +0.260 C 
ATOM     11  N   LIG    1       -0.764  -1.064  -3.010  0.00  0.00    -0.720 N 
ATOM     12  H   LIG    1       -1.024  -1.469  -3.852  0.00  0.00    +0.400 HD
ATOM     13  C   LIG    1        0.523  -0.756  -2.842  0.00  0.00    +0.510 C 
ATOM     14  O   LIG    1        1.284  -0.922  -3.771  0.00  0.00    -0.540 OA
ATOM     15  C   LIG    1        1.071  -0.208  -1.556  0.00  0.00    +0.330 C 
ATOM     16  O   LIG    1       -0.998   1.706   0.627  0.00  0.00    -0.520 OA
ENDBRANCH   4   7
BRANCH   1  17
ATOM     17  C   LIG    1        4.756   4.559   0.046  0.00  0.00    +0.340 C 
BRANCH  17  21
ATOM     18  N   LIG    1        6.734   5.639   2.952  0.00  0.00    -0.720 N 
ATOM     19  H   LIG    1        6.237   5.239   3.683  0.00  0.00    +0.400 HD
ATOM     20  C   LIG    1        6.317   5.468   1.682  0.00  0.00    +0.710 C 
ATOM     21  N   LIG    1        5.209   4.744   1.427  0.00  0.00    -0.740 N 
ATOM     22  H   LIG    1        4.712   4.345   2.158  0.00  0.00    +0.400 HD
ATOM     23  O   LIG    1        6.940   5.969   0.765  0.00  0.00    -0.590 OA
BRANCH  18  26
ATOM     24  C   LIG    1        8.054   7.078   4.608  0.00  0.00    -0.050 C 
ATOM     25  C   LIG    1        8.925   5.870   4.256  0.00  0.00    +0.010 C 
ATOM     26  C   LIG    1        7.938   6.426   3.228  0.00  0.00    +0.240 C 
BRANCH  24  28
ATOM     27  C   LIG    1        8.645   8.978   6.119  0.00  0.00    +0.020 C 
ATOM     28  C   LIG    1        8.739   8.444   4.688  0.00  0.00    +0.050 C 
ENDBRANCH  24  28
ENDBRANCH  18  26
ENDBRANCH  17  21
ENDBRANCH   1  17
TORSDOF 5
