REMARK  Name = ZINCvU00000003Pe.0
REMARK                            x       y       z     vdW  Elec       q    Type
REMARK                         _______ _______ _______ _____ _____    ______ ____
ROOT
ATOM      1  N   LIG    1        4.069   2.603  -1.481  0.00  0.00    -0.600 N 
ATOM      2  C   LIG    1        4.915   1.654  -1.930  0.00  0.00    +0.540 C 
ATOM      3  O   LIG    1        5.409   1.754  -3.037  0.00  0.00    -0.510 OA
ENDROOT
BRANCH   2   4
ATOM      4  C   LIG    1        5.239   0.497  -1.081  0.00  0.00    -0.100 C 
ATOM      5  C   LIG    1        6.144  -0.390  -1.484  0.00  0.00    +0.130 C 
ENDBRANCH   2   4
BRANCH   1   6
ATOM      6  C   LIG    1        3.522   2.515  -0.125  0.00  0.00    +0.340 C 
BRANCH   6  12
ATOM      7  C   LIG    1        1.061   2.299  -0.553  0.00  0.00    +0.140 A 
ATOM      8  C   LIG    1       -0.109   1.554  -0.574  0.00  0.00    -0.080 A 
ATOM      9  C   LIG    1       -0.089   0.227  -0.190  0.00  0.00    +0.060 A 
ATOM     10  C   LIG    1        1.097  -0.359   0.213  0.00  0.00    -0.020 A 
ATOM     11  C   LIG    1        2.264   0.381   0.235  0.00  0.00    +0.060 A 
ATOM     12  C   LIG    1        2.249   1.709  -0.148  0.00  0.00    -0.140 A 
BRANCH   7  13
ATOM     13  O   LIG    1        1.043   3.604  -0.930  0.00  0.00    -0.310 OA
BRANCH  13  14
ATOM     14  C   LIG    1       -0.189   4.115  -1.442  0.00  0.00    +0.350 C 
BRANCH  14  16
ATOM     15  C   LIG    1        0.165   6.602  -2.275  0.00  0.00    +0.070 C 
ATOM     16  C   LIG    1        0.008   5.499  -1.906  0.00  0.00    -0.210 C 
ENDBRANCH  14  16
ENDBRANCH  13  14
ENDBRANCH   7  13
ENDBRANCH   6  12
ENDBRANCH   1   6
BRANCH   1  17
ATOM     17  C   LIG    1        3.696   3.722  -2.350  0.00  0.00    +0.340 C 
BRANCH  17  18
ATOM     18  C   LIG    1        4.671   4.855  -2.155  0.00  0.00    -0.110 A 
ATOM     19  C   LIG    1        4.334   5.926  -1.350  0.00  0.00    +0.040 A 
ATOM     20  C   LIG    1        5.228   6.966  -1.170  0.00  0.00    +0.010 A 
ATOM     21  C   LIG    1        6.460   6.937  -1.796  0.00  0.00    +0.030 A 
ATOM     22  C   LIG    1        6.802   5.869  -2.603  0.00  0.00    +0.000 A 
ATOM     23  C   LIG    1        5.909   4.821  -2.780  0.00  0.00    +0.100 A 
BRANCH  23  24
ATOM     24  O   LIG    1        6.245   3.767  -3.568  0.00  0.00    -0.220 OA
BRANCH  24  25
ATOM     25  C   LIG    1        5.890   3.812  -4.879  0.00  0.00    +0.180 A 
ATOM     26  C   LIG    1        5.290   4.950  -5.397  0.00  0.00    -0.090 A 
ATOM     27  C   LIG    1        4.934   4.997  -6.732  0.00  0.00    +0.070 A 
ATOM     28  C   LIG    1        5.164   3.906  -7.549  0.00  0.00    -0.060 A 
ATOM     29  C   LIG    1        5.758   2.766  -7.033  0.00  0.00    +0.130 A 
ATOM     30  F   LIG    1        5.983   1.701  -7.834  0.00  0.00    -0.140 F 
ATOM     31  C   LIG    1        6.121   2.717  -5.699  0.00  0.00    -0.020 A 
ENDBRANCH  24  25
ENDBRANCH  23  24
ENDBRANCH  17  18
ENDBRANCH   1  17
TORSDOF 10
