REMARK  Name = ZINCrD0000075Ic8.0
REMARK                            x       y       z     vdW  Elec       q    Type
REMARK                         _______ _______ _______ _____ _____    ______ ____
ROOT
ATOM      1  O   LIG    1       -2.572   1.670   5.920  0.00  0.00    -0.580 OA
ATOM      2  C   LIG    1       -1.392   1.384   5.989  0.00  0.00    +0.710 C 
ATOM      3  N   LIG    1       -0.861   0.997   7.165  0.00  0.00    -0.730 N 
ATOM      4  H   LIG    1        0.080   0.768   7.221  0.00  0.00    +0.400 HD
ATOM      5  N   LIG    1       -0.616   1.454   4.889  0.00  0.00    -0.730 N 
ATOM      6  H   LIG    1        0.325   1.226   4.945  0.00  0.00    +0.410 HD
ENDROOT
BRANCH   3   7
ATOM      7  C   LIG    1       -1.704   0.920   8.361  0.00  0.00    +0.310 C 
ATOM      8  C   LIG    1       -0.845   1.079   9.633  0.00  0.00    +0.050 C 
ATOM      9  C   LIG    1       -1.561   0.147  10.634  0.00  0.00    +0.090 C 
ATOM     10  C   LIG    1       -2.249  -0.897   9.781  0.00  0.00    -0.090 A 
ATOM     11  C   LIG    1       -2.762  -2.137  10.121  0.00  0.00    +0.010 A 
ATOM     12  C   LIG    1       -3.355  -2.932   9.159  0.00  0.00    +0.010 A 
ATOM     13  C   LIG    1       -3.437  -2.487   7.852  0.00  0.00    +0.000 A 
ATOM     14  C   LIG    1       -2.926  -1.250   7.512  0.00  0.00    +0.040 A 
ATOM     15  C   LIG    1       -2.331  -0.453   8.475  0.00  0.00    -0.110 A 
ENDBRANCH   3   7
BRANCH   5  16
ATOM     16  C   LIG    1       -1.194   1.875   3.611  0.00  0.00    +0.320 C 
BRANCH  16  17
ATOM     17  C   LIG    1       -0.374   1.312   2.479  0.00  0.00    +0.530 C 
ATOM     18  N   LIG    1       -0.721   1.570   1.202  0.00  0.00    -0.610 N 
ATOM     19  C   LIG    1       -0.013   1.086   0.008  0.00  0.00    +0.250 C 
ATOM     20  C   LIG    1       -0.779   1.607  -1.226  0.00  0.00    +0.040 C 
ATOM     21  C   LIG    1       -2.199   1.882  -0.662  0.00  0.00    +0.030 C 
ATOM     22  C   LIG    1       -1.874   2.383   0.767  0.00  0.00    +0.250 C 
ATOM     23  O   LIG    1        0.597   0.626   2.717  0.00  0.00    -0.530 OA
ENDBRANCH  16  17
BRANCH  16  24
ATOM     24  C   LIG    1       -1.194   3.380   3.531  0.00  0.00    -0.100 A 
ATOM     25  C   LIG    1       -0.114   4.097   4.009  0.00  0.00    +0.020 A 
ATOM     26  C   LIG    1       -0.111   5.478   3.932  0.00  0.00    +0.000 A 
ATOM     27  C   LIG    1       -1.193   6.141   3.384  0.00  0.00    +0.010 A 
ATOM     28  C   LIG    1       -2.276   5.424   2.910  0.00  0.00    +0.010 A 
ATOM     29  C   LIG    1       -2.276   4.043   2.984  0.00  0.00    +0.030 A 
ENDBRANCH  16  24
ENDBRANCH   5  16
TORSDOF 4
