REMARK  Name = ZINCvU0000000Jmh.0
REMARK                            x       y       z     vdW  Elec       q    Type
REMARK                         _______ _______ _______ _____ _____    ______ ____
ROOT
ATOM      1  C   LIG    1        4.752   2.484  -0.028  0.00  0.00    +0.290 C 
ENDROOT
BRANCH   1   2
ATOM      2  C   LIG    1        3.245   2.491  -0.015  0.00  0.00    +0.270 A 
ATOM      3  N   LIG    1        2.495   1.428  -0.013  0.00  0.00    -0.460 NA
ATOM      4  C   LIG    1        1.187   1.792   0.000  0.00  0.00    +0.040 A 
ATOM      5  C   LIG    1       -0.013   1.076   0.008  0.00  0.00    +0.070 A 
ATOM      6  C   LIG    1       -1.204   1.744   0.017  0.00  0.00    +0.000 A 
ATOM      7  C   LIG    1       -1.238   3.131   0.030  0.00  0.00    +0.030 A 
ATOM      8  C   LIG    1       -0.067   3.858   0.022  0.00  0.00    +0.010 A 
ATOM      9  C   LIG    1        1.153   3.197   0.008  0.00  0.00    +0.050 A 
ATOM     10  N   LIG    1        2.471   3.609  -0.002  0.00  0.00    -0.490 N 
ATOM     11  C   LIG    1        2.947   4.995   0.001  0.00  0.00    +0.320 C 
ENDBRANCH   1   2
BRANCH   1  12
ATOM     12  C   LIG    1        5.265   2.107   1.338  0.00  0.00    -0.090 A 
ATOM     13  C   LIG    1        5.291   0.780   1.724  0.00  0.00    +0.080 A 
ATOM     14  C   LIG    1        5.765   0.433   2.976  0.00  0.00    -0.010 A 
ATOM     15  C   LIG    1        6.205   1.415   3.844  0.00  0.00    +0.010 A 
ATOM     16  C   LIG    1        6.173   2.742   3.460  0.00  0.00    -0.010 A 
ATOM     17  C   LIG    1        5.703   3.088   2.207  0.00  0.00    +0.010 A 
ENDBRANCH   1  12
BRANCH   1  18
ATOM     18  N   LIG    1        5.229   1.508  -1.016  0.00  0.00    -0.660 NA
ATOM     19  H   LIG    1        4.581   1.427  -1.786  0.00  0.00    +0.350 HD
BRANCH  18  20
ATOM     20  C   LIG    1        6.573   1.856  -1.494  0.00  0.00    +0.230 C 
BRANCH  20  28
ATOM     21  C   LIG    1        5.318   0.977  -7.872  0.00  0.00    +0.130 C 
ATOM     22  C   LIG    1        5.767   0.951  -6.434  0.00  0.00    +0.150 A 
ATOM     23  N   LIG    1        6.585   0.006  -6.038  0.00  0.00    -0.460 NA
ATOM     24  C   LIG    1        7.011  -0.059  -4.773  0.00  0.00    +0.110 A 
ATOM     25  C   LIG    1        7.891  -1.078  -4.353  0.00  0.00    +0.140 A 
ATOM     26  C   LIG    1        8.308  -1.116  -3.053  0.00  0.00    +0.010 A 
ATOM     27  C   LIG    1        7.882  -0.160  -2.135  0.00  0.00    +0.050 A 
ATOM     28  C   LIG    1        7.028   0.834  -2.505  0.00  0.00    -0.070 A 
ATOM     29  C   LIG    1        6.577   0.907  -3.832  0.00  0.00    -0.080 A 
ATOM     30  C   LIG    1        5.698   1.923  -4.253  0.00  0.00    +0.060 A 
ATOM     31  C   LIG    1        5.302   1.931  -5.560  0.00  0.00    -0.020 A 
BRANCH  25  32
ATOM     32  O   LIG    1        8.322  -2.016  -5.236  0.00  0.00    -0.480 OA
ATOM     33  H   LIG    1        9.136  -1.776  -5.698  0.00  0.00    +0.390 HD
ENDBRANCH  25  32
ENDBRANCH  20  28
ENDBRANCH  18  20
ENDBRANCH   1  18
TORSDOF 6
