REMARK  Name = ZINCqH00000054Nh.1
REMARK                            x       y       z     vdW  Elec       q    Type
REMARK                         _______ _______ _______ _____ _____    ______ ____
ROOT
ATOM      1  N   LIG    1        3.943   0.860   1.865  0.00  0.00    -0.730 N 
ATOM      2  H   LIG    1        4.566   0.525   1.201  0.00  0.00    +0.400 HD
ATOM      3  C   LIG    1        4.247   0.780   3.175  0.00  0.00    +0.700 C 
ATOM      4  N   LIG    1        5.416   0.234   3.563  0.00  0.00    -0.740 N 
ATOM      5  H   LIG    1        6.039  -0.101   2.900  0.00  0.00    +0.400 HD
ATOM      6  O   LIG    1        3.466   1.200   4.007  0.00  0.00    -0.590 OA
ENDROOT
BRANCH   1   7
ATOM      7  C   LIG    1        2.671   1.453   1.443  0.00  0.00    +0.310 C 
BRANCH   7   8
ATOM      8  C   LIG    1        2.556   1.381  -0.081  0.00  0.00    +0.220 C 
BRANCH   8   9
ATOM      9  C   LIG    1        3.609   2.257  -0.708  0.00  0.00    -0.180 A 
ATOM     10  C   LIG    1        3.403   3.485  -1.187  0.00  0.00    +0.010 A 
ATOM     11  C   LIG    1        4.523   4.098  -1.722  0.00  0.00    +0.010 A 
ATOM     12  C   LIG    1        5.641   3.373  -1.667  0.00  0.00    -0.060 A 
ATOM     13  S   LIG    1        5.300   1.818  -0.918  0.00  0.00    +0.130 S 
ENDBRANCH   8   9
BRANCH   8  15
ATOM     14  C   LIG    1        1.815  -0.912   0.164  0.00  0.00    +0.190 C 
ATOM     15  N   LIG    1        2.749  -0.008  -0.521  0.00  0.00    -0.540 NA
ATOM     16  C   LIG    1        2.616  -0.121  -1.980  0.00  0.00    +0.190 C 
ENDBRANCH   8  15
ENDBRANCH   7   8
ENDBRANCH   1   7
BRANCH   4  17
ATOM     17  C   LIG    1        5.747   0.147   4.988  0.00  0.00    +0.340 C 
BRANCH  17  18
ATOM     18  C   LIG    1        7.099  -0.499   5.152  0.00  0.00    -0.130 A 
ATOM     19  C   LIG    1        7.196  -1.871   5.287  0.00  0.00    +0.080 A 
ATOM     20  C   LIG    1        8.435  -2.466   5.431  0.00  0.00    -0.050 A 
ATOM     21  C   LIG    1        9.580  -1.684   5.452  0.00  0.00    +0.110 A 
ATOM     22  C   LIG    1        9.479  -0.306   5.322  0.00  0.00    +0.020 A 
ATOM     23  C   LIG    1        8.239   0.283   5.171  0.00  0.00    +0.080 A 
BRANCH  21  24
ATOM     24  O   LIG    1       10.799  -2.266   5.600  0.00  0.00    -0.310 OA
BRANCH  24  25
ATOM     25  C   LIG    1       10.827  -3.689   5.729  0.00  0.00    +0.600 C 
ATOM     26  F   LIG    1       10.089  -4.070   6.855  0.00  0.00    -0.160 F 
ATOM     27  F   LIG    1       12.151  -4.118   5.872  0.00  0.00    -0.130 F 
ATOM     28  F   LIG    1       10.269  -4.272   4.586  0.00  0.00    -0.160 F 
ENDBRANCH  24  25
ENDBRANCH  21  24
ENDBRANCH  17  18
ENDBRANCH   4  17
TORSDOF 8
