REMARK  Name = ZINCqH0000035Lty.0
REMARK                            x       y       z     vdW  Elec       q    Type
REMARK                         _______ _______ _______ _____ _____    ______ ____
ROOT
ATOM      1  N   LIG    1        1.026   3.389   0.011  0.00  0.00    -0.700 N 
ATOM      2  H   LIG    1        0.163   3.830   0.021  0.00  0.00    +0.410 HD
ENDROOT
BRANCH   1   3
ATOM      3  C   LIG    1        1.097   2.001   0.002  0.00  0.00    +0.340 A 
ATOM      4  C   LIG    1        2.339   1.364  -0.013  0.00  0.00    -0.030 A 
ATOM      5  C   LIG    1        2.360  -0.019  -0.021  0.00  0.00    +0.080 A 
ATOM      6  C   LIG    1        1.135  -0.694  -0.013  0.00  0.00    +0.050 A 
ATOM      7  N   LIG    1        0.002  -0.004   0.002  0.00  0.00    -0.190 NA
ATOM      8  N   LIG    1       -0.015   1.279   0.009  0.00  0.00    -0.300 NA
BRANCH   6   9
ATOM      9  C   LIG    1        1.102  -2.177  -0.020  0.00  0.00    -0.040 A 
ATOM     10  C   LIG    1        2.292  -2.902  -0.041  0.00  0.00    +0.010 A 
ATOM     11  C   LIG    1        2.256  -4.282  -0.042  0.00  0.00    +0.010 A 
ATOM     12  C   LIG    1        1.042  -4.945  -0.034  0.00  0.00    +0.010 A 
ATOM     13  C   LIG    1       -0.142  -4.230  -0.018  0.00  0.00    +0.010 A 
ATOM     14  C   LIG    1       -0.118  -2.850  -0.011  0.00  0.00    +0.040 A 
ENDBRANCH   6   9
ENDBRANCH   1   3
BRANCH   1  15
ATOM     15  C   LIG    1        2.256   4.185   0.003  0.00  0.00    +0.330 C 
BRANCH  15  21
ATOM     16  C   LIG    1        1.547   6.268   1.203  0.00  0.00    +0.160 A 
ATOM     17  C   LIG    1        1.229   7.617   1.216  0.00  0.00    -0.120 A 
ATOM     18  C   LIG    1        1.259   8.347   0.039  0.00  0.00    +0.150 A 
ATOM     19  C   LIG    1        1.614   7.724  -1.154  0.00  0.00    +0.060 A 
ATOM     20  C   LIG    1        1.936   6.376  -1.162  0.00  0.00    +0.040 A 
ATOM     21  C   LIG    1        1.905   5.651   0.014  0.00  0.00    -0.150 A 
BRANCH  16  23
ATOM     22  C   LIG    1        1.135   6.250   3.546  0.00  0.00    +0.250 C 
ATOM     23  O   LIG    1        1.512   5.550   2.358  0.00  0.00    -0.310 OA
ENDBRANCH  16  23
BRANCH  19  24
ATOM     24  O   LIG    1        1.645   8.438  -2.312  0.00  0.00    -0.310 OA
ATOM     25  C   LIG    1        2.018   7.734  -3.498  0.00  0.00    +0.250 C 
ENDBRANCH  19  24
BRANCH  18  26
ATOM     26  O   LIG    1        0.942   9.669   0.048  0.00  0.00    -0.300 OA
ATOM     27  C   LIG    1        0.588  10.242   1.309  0.00  0.00    +0.250 C 
ENDBRANCH  18  26
ENDBRANCH  15  21
ENDBRANCH   1  15
TORSDOF 7
