REMARK  Name = ZINCpk00000xWTUx.0
REMARK                            x       y       z     vdW  Elec       q    Type
REMARK                         _______ _______ _______ _____ _____    ______ ____
ROOT
ATOM      1  C   LIG    1        2.170   2.084   2.912  0.00  0.00    +0.520 C 
ATOM      2  O   LIG    1        1.763   3.207   3.138  0.00  0.00    -0.490 OA
ENDROOT
BRANCH   1   6
ATOM      3  C   LIG    1        4.606   0.105   5.763  0.00  0.00    +0.310 A 
ATOM      4  C   LIG    1        4.278  -0.535   4.572  0.00  0.00    -0.050 A 
ATOM      5  C   LIG    1        3.482   0.101   3.646  0.00  0.00    +0.190 A 
ATOM      6  C   LIG    1        3.017   1.395   3.902  0.00  0.00    -0.190 A 
ATOM      7  C   LIG    1        3.352   2.030   5.102  0.00  0.00    +0.230 A 
ATOM      8  C   LIG    1        4.136   1.391   6.019  0.00  0.00    -0.140 A 
BRANCH   8   9
ATOM      9  N   LIG    1        4.489   2.067   7.287  0.00  0.00    +0.050 N 
ATOM     10  O   LIG    1        5.286   1.552   8.051  0.00  0.00    -0.200 OA
ATOM     11  O   LIG    1        3.982   3.139   7.568  0.00  0.00    -0.140 OA
ENDBRANCH   8   9
BRANCH   3  12
ATOM     12  N   LIG    1        5.405  -0.540   6.700  0.00  0.00    -0.700 N 
ATOM     13  H   LIG    1        5.554  -0.137   7.570  0.00  0.00    +0.420 HD
BRANCH  12  15
ATOM     14  C   LIG    1        6.843  -2.317   7.569  0.00  0.00    +0.050 C 
ATOM     15  C   LIG    1        6.022  -1.828   6.374  0.00  0.00    +0.250 C 
ENDBRANCH  12  15
ENDBRANCH   3  12
ENDBRANCH   1   6
BRANCH   1  16
ATOM     16  O   LIG    1        1.849   1.470   1.756  0.00  0.00    -0.360 OA
BRANCH  16  17
ATOM     17  C   LIG    1        1.012   2.209   0.828  0.00  0.00    +0.210 C 
BRANCH  17  18
ATOM     18  C   LIG    1        1.334   1.789  -0.583  0.00  0.00    +0.530 C 
ATOM     19  N   LIG    1        2.149   0.739  -0.804  0.00  0.00    -0.680 N 
ATOM     20  H   LIG    1        2.584   0.297  -0.058  0.00  0.00    +0.420 HD
ATOM     21  C   LIG    1        2.358   0.301  -2.061  0.00  0.00    +0.700 C 
ATOM     22  O   LIG    1        1.813   0.854  -2.996  0.00  0.00    -0.530 OA
ATOM     23  N   LIG    1        3.173  -0.750  -2.282  0.00  0.00    -0.860 N 
ATOM     24  H   LIG    1        3.324  -1.065  -3.187  0.00  0.00    +0.420 HD
ATOM     25  H   LIG    1        3.608  -1.191  -1.536  0.00  0.00    +0.400 HD
ATOM     26  O   LIG    1        0.861   2.397  -1.519  0.00  0.00    -0.440 OA
ENDBRANCH  17  18
BRANCH  17  27
ATOM     27  C   LIG    1       -0.460   1.916   1.124  0.00  0.00    -0.020 C 
ATOM     28  C   LIG    1       -0.754   2.213   2.595  0.00  0.00    +0.040 C 
ATOM     29  C   LIG    1       -1.344   2.797   0.239  0.00  0.00    +0.050 C 
ENDBRANCH  17  27
ENDBRANCH  16  17
ENDBRANCH   1  16
TORSDOF 8
