REMARK  Name = ZINCvU0000000DGN.0
REMARK                            x       y       z     vdW  Elec       q    Type
REMARK                         _______ _______ _______ _____ _____    ______ ____
ROOT
ATOM      1  C   LIG    1       -2.475   0.792   0.133  0.00  0.00    +0.240 C 
ENDROOT
BRANCH   1   2
ATOM      2  C   LIG    1       -2.463   0.014   1.423  0.00  0.00    -0.130 A 
ATOM      3  C   LIG    1       -2.785   0.641   2.612  0.00  0.00    +0.010 A 
ATOM      4  C   LIG    1       -2.778  -0.074   3.795  0.00  0.00    +0.020 A 
ATOM      5  C   LIG    1       -2.440  -1.415   3.789  0.00  0.00    +0.020 A 
ATOM      6  C   LIG    1       -2.114  -2.041   2.601  0.00  0.00    +0.020 A 
ATOM      7  C   LIG    1       -2.125  -1.327   1.418  0.00  0.00    +0.020 A 
ENDBRANCH   1   2
BRANCH   1  10
ATOM      8  N   LIG    1       -0.011   0.966   0.007  0.00  0.00    -0.670 N 
ATOM      9  H   LIG    1        0.027  -0.003   0.007  0.00  0.00    +0.410 HD
ATOM     10  C   LIG    1       -1.204   1.593   0.017  0.00  0.00    +0.530 C 
ATOM     11  O   LIG    1       -1.254   2.802  -0.067  0.00  0.00    -0.490 OA
BRANCH   8  16
ATOM     12  C   LIG    1        3.462   1.997   0.656  0.00  0.00    +0.140 A 
ATOM     13  C   LIG    1        3.511   3.196  -0.041  0.00  0.00    -0.090 A 
ATOM     14  C   LIG    1        2.396   3.651  -0.718  0.00  0.00    +0.070 A 
ATOM     15  C   LIG    1        1.229   2.911  -0.708  0.00  0.00    -0.020 A 
ATOM     16  C   LIG    1        1.172   1.713  -0.008  0.00  0.00    +0.190 A 
ATOM     17  C   LIG    1        2.291   1.255   0.673  0.00  0.00    -0.050 A 
BRANCH  12  19
ATOM     18  C   LIG    1        5.731   2.368   1.260  0.00  0.00    +0.250 C 
ATOM     19  O   LIG    1        4.560   1.552   1.321  0.00  0.00    -0.320 OA
ENDBRANCH  12  19
ENDBRANCH   8  16
ENDBRANCH   1  10
BRANCH   1  20
ATOM     20  N   LIG    1       -3.629   1.702   0.120  0.00  0.00    -0.650 NA
ATOM     21  H   LIG    1       -3.780   2.106   1.032  0.00  0.00    +0.350 HD
BRANCH  20  22
ATOM     22  C   LIG    1       -4.836   1.014  -0.357  0.00  0.00    +0.280 C 
BRANCH  22  23
ATOM     23  C   LIG    1       -5.996   1.976  -0.356  0.00  0.00    -0.180 A 
ATOM     24  C   LIG    1       -6.345   2.760  -1.378  0.00  0.00    +0.040 A 
ATOM     25  C   LIG    1       -7.448   3.560  -1.153  0.00  0.00    +0.050 A 
ATOM     26  C   LIG    1       -7.995   3.431   0.071  0.00  0.00    -0.120 A 
ATOM     27  S   LIG    1       -7.090   2.239   0.996  0.00  0.00    +0.130 S 
BRANCH  26  28
ATOM     28  C   LIG    1       -9.175   4.176   0.562  0.00  0.00    +0.140 A 
ATOM     29  C   LIG    1       -9.690   4.006   1.799  0.00  0.00    -0.080 A 
ATOM     30  S   LIG    1      -11.074   5.084   1.961  0.00  0.00    +0.140 S 
ATOM     31  C   LIG    1      -10.838   5.649   0.365  0.00  0.00    +0.060 A 
ATOM     32  C   LIG    1      -11.696   6.685  -0.314  0.00  0.00    +0.180 C 
ATOM     33  N   LIG    1       -9.825   5.067  -0.175  0.00  0.00    -0.460 NA
ENDBRANCH  26  28
ENDBRANCH  22  23
ENDBRANCH  20  22
ENDBRANCH   1  20
TORSDOF 8
