REMARK  Name = ZINCue00000007ZU.1
REMARK                            x       y       z     vdW  Elec       q    Type
REMARK                         _______ _______ _______ _____ _____    ______ ____
ROOT
ATOM      1  N   LIG    1        1.681  -3.871  -4.363  0.00  0.00    -1.080 NA
ENDROOT
BRANCH   1   2
ATOM      2  C   LIG    1        1.287  -2.580  -3.998  0.00  0.00    +0.260 A 
ATOM      3  C   LIG    1        1.688  -1.490  -4.759  0.00  0.00    -0.090 A 
ATOM      4  C   LIG    1        1.298  -0.215  -4.397  0.00  0.00    +0.030 A 
ATOM      5  C   LIG    1        0.503  -0.025  -3.280  0.00  0.00    +0.070 A 
ATOM      6  C   LIG    1        0.107  -1.110  -2.516  0.00  0.00    -0.660 A 
ATOM      7  F   LIG    1        0.118   1.222  -2.931  0.00  0.00    -0.150 F 
ATOM      8  C   LIG    1        0.495  -2.386  -2.874  0.00  0.00    +0.090 A 
BRANCH   6   9
ATOM      9  S   LIG    1       -0.899  -0.863  -1.091  0.00  0.00    +2.700 S 
ATOM     10  O   LIG    1       -1.962  -0.010  -1.492  0.00  0.00    -0.950 OA
ATOM     11  O   LIG    1       -1.106  -2.147  -0.518  0.00  0.00    -0.950 OA
BRANCH   9  12
ATOM     12  N   LIG    1        0.002  -0.004   0.002  0.00  0.00    -1.000 NA
ATOM     13  C   LIG    1       -0.018   1.467   0.010  0.00  0.00    +0.280 C 
ATOM     14  C   LIG    1        1.430   1.970  -0.001  0.00  0.00    +0.210 C 
ATOM     15  O   LIG    1        2.156   1.340   1.057  0.00  0.00    -0.380 OA
ATOM     16  C   LIG    1        2.252  -0.082   0.934  0.00  0.00    +0.210 C 
ATOM     17  C   LIG    1        0.847  -0.690   0.993  0.00  0.00    +0.270 C 
ENDBRANCH   9  12
ENDBRANCH   6   9
ENDBRANCH   1   2
BRANCH   1  18
ATOM     18  S   LIG    1        2.626  -4.101  -5.703  0.00  0.00    +2.610 S 
ATOM     19  O   LIG    1        3.884  -3.507  -5.414  0.00  0.00    -1.020 OA
ATOM     20  O   LIG    1        1.831  -3.734  -6.822  0.00  0.00    -1.020 OA
BRANCH  18  28
ATOM     21  O   LIG    1        1.942 -11.254  -7.542  0.00  0.00    -0.560 OA
ATOM     22  C   LIG    1        2.266 -10.162  -7.115  0.00  0.00    +0.690 A 
ATOM     23  N   LIG    1        3.347  -9.917  -6.349  0.00  0.00    -0.640 N 
ATOM     24  H   LIG    1        3.991 -10.578  -6.049  0.00  0.00    +0.440 HD
ATOM     25  C   LIG    1        3.382  -8.555  -6.062  0.00  0.00    +0.130 A 
ATOM     26  C   LIG    1        4.251  -7.759  -5.332  0.00  0.00    +0.010 A 
ATOM     27  C   LIG    1        4.018  -6.401  -5.230  0.00  0.00    +0.140 A 
ATOM     28  C   LIG    1        2.916  -5.833  -5.846  0.00  0.00    -0.610 A 
ATOM     29  C   LIG    1        2.045  -6.619  -6.577  0.00  0.00    +0.150 A 
ATOM     30  C   LIG    1        2.273  -7.981  -6.689  0.00  0.00    +0.060 A 
ATOM     31  N   LIG    1        1.599  -9.014  -7.337  0.00  0.00    -0.640 N 
ATOM     32  H   LIG    1        0.787  -8.921  -7.859  0.00  0.00    +0.440 HD
ENDBRANCH  18  28
ENDBRANCH   1  18
TORSDOF 5
