REMARK  Name = ZINCqH0000001CmT.0
REMARK                            x       y       z     vdW  Elec       q    Type
REMARK                         _______ _______ _______ _____ _____    ______ ____
ROOT
ATOM      1  C   LIG    1       -3.974   3.607  -0.539  0.00  0.00    +0.480 C 
ATOM      2  O   LIG    1       -4.847   2.940  -1.041  0.00  0.00    -0.490 OA
ENDROOT
BRANCH   1   3
ATOM      3  O   LIG    1       -2.924   3.008   0.046  0.00  0.00    -0.330 OA
BRANCH   3  10
ATOM      4  C   LIG    1       -2.164   1.050   1.278  0.00  0.00    +0.010 C 
ATOM      5  C   LIG    1       -0.729   1.579   1.267  0.00  0.00    +0.020 C 
ATOM      6  C   LIG    1       -0.013   1.086   0.008  0.00  0.00    +0.010 C 
ATOM      7  C   LIG    1       -0.753   1.593  -1.232  0.00  0.00    -0.020 C 
ATOM      8  C   LIG    1       -2.188   1.063  -1.221  0.00  0.00    +0.020 C 
ATOM      9  C   LIG    1       -0.037   1.099  -2.490  0.00  0.00    +0.010 C 
ATOM     10  C   LIG    1       -2.904   1.556   0.038  0.00  0.00    +0.190 C 
BRANCH   4  12
ATOM     11  C   LIG    1       -4.316   1.014   2.547  0.00  0.00    +0.020 C 
ATOM     12  C   LIG    1       -2.880   1.543   2.537  0.00  0.00    -0.010 C 
ATOM     13  C   LIG    1       -2.140   1.036   3.776  0.00  0.00    +0.020 C 
ENDBRANCH   4  12
ENDBRANCH   3  10
ENDBRANCH   1   3
BRANCH   1  14
ATOM     14  C   LIG    1       -4.063   5.111  -0.569  0.00  0.00    +0.140 C 
BRANCH  14  15
ATOM     15  S   LIG    1       -5.581   5.608  -1.420  0.00  0.00    +0.130 S 
BRANCH  15  16
ATOM     16  C   LIG    1       -5.432   7.361  -1.313  0.00  0.00    +0.200 A 
ATOM     17  N   LIG    1       -4.448   8.029  -0.749  0.00  0.00    -0.330 NA
ATOM     18  N   LIG    1       -4.650   9.293  -0.847  0.00  0.00    -0.020 NA
ATOM     19  N   LIG    1       -5.755   9.526  -1.468  0.00  0.00    -0.070 NA
ATOM     20  N   LIG    1       -6.306   8.276  -1.801  0.00  0.00    -0.310 N 
BRANCH  20  21
ATOM     21  C   LIG    1       -7.503   8.029  -2.488  0.00  0.00    +0.120 A 
ATOM     22  C   LIG    1       -7.597   6.948  -3.354  0.00  0.00    +0.030 A 
ATOM     23  C   LIG    1       -8.779   6.704  -4.026  0.00  0.00    +0.050 A 
ATOM     24  C   LIG    1       -9.865   7.541  -3.844  0.00  0.00    +0.040 A 
ATOM     25  C   LIG    1       -9.773   8.621  -2.985  0.00  0.00    +0.040 A 
ATOM     26  C   LIG    1       -8.595   8.867  -2.307  0.00  0.00    +0.050 A 
ENDBRANCH  20  21
ENDBRANCH  15  16
ENDBRANCH  14  15
ENDBRANCH   1  14
TORSDOF 7
