REMARK  Name = ZINCpe000000Ytzv.0
REMARK                            x       y       z     vdW  Elec       q    Type
REMARK                         _______ _______ _______ _____ _____    ______ ____
ROOT
ATOM      1  C   LIG    1       -0.906   3.331  -2.143  0.00  0.00    +0.520 C 
ATOM      2  N   LIG    1       -1.378   3.305  -0.881  0.00  0.00    -0.580 N 
ATOM      3  C   LIG    1       -1.912   4.462  -0.139  0.00  0.00    +0.280 C 
ATOM      4  C   LIG    1       -2.851   3.848   0.929  0.00  0.00    +0.030 C 
ATOM      5  C   LIG    1       -2.080   2.560   1.319  0.00  0.00    +0.050 C 
ATOM      6  C   LIG    1       -1.447   2.118  -0.017  0.00  0.00    +0.280 C 
ATOM      7  O   LIG    1       -0.490   2.314  -2.657  0.00  0.00    -0.500 OA
ENDROOT
BRANCH   1  13
ATOM      8  N   LIG    1       -0.852   4.622  -6.984  0.00  0.00    -0.540 NA
ATOM      9  C   LIG    1       -1.195   5.833  -6.227  0.00  0.00    +0.170 C 
ATOM     10  C   LIG    1       -0.362   5.881  -4.941  0.00  0.00    +0.290 C 
ATOM     11  N   LIG    1       -0.553   4.617  -4.214  0.00  0.00    -0.580 N 
ATOM     12  C   LIG    1       -0.354   3.356  -4.945  0.00  0.00    +0.300 C 
ATOM     13  C   LIG    1       -0.895   4.614  -2.910  0.00  0.00    +0.510 C 
ATOM     14  O   LIG    1       -1.194   5.653  -2.359  0.00  0.00    -0.520 OA
ATOM     15  C   LIG    1       -1.193   3.408  -6.231  0.00  0.00    +0.170 C 
BRANCH   8  16
ATOM     16  C   LIG    1       -1.500   4.624  -8.302  0.00  0.00    +0.200 C 
BRANCH  16  17
ATOM     17  C   LIG    1       -0.930   3.487  -9.153  0.00  0.00    +0.210 C 
BRANCH  17  19
ATOM     18  N   LIG    1       -2.082   3.491 -11.493  0.00  0.00    -0.430 NA
ATOM     19  C   LIG    1       -1.580   3.490 -10.474  0.00  0.00    +0.200 C 
ENDBRANCH  17  19
ENDBRANCH  16  17
ENDBRANCH   8  16
ENDBRANCH   1  13
BRANCH   6  20
ATOM     20  C   LIG    1       -0.060   1.579   0.226  0.00  0.00    -0.050 A 
ATOM     21  C   LIG    1        1.013   2.438   0.406  0.00  0.00    -0.030 A 
ATOM     22  C   LIG    1        2.271   1.908   0.621  0.00  0.00    +0.260 A 
ATOM     23  N   LIG    1        2.456   0.603   0.655  0.00  0.00    -0.480 NA
ATOM     24  C   LIG    1        1.459  -0.243   0.488  0.00  0.00    +0.260 A 
ATOM     25  C   LIG    1        0.173   0.213   0.269  0.00  0.00    -0.020 A 
ENDBRANCH   6  20
TORSDOF 5
