REMARK  Name = ZINCpk000000nQT1.0
REMARK                            x       y       z     vdW  Elec       q    Type
REMARK                         _______ _______ _______ _____ _____    ______ ____
ROOT
ATOM      1  C   LIG    1       -8.082   1.076   1.334  0.00  0.00    +0.270 C 
ENDROOT
BRANCH   1   2
ATOM      2  C   LIG    1       -8.492   1.366   2.755  0.00  0.00    +0.510 C 
ATOM      3  O   LIG    1       -7.719   1.152   3.665  0.00  0.00    -0.530 OA
ATOM      4  N   LIG    1       -9.718   1.862   3.014  0.00  0.00    -0.850 N 
ATOM      5  H   LIG    1       -9.982   2.049   3.929  0.00  0.00    +0.400 HD
ATOM      6  H   LIG    1      -10.336   2.033   2.286  0.00  0.00    +0.400 HD
ENDBRANCH   1   2
BRANCH   1   7
ATOM      7  N   LIG    1       -6.715   0.548   1.319  0.00  0.00    -0.660 N 
ATOM      8  H   LIG    1       -6.566  -0.411   1.312  0.00  0.00    +0.420 HD
BRANCH   7  13
ATOM      9  C   LIG    1       -2.143   1.058   1.278  0.00  0.00    +0.170 A 
ATOM     10  N   LIG    1       -2.503  -0.203   1.268  0.00  0.00    -0.250 NA
ATOM     11  N   LIG    1       -3.787  -0.297   1.286  0.00  0.00    -0.250 NA
ATOM     12  C   LIG    1       -4.313   0.912   1.298  0.00  0.00    +0.110 A 
ATOM     13  C   LIG    1       -5.637   1.417   1.312  0.00  0.00    +0.510 A 
ATOM     14  N   LIG    1       -5.834   2.720   1.321  0.00  0.00    -0.550 NA
ATOM     15  C   LIG    1       -4.807   3.578   1.316  0.00  0.00    +0.290 A 
ATOM     16  C   LIG    1       -3.531   3.146   1.302  0.00  0.00    +0.100 A 
ATOM     17  N   LIG    1       -3.266   1.802   1.292  0.00  0.00    -0.350 N 
BRANCH   9  19
ATOM     18  C   LIG    1       -0.013   1.086   0.008  0.00  0.00    +0.060 C 
ATOM     19  C   LIG    1       -0.729   1.579   1.267  0.00  0.00    +0.090 C 
ATOM     20  C   LIG    1        0.011   1.072   2.506  0.00  0.00    +0.060 C 
ENDBRANCH   9  19
ENDBRANCH   7  13
ENDBRANCH   1   7
BRANCH   1  21
ATOM     21  C   LIG    1       -9.034   0.043   0.728  0.00  0.00    +0.110 C 
BRANCH  21  22
ATOM     22  C   LIG    1       -8.700  -0.156  -0.728  0.00  0.00    -0.100 A 
ATOM     23  C   LIG    1       -9.314   0.626  -1.689  0.00  0.00    +0.030 A 
ATOM     24  C   LIG    1       -9.005   0.449  -3.024  0.00  0.00    -0.010 A 
ATOM     25  C   LIG    1       -8.087  -0.521  -3.400  0.00  0.00    +0.110 A 
ATOM     26  C   LIG    1       -7.477  -1.307  -2.434  0.00  0.00    -0.010 A 
ATOM     27  C   LIG    1       -7.785  -1.123  -1.100  0.00  0.00    +0.040 A 
BRANCH  25  28
ATOM     28  O   LIG    1       -7.787  -0.701  -4.713  0.00  0.00    -0.500 OA
ATOM     29  H   LIG    1       -8.353  -1.344  -5.162  0.00  0.00    +0.390 HD
ENDBRANCH  25  28
ENDBRANCH  21  22
ENDBRANCH   1  21
TORSDOF 7
