REMARK  Name = ZINCpk00000eb2gZ.0
REMARK                            x       y       z     vdW  Elec       q    Type
REMARK                         _______ _______ _______ _____ _____    ______ ____
ROOT
ATOM      1  C   LIG    1        1.106   7.372  -0.795  0.00  0.00    +0.200 C 
ATOM      2  C   LIG    1        1.103   8.105   0.547  0.00  0.00    +0.070 C 
ENDROOT
BRANCH   1   3
ATOM      3  C   LIG    1        2.303   7.806  -1.602  0.00  0.00    +0.510 C 
ATOM      4  N   LIG    1        2.455   9.102  -1.938  0.00  0.00    -0.640 N 
ATOM      5  H   LIG    1        1.795   9.756  -1.661  0.00  0.00    +0.430 HD
ATOM      6  O   LIG    1        3.129   6.988  -1.948  0.00  0.00    -0.430 OA
BRANCH   4   7
ATOM      7  C   LIG    1        3.559   9.501  -2.681  0.00  0.00    +0.480 A 
ATOM      8  C   LIG    1        3.731  10.846  -3.045  0.00  0.00    -0.090 A 
ATOM      9  N   LIG    1        3.034  11.988  -2.831  0.00  0.00    -0.470 NA
ATOM     10  C   LIG    1        3.653  12.985  -3.394  0.00  0.00    +0.500 A 
ATOM     11  N   LIG    1        4.792  12.545  -4.000  0.00  0.00    -0.580 N 
ATOM     12  H   LIG    1        5.429  13.089  -4.488  0.00  0.00    +0.440 HD
ATOM     13  C   LIG    1        4.870  11.191  -3.794  0.00  0.00    +0.300 A 
ATOM     14  N   LIG    1        5.731  10.238  -4.136  0.00  0.00    -0.540 NA
ATOM     15  C   LIG    1        5.525   8.988  -3.776  0.00  0.00    +0.560 A 
ATOM     16  N   LIG    1        4.473   8.618  -3.069  0.00  0.00    -0.520 NA
ENDBRANCH   4   7
ENDBRANCH   1   3
BRANCH   1  17
ATOM     17  O   LIG    1        1.170   5.940  -0.565  0.00  0.00    -0.320 OA
BRANCH  17  18
ATOM     18  C   LIG    1       -0.003   5.287  -0.443  0.00  0.00    +0.520 C 
ATOM     19  O   LIG    1       -1.050   5.897  -0.527  0.00  0.00    -0.520 OA
BRANCH  18  25
ATOM     20  C   LIG    1       -2.524   0.991   0.016  0.00  0.00    +0.090 C 
ATOM     21  C   LIG    1       -1.226   1.756   0.015  0.00  0.00    -0.170 A 
ATOM     22  C   LIG    1       -0.036   1.093   0.236  0.00  0.00    +0.090 A 
ATOM     23  C   LIG    1        1.165   1.787   0.232  0.00  0.00    -0.050 A 
ATOM     24  C   LIG    1        1.183   3.146   0.013  0.00  0.00    +0.120 A 
ATOM     25  C   LIG    1       -0.015   3.833  -0.208  0.00  0.00    -0.210 A 
ATOM     26  C   LIG    1       -1.229   3.128  -0.204  0.00  0.00    +0.280 A 
BRANCH  26  27
ATOM     27  N   LIG    1       -2.425   3.797  -0.422  0.00  0.00    -0.860 N 
ATOM     28  H   LIG    1       -3.257   3.425  -0.089  0.00  0.00    +0.400 HD
ATOM     29  H   LIG    1       -2.430   4.637  -0.907  0.00  0.00    +0.410 HD
ENDBRANCH  26  27
ENDBRANCH  18  25
ENDBRANCH  17  18
ENDBRANCH   1  17
TORSDOF 6
