REMARK  Name = ZINCah0000002Iug.0
REMARK                            x       y       z     vdW  Elec       q    Type
REMARK                         _______ _______ _______ _____ _____    ______ ____
ROOT
ATOM      1  CA  LIG    1        2.289   1.482  -0.012  0.00  0.00    -0.020 A 
ATOM      2  N   LIG    1        1.100   2.078   0.003  0.00  0.00    -0.390 NA
ATOM      3  C   LIG    1       -0.017   1.387   0.010  0.00  0.00    +0.250 A 
ATOM      4  C   LIG    1        0.002  -0.004   0.002  0.00  0.00    +0.120 A 
ATOM      5  C   LIG    1        1.220  -0.668  -0.013  0.00  0.00    +0.010 A 
ATOM      6  F   LIG    1       -1.155  -0.702   0.009  0.00  0.00    -0.110 F 
ATOM      7  C   LIG    1        2.385   0.086  -0.020  0.00  0.00    +0.140 A 
ATOM      8  F   LIG    1        3.593  -0.518  -0.035  0.00  0.00    -0.100 F 
ENDROOT
BRANCH   1  10
ATOM      9  O   LIG    1        4.601   1.761  -0.034  0.00  0.00    -0.430 OA
ATOM     10  C   LIG    1        3.514   2.298  -0.020  0.00  0.00    +0.530 C 
ENDBRANCH   1  10
TORSDOF 1
