REMARK  Name = ZINCpk00000xI3lF.1
REMARK                            x       y       z     vdW  Elec       q    Type
REMARK                         _______ _______ _______ _____ _____    ______ ____
ROOT
ATOM      1  C   LIG    1        3.723   4.693  -1.638  0.00  0.00    +0.270 C 
ENDROOT
BRANCH   1   8
ATOM      2  C   LIG    1        3.062   7.304  -3.306  0.00  0.00    +0.170 C 
ATOM      3  C   LIG    1        4.045   6.231  -3.697  0.00  0.00    +0.100 A 
ATOM      4  N   LIG    1        4.772   6.217  -4.784  0.00  0.00    -0.290 NA
ATOM      5  N   LIG    1        5.553   5.055  -4.779  0.00  0.00    -0.390 N 
ATOM      6  C   LIG    1        5.273   4.370  -3.647  0.00  0.00    +0.250 A 
ATOM      7  C   LIG    1        6.508   4.653  -5.816  0.00  0.00    +0.350 C 
ATOM      8  C   LIG    1        4.335   5.079  -2.960  0.00  0.00    -0.200 A 
BRANCH   6   9
ATOM      9  N   LIG    1        5.840   3.160  -3.256  0.00  0.00    -0.460 N 
ATOM     10  C   LIG    1        7.304   3.266  -3.175  0.00  0.00    +0.150 C 
ATOM     11  C   LIG    1        7.879   1.934  -2.685  0.00  0.00    +0.250 C 
ATOM     12  O   LIG    1        7.460   0.887  -3.564  0.00  0.00    -0.380 OA
ATOM     13  C   LIG    1        6.039   0.756  -3.666  0.00  0.00    +0.240 C 
ATOM     14  C   LIG    1        5.445   2.075  -4.166  0.00  0.00    +0.160 C 
ENDBRANCH   6   9
ENDBRANCH   1   8
BRANCH   1  15
ATOM     15  N   LIG    1        2.517   3.889  -1.873  0.00  0.00    -0.680 NA
ATOM     16  H   LIG    1        2.726   3.080  -2.440  0.00  0.00    +0.340 HD
BRANCH  15  17
ATOM     17  C   LIG    1        1.892   3.493  -0.604  0.00  0.00    +0.220 C 
BRANCH  17  18
ATOM     18  C   LIG    1        0.660   2.671  -0.884  0.00  0.00    -0.050 A 
ATOM     19  C   LIG    1        0.758   1.297  -0.997  0.00  0.00    +0.000 A 
ATOM     20  C   LIG    1       -0.371   0.542  -1.255  0.00  0.00    +0.070 A 
ATOM     21  C   LIG    1       -1.597   1.160  -1.406  0.00  0.00    -0.130 A 
ATOM     22  C   LIG    1       -1.697   2.536  -1.287  0.00  0.00    +0.100 A 
ATOM     23  F   LIG    1       -2.897   3.142  -1.429  0.00  0.00    -0.140 F 
ATOM     24  C   LIG    1       -0.566   3.292  -1.029  0.00  0.00    +0.010 A 
BRANCH  21  25
ATOM     25  C   LIG    1       -2.826   0.337  -1.693  0.00  0.00    +0.240 C 
BRANCH  25  26
ATOM     26  O   LIG    1       -2.469  -1.045  -1.763  0.00  0.00    -0.570 OA
ATOM     27  H   LIG    1       -3.213  -1.635  -1.945  0.00  0.00    +0.390 HD
ENDBRANCH  25  26
ENDBRANCH  21  25
ENDBRANCH  17  18
ENDBRANCH  15  17
ENDBRANCH   1  15
TORSDOF 7
