REMARK  Name = ZINCqH0000037XDy.0
REMARK                            x       y       z     vdW  Elec       q    Type
REMARK                         _______ _______ _______ _____ _____    ______ ____
ROOT
ATOM      1  C   LIG    1        3.737  -0.520  -0.496  0.00  0.00    +0.560 C 
ATOM      2  N   LIG    1        3.824  -1.857  -0.637  0.00  0.00    -0.720 N 
ATOM      3  H   LIG    1        3.025  -2.404  -0.573  0.00  0.00    +0.400 HD
ATOM      4  O   LIG    1        4.738   0.166  -0.576  0.00  0.00    -0.530 OA
ENDROOT
BRANCH   1  11
ATOM      5  C   LIG    1        3.606   2.311   0.074  0.00  0.00    +0.120 C 
ATOM      6  C   LIG    1        2.349   1.481   0.033  0.00  0.00    -0.020 A 
ATOM      7  C   LIG    1        1.124   2.072   0.269  0.00  0.00    +0.000 A 
ATOM      8  C   LIG    1       -0.032   1.317   0.232  0.00  0.00    +0.050 A 
ATOM      9  C   LIG    1        0.030  -0.048  -0.043  0.00  0.00    -0.060 A 
ATOM     10  C   LIG    1        1.261  -0.652  -0.281  0.00  0.00    +0.060 A 
ATOM     11  C   LIG    1        2.425   0.114  -0.244  0.00  0.00    -0.140 A 
BRANCH   9  12
ATOM     12  C   LIG    1       -1.213  -0.857  -0.081  0.00  0.00    -0.040 A 
ATOM     13  C   LIG    1       -1.153  -2.220  -0.361  0.00  0.00    +0.010 A 
ATOM     14  C   LIG    1       -2.312  -2.969  -0.390  0.00  0.00    +0.010 A 
ATOM     15  C   LIG    1       -3.534  -2.365  -0.152  0.00  0.00    +0.000 A 
ATOM     16  C   LIG    1       -3.600  -1.011   0.122  0.00  0.00    +0.010 A 
ATOM     17  C   LIG    1       -2.447  -0.254   0.158  0.00  0.00    +0.020 A 
ENDBRANCH   9  12
ENDBRANCH   1  11
BRANCH   2  18
ATOM     18  C   LIG    1        5.124  -2.485  -0.886  0.00  0.00    +0.300 C 
BRANCH  18  19
ATOM     19  C   LIG    1        4.944  -3.999  -1.005  0.00  0.00    +0.140 C 
ATOM     20  C   LIG    1        6.307  -4.691  -1.270  0.00  0.00    +0.030 C 
ATOM     21  C   LIG    1        6.059  -6.119  -0.722  0.00  0.00    +0.030 C 
ATOM     22  C   LIG    1        4.873  -5.944   0.234  0.00  0.00    +0.070 C 
ATOM     23  C   LIG    1        3.683  -6.811  -0.219  0.00  0.00    +0.010 C 
ATOM     24  C   LIG    1        3.813  -8.045   0.712  0.00  0.00    +0.210 C 
ATOM     25  O   LIG    1        4.268  -7.481   1.962  0.00  0.00    -0.370 OA
ATOM     26  C   LIG    1        5.222  -6.453   1.637  0.00  0.00    +0.220 C 
ATOM     27  O   LIG    1        4.516  -4.562   0.256  0.00  0.00    -0.350 OA
ENDBRANCH  18  19
ENDBRANCH   2  18
TORSDOF 4
