REMARK  Name = ZINCpk00000KafyP.1
REMARK                            x       y       z     vdW  Elec       q    Type
REMARK                         _______ _______ _______ _____ _____    ______ ____
ROOT
ATOM      1  C   LIG    1       -3.443  -2.590  -2.172  0.00  0.00    +0.520 C 
ATOM      2  N   LIG    1       -3.142  -1.611  -1.296  0.00  0.00    -0.620 N 
ATOM      3  C   LIG    1       -4.082  -1.233  -0.230  0.00  0.00    +0.250 C 
ATOM      4  C   LIG    1       -3.324  -1.224   1.103  0.00  0.00    +0.220 C 
ATOM      5  O   LIG    1       -2.153  -0.415   0.973  0.00  0.00    -0.370 OA
ATOM      6  C   LIG    1       -1.212  -0.896   0.010  0.00  0.00    +0.270 C 
ATOM      7  C   LIG    1       -1.862  -0.889  -1.379  0.00  0.00    +0.280 C 
ATOM      8  O   LIG    1       -2.654  -2.887  -3.044  0.00  0.00    -0.520 OA
ENDROOT
BRANCH   6   9
ATOM      9  C   LIG    1        0.002  -0.004   0.002  0.00  0.00    +0.230 A 
ATOM     10  N   LIG    1       -0.016   1.303   0.009  0.00  0.00    -0.280 NA
ATOM     11  N   LIG    1        1.323   1.727  -0.001  0.00  0.00    -0.480 N 
ATOM     12  H   LIG    1        1.643   2.643   0.001  0.00  0.00    +0.440 HD
ATOM     13  C   LIG    1        2.073   0.612  -0.015  0.00  0.00    +0.300 A 
ATOM     14  N   LIG    1        1.268  -0.419  -0.012  0.00  0.00    -0.530 NA
BRANCH  13  15
ATOM     15  C   LIG    1        3.579   0.558  -0.029  0.00  0.00    +0.090 C 
ATOM     16  C   LIG    1        4.107   0.658   1.404  0.00  0.00    +0.060 C 
ATOM     17  C   LIG    1        4.123   1.725  -0.855  0.00  0.00    +0.040 C 
ENDBRANCH  13  15
ENDBRANCH   6   9
BRANCH   1  18
ATOM     18  C   LIG    1       -4.759  -3.316  -2.067  0.00  0.00    +0.150 C 
BRANCH  18  26
ATOM     19  C   LIG    1       -3.792  -6.327  -1.851  0.00  0.00    +0.150 C 
ATOM     20  C   LIG    1       -4.422  -5.684  -3.060  0.00  0.00    +0.090 A 
ATOM     21  N   LIG    1       -4.664  -6.273  -4.203  0.00  0.00    -0.300 NA
ATOM     22  N   LIG    1       -5.252  -5.337  -5.062  0.00  0.00    -0.370 N 
ATOM     23  C   LIG    1       -5.359  -4.169  -4.394  0.00  0.00    +0.100 A 
ATOM     24  C   LIG    1       -5.940  -2.887  -4.931  0.00  0.00    +0.140 C 
ATOM     25  C   LIG    1       -5.681  -5.582  -6.441  0.00  0.00    +0.350 C 
ATOM     26  C   LIG    1       -4.848  -4.355  -3.155  0.00  0.00    -0.230 A 
ENDBRANCH  18  26
ENDBRANCH   1  18
TORSDOF 4
