REMARK  Name = ZINCpk00000KafyP.0
REMARK                            x       y       z     vdW  Elec       q    Type
REMARK                         _______ _______ _______ _____ _____    ______ ____
ROOT
ATOM      1  C   LIG    1        4.454  -3.740  -1.416  0.00  0.00    +0.520 C 
ATOM      2  N   LIG    1        3.164  -3.362  -1.318  0.00  0.00    -0.620 N 
ATOM      3  C   LIG    1        2.081  -4.358  -1.306  0.00  0.00    +0.250 C 
ATOM      4  C   LIG    1        1.169  -4.067  -0.108  0.00  0.00    +0.240 C 
ATOM      5  O   LIG    1        0.770  -2.694  -0.143  0.00  0.00    -0.380 OA
ATOM      6  C   LIG    1        1.851  -1.767  -0.025  0.00  0.00    +0.270 C 
ATOM      7  C   LIG    1        2.797  -1.940  -1.219  0.00  0.00    +0.300 C 
ATOM      8  O   LIG    1        5.332  -2.905  -1.424  0.00  0.00    -0.510 OA
ENDROOT
BRANCH   6   9
ATOM      9  C   LIG    1        1.309  -0.361  -0.012  0.00  0.00    +0.180 A 
ATOM     10  N   LIG    1        2.012   0.739  -0.013  0.00  0.00    -0.270 NA
ATOM     11  N   LIG    1        1.224   1.756  -0.000  0.00  0.00    -0.290 NA
ATOM     12  C   LIG    1       -0.016   1.351   0.009  0.00  0.00    +0.190 A 
ATOM     13  N   LIG    1        0.002  -0.004   0.002  0.00  0.00    -0.560 N 
ATOM     14  H   LIG    1       -0.765  -0.598   0.006  0.00  0.00    +0.430 HD
BRANCH  12  15
ATOM     15  C   LIG    1       -1.242   2.227   0.020  0.00  0.00    +0.100 C 
ATOM     16  C   LIG    1       -2.340   1.558   0.850  0.00  0.00    +0.040 C 
ATOM     17  C   LIG    1       -1.737   2.429  -1.413  0.00  0.00    +0.040 C 
ENDBRANCH  12  15
ENDBRANCH   6   9
BRANCH   1  18
ATOM     18  C   LIG    1        4.804  -5.203  -1.517  0.00  0.00    +0.150 C 
BRANCH  18  26
ATOM     19  C   LIG    1        6.807  -5.531   0.916  0.00  0.00    +0.150 C 
ATOM     20  C   LIG    1        7.185  -5.500  -0.542  0.00  0.00    +0.090 A 
ATOM     21  N   LIG    1        8.397  -5.605  -1.023  0.00  0.00    -0.300 NA
ATOM     22  N   LIG    1        8.322  -5.530  -2.420  0.00  0.00    -0.370 N 
ATOM     23  C   LIG    1        7.024  -5.382  -2.759  0.00  0.00    +0.100 A 
ATOM     24  C   LIG    1        6.479  -5.264  -4.159  0.00  0.00    +0.140 C 
ATOM     25  C   LIG    1        9.452  -5.604  -3.349  0.00  0.00    +0.350 C 
ATOM     26  C   LIG    1        6.300  -5.355  -1.616  0.00  0.00    -0.230 A 
ENDBRANCH  18  26
ENDBRANCH   1  18
TORSDOF 4
