REMARK  Name = ZINCpk00000KafyP.2
REMARK                            x       y       z     vdW  Elec       q    Type
REMARK                         _______ _______ _______ _____ _____    ______ ____
ROOT
ATOM      1  C   LIG    1       -3.639   0.272   0.318  0.00  0.00    +0.520 C 
ATOM      2  N   LIG    1       -4.585  -0.098  -0.568  0.00  0.00    -0.620 N 
ATOM      3  C   LIG    1       -5.086   0.846  -1.579  0.00  0.00    +0.250 C 
ATOM      4  C   LIG    1       -5.016   0.159  -2.953  0.00  0.00    +0.240 C 
ATOM      5  O   LIG    1       -5.680  -1.105  -2.879  0.00  0.00    -0.380 OA
ATOM      6  C   LIG    1       -5.081  -2.030  -1.968  0.00  0.00    +0.260 C 
ATOM      7  C   LIG    1       -5.151  -1.456  -0.548  0.00  0.00    +0.280 C 
ATOM      8  O   LIG    1       -3.243  -0.519   1.148  0.00  0.00    -0.520 OA
ENDROOT
BRANCH   6   9
ATOM      9  C   LIG    1       -5.824  -3.340  -2.019  0.00  0.00    +0.290 A 
ATOM     10  N   LIG    1       -5.293  -4.529  -1.889  0.00  0.00    -0.530 NA
ATOM     11  C   LIG    1       -6.242  -5.460  -1.984  0.00  0.00    +0.240 A 
ATOM     12  N   LIG    1       -7.393  -4.874  -2.184  0.00  0.00    -0.300 NA
ATOM     13  N   LIG    1       -7.145  -3.492  -2.211  0.00  0.00    -0.460 N 
ATOM     14  H   LIG    1       -7.799  -2.787  -2.342  0.00  0.00    +0.440 HD
BRANCH  11  15
ATOM     15  C   LIG    1       -6.022  -6.947  -1.882  0.00  0.00    +0.100 C 
ATOM     16  C   LIG    1       -6.467  -7.619  -3.183  0.00  0.00    +0.050 C 
ATOM     17  C   LIG    1       -6.839  -7.505  -0.715  0.00  0.00    +0.050 C 
ENDBRANCH  11  15
ENDBRANCH   6   9
BRANCH   1  18
ATOM     18  C   LIG    1       -3.074   1.669   0.278  0.00  0.00    +0.150 C 
BRANCH  18  26
ATOM     19  C   LIG    1       -3.625   2.639   3.244  0.00  0.00    +0.150 C 
ATOM     20  C   LIG    1       -2.284   2.253   2.675  0.00  0.00    +0.090 A 
ATOM     21  N   LIG    1       -1.145   2.265   3.318  0.00  0.00    -0.300 NA
ATOM     22  N   LIG    1       -0.141   1.839   2.438  0.00  0.00    -0.370 N 
ATOM     23  C   LIG    1       -0.718   1.572   1.248  0.00  0.00    +0.100 A 
ATOM     24  C   LIG    1       -0.013   1.086   0.008  0.00  0.00    +0.140 C 
ATOM     25  C   LIG    1        1.283   1.706   2.755  0.00  0.00    +0.350 C 
ATOM     26  C   LIG    1       -2.042   1.824   1.365  0.00  0.00    -0.230 A 
ENDBRANCH  18  26
ENDBRANCH   1  18
TORSDOF 4
