REMARK  Name = ZINCkj000005jrpq.0
REMARK                            x       y       z     vdW  Elec       q    Type
REMARK                         _______ _______ _______ _____ _____    ______ ____
ROOT
ATOM      1  S   LIG    1        2.714   0.918  -0.015  0.00  0.00    +2.710 S 
ATOM      2  O   LIG    1        2.457  -0.370   0.527  0.00  0.00    -0.930 OA
ATOM      3  O   LIG    1        3.680   1.810   0.524  0.00  0.00    -0.930 OA
ENDROOT
BRANCH   1   9
ATOM      4  C   LIG    1       -2.056   5.434  -1.899  0.00  0.00    +0.050 C 
ATOM      5  C   LIG    1       -1.884   5.292  -0.385  0.00  0.00    +0.200 C 
ATOM      6  C   LIG    1       -0.387   5.312   0.005  0.00  0.00    +0.100 C 
ATOM      7  C   LIG    1       -0.046   3.835   0.016  0.00  0.00    -0.180 A 
ATOM      8  C   LIG    1        1.157   3.163   0.004  0.00  0.00    +0.180 A 
ATOM      9  C   LIG    1        1.177   1.780   0.000  0.00  0.00    -0.710 A 
ATOM     10  C   LIG    1       -0.013   1.076   0.008  0.00  0.00    +0.180 A 
ATOM     11  C   LIG    1       -1.220   1.746   0.017  0.00  0.00    -0.080 A 
ATOM     12 CL   LIG    1       -2.707   0.851   0.020  0.00  0.00    -0.040 Cl
ATOM     13  C   LIG    1       -1.248   3.139   0.031  0.00  0.00    +0.190 A 
ATOM     14  O   LIG    1       -2.310   3.991   0.056  0.00  0.00    -0.280 OA
ENDBRANCH   1   9
BRANCH   1  15
ATOM     15  N   LIG    1        3.129   0.683  -1.601  0.00  0.00    -1.010 NA
ATOM     16  C   LIG    1        3.928   1.604  -2.423  0.00  0.00    +0.300 C 
ATOM     17  C   LIG    1        4.034   0.985  -3.833  0.00  0.00    +0.070 C 
ATOM     18  C   LIG    1        2.815   0.026  -3.884  0.00  0.00    +0.170 C 
ATOM     19  C   LIG    1        2.763  -0.486  -2.421  0.00  0.00    +0.320 C 
BRANCH  18  20
ATOM     20  N   LIG    1        3.055  -1.081  -4.819  0.00  0.00    -0.630 N 
ATOM     21  H   LIG    1        3.192  -0.713  -5.748  0.00  0.00    +0.440 HD
ATOM     22  H   LIG    1        2.259  -1.702  -4.816  0.00  0.00    +0.440 HD
ATOM     23  H   LIG    1        3.879  -1.589  -4.534  0.00  0.00    +0.440 HD
ENDBRANCH  18  20
ENDBRANCH   1  15
TORSDOF 3
