REMARK  Name = ZINCtV00000lW1cF.0
REMARK                            x       y       z     vdW  Elec       q    Type
REMARK                         _______ _______ _______ _____ _____    ______ ____
ROOT
ATOM      1  N   LIG    1        0.002  -0.004   0.002  0.00  0.00    -0.620 N 
ATOM      2  H   LIG    1       -0.831  -0.500   0.007  0.00  0.00    +0.430 HD
ATOM      3  C   LIG    1       -0.016   1.344   0.009  0.00  0.00    +0.610 C 
ATOM      4  O   LIG    1        1.030   1.966   0.003  0.00  0.00    -0.480 OA
ENDROOT
BRANCH   1  11
ATOM      5  C   LIG    1        6.744  -3.551  -0.083  0.00  0.00    +0.110 C 
ATOM      6  C   LIG    1        5.286  -3.171  -0.067  0.00  0.00    -0.070 A 
ATOM      7  C   LIG    1        4.312  -4.158  -0.063  0.00  0.00    +0.030 A 
ATOM      8  C   LIG    1        2.981  -3.827  -0.048  0.00  0.00    -0.030 A 
ATOM      9  C   LIG    1        2.582  -2.473  -0.036  0.00  0.00    +0.100 A 
ATOM     10  N   LIG    1        1.335  -1.962  -0.021  0.00  0.00    -0.500 NA
ATOM     11  C   LIG    1        1.210  -0.679  -0.013  0.00  0.00    +0.310 A 
ATOM     12  S   LIG    1        2.790   0.090  -0.032  0.00  0.00    +0.180 S 
ATOM     13  C   LIG    1        3.574  -1.488  -0.041  0.00  0.00    -0.200 A 
ATOM     14  C   LIG    1        1.938  -4.915  -0.044  0.00  0.00    +0.100 C 
ATOM     15  C   LIG    1        4.920  -1.843  -0.056  0.00  0.00    +0.050 A 
ENDBRANCH   1  11
BRANCH   3  16
ATOM     16  C   LIG    1       -1.294   2.058   0.019  0.00  0.00    -0.080 A 
ATOM     17  C   LIG    1       -1.456   3.427   0.028  0.00  0.00    +0.080 A 
ATOM     18  C   LIG    1       -2.833   3.671   0.035  0.00  0.00    -0.030 A 
ATOM     19  C   LIG    1       -3.456   2.455   0.032  0.00  0.00    +0.080 A 
ATOM     20  O   LIG    1       -2.519   1.492   0.016  0.00  0.00    -0.160 OA
BRANCH  19  21
ATOM     21  C   LIG    1       -4.916   2.236   0.038  0.00  0.00    -0.030 A 
ATOM     22  C   LIG    1       -5.789   3.326   0.048  0.00  0.00    +0.080 A 
ATOM     23  C   LIG    1       -7.152   3.115   0.052  0.00  0.00    +0.040 A 
ATOM     24  C   LIG    1       -7.655   1.826   0.047  0.00  0.00    +0.090 A 
ATOM     25  C   LIG    1       -6.796   0.741   0.037  0.00  0.00    -0.180 A 
ATOM     26  C   LIG    1       -5.431   0.938   0.027  0.00  0.00    +0.090 A 
BRANCH  25  27
ATOM     27  C   LIG    1       -7.353  -0.659   0.030  0.00  0.00    +0.510 C 
ATOM     28  F   LIG    1       -6.908  -1.344   1.167  0.00  0.00    -0.170 F 
ATOM     29  F   LIG    1       -6.918  -1.329  -1.118  0.00  0.00    -0.170 F 
ATOM     30  F   LIG    1       -8.751  -0.605   0.037  0.00  0.00    -0.170 F 
ENDBRANCH  25  27
ENDBRANCH  19  21
ENDBRANCH   3  16
TORSDOF 4
