REMARK  Name = ZINCah0000002BJg.0
REMARK                            x       y       z     vdW  Elec       q    Type
REMARK                         _______ _______ _______ _____ _____    ______ ____
ROOT
ATOM      1  C   LIG    1        3.164   3.233  -0.012  0.00  0.00    +0.130 A 
ATOM      2  C   LIG    1        3.985   2.127  -0.025  0.00  0.00    +0.220 A 
ATOM      3  N   LIG    1        3.477   0.882  -0.027  0.00  0.00    -0.470 N 
ATOM      4  H   LIG    1        4.076   0.119  -0.036  0.00  0.00    +0.420 HD
ATOM      5  C   LIG    1        2.122   0.680  -0.015  0.00  0.00    +0.050 A 
ATOM      6  C   LIG    1        1.315  -0.450  -0.013  0.00  0.00    -0.180 A 
ATOM      7  C   LIG    1        0.002  -0.004   0.002  0.00  0.00    +0.270 A 
ATOM      8  N   LIG    1       -0.016   1.317   0.009  0.00  0.00    -0.530 NA
ATOM      9  C   LIG    1        1.239   1.794  -0.000  0.00  0.00    +0.060 A 
ATOM     10  C   LIG    1        1.778   3.082   0.001  0.00  0.00    +0.110 A 
ENDROOT
BRANCH   1  11
ATOM     11  N   LIG    1        3.725   4.518  -0.011  0.00  0.00    -0.880 N 
ATOM     12  H   LIG    1        3.150   5.299  -0.002  0.00  0.00    +0.410 HD
ATOM     13  H   LIG    1        4.689   4.627  -0.019  0.00  0.00    +0.400 HD
ENDBRANCH   1  11
TORSDOF 1
