REMARK  Name = ZINCbw0000000Hi1.0
REMARK                            x       y       z     vdW  Elec       q    Type
REMARK                         _______ _______ _______ _____ _____    ______ ____
ROOT
ATOM      1  C   LIG    1        2.028   1.134  -1.242  0.00  0.00    -0.120 A 
ATOM      2  C   LIG    1        1.851  -0.140  -1.747  0.00  0.00    +0.070 A 
ATOM      3  C   LIG    1        2.528  -0.533  -2.887  0.00  0.00    +0.010 A 
ATOM      4  C   LIG    1        3.391   0.347  -3.517  0.00  0.00    +0.130 A 
ATOM      5  C   LIG    1        3.571   1.623  -3.007  0.00  0.00    -0.130 A 
ATOM      6 BR   LIG    1        4.749   2.827  -3.866  0.00  0.00    -0.020 Br
ATOM      7  F   LIG    1        4.056  -0.037  -4.629  0.00  0.00    -0.120 F 
ATOM      8  C   LIG    1        2.890   2.014  -1.869  0.00  0.00    +0.100 A 
ENDROOT
BRANCH   1  10
ATOM      9  C   LIG    1        2.064   1.114   1.238  0.00  0.00    +0.020 C 
ATOM     10  C   LIG    1        1.286   1.562  -0.002  0.00  0.00    +0.260 C 
BRANCH  10  11
ATOM     11  O   LIG    1       -0.011   0.963   0.007  0.00  0.00    -0.550 OA
ATOM     12  H   LIG    1        0.002  -0.004   0.002  0.00  0.00    +0.380 HD
ENDBRANCH  10  11
ENDBRANCH   1  10
TORSDOF 2
