REMARK  Name = ZINCnE000001U4l2.0
REMARK                            x       y       z     vdW  Elec       q    Type
REMARK                         _______ _______ _______ _____ _____    ______ ____
ROOT
ATOM      1  O   LIG    1        6.309   2.868  -4.371  0.00  0.00    -0.500 OA
ATOM      2  C   LIG    1        6.282   1.770  -4.884  0.00  0.00    +0.530 C 
ATOM      3  C   LIG    1        5.252   0.701  -4.590  0.00  0.00    +0.200 C 
ATOM      4  C   LIG    1        5.881  -0.596  -5.148  0.00  0.00    +0.060 C 
ATOM      5  C   LIG    1        6.842  -0.043  -6.224  0.00  0.00    +0.260 C 
ATOM      6  N   LIG    1        7.162   1.324  -5.797  0.00  0.00    -0.570 N 
ENDROOT
BRANCH   6   7
ATOM      7  C   LIG    1        8.245   2.069  -6.279  0.00  0.00    +0.200 A 
ATOM      8  C   LIG    1        8.394   3.398  -5.909  0.00  0.00    +0.020 A 
ATOM      9  C   LIG    1        9.467   4.130  -6.381  0.00  0.00    +0.070 A 
ATOM     10  C   LIG    1       10.386   3.543  -7.232  0.00  0.00    -0.070 A 
ATOM     11  C   LIG    1       10.236   2.218  -7.608  0.00  0.00    +0.000 A 
ATOM     12 CL   LIG    1       11.392   1.483  -8.675  0.00  0.00    -0.050 Cl
ATOM     13 CL   LIG    1       11.729   4.467  -7.829  0.00  0.00    -0.060 Cl
ATOM     14  C   LIG    1        9.168   1.480  -7.133  0.00  0.00    -0.010 A 
ENDBRANCH   6   7
BRANCH   3  15
ATOM     15  N   LIG    1        5.031   0.585  -3.147  0.00  0.00    -0.670 NA
ATOM     16  C   LIG    1        3.824   0.694  -2.659  0.00  0.00    +0.450 A 
ATOM     17  N   LIG    1        2.673   0.916  -3.369  0.00  0.00    -0.540 NA
ATOM     18  N   LIG    1        1.629   0.953  -2.433  0.00  0.00    -0.300 NA
ATOM     19  C   LIG    1        2.136   0.774  -1.260  0.00  0.00    +0.120 A 
ATOM     20  O   LIG    1        3.470   0.610  -1.360  0.00  0.00    -0.290 OA
BRANCH  19  21
ATOM     21  C   LIG    1        1.353   0.747   0.028  0.00  0.00    +0.070 C 
ATOM     22  C   LIG    1        0.021   1.500   0.061  0.00  0.00    +0.040 C 
ATOM     23  C   LIG    1        0.035  -0.030   0.037  0.00  0.00    +0.040 C 
ENDBRANCH  19  21
ENDBRANCH   3  15
TORSDOF 3
