REMARK  Name = ZINCtV00000L6laC.0
REMARK                            x       y       z     vdW  Elec       q    Type
REMARK                         _______ _______ _______ _____ _____    ______ ____
ROOT
ATOM      1  C   LIG    1       -4.413   0.666   2.324  0.00  0.00    +0.440 A 
ATOM      2  C   LIG    1       -3.104   1.052   2.123  0.00  0.00    -0.070 A 
ATOM      3  C   LIG    1       -2.386   0.499   1.063  0.00  0.00    +0.230 A 
ATOM      4  N   LIG    1       -2.955  -0.376   0.261  0.00  0.00    -0.460 NA
ATOM      5  C   LIG    1       -4.221  -0.764   0.445  0.00  0.00    +0.300 A 
ATOM      6  C   LIG    1       -5.044  -1.663  -0.245  0.00  0.00    -0.210 A 
ATOM      7  C   LIG    1       -6.287  -1.664   0.399  0.00  0.00    +0.140 A 
ATOM      8  N   LIG    1       -6.241  -0.831   1.410  0.00  0.00    -0.300 NA
ATOM      9  C   LIG    1       -7.483  -2.487  -0.005  0.00  0.00    +0.180 C 
ATOM     10  N   LIG    1       -4.969  -0.251   1.471  0.00  0.00    -0.320 N 
ENDROOT
BRANCH   6  11
ATOM     11  C   LIG    1       -4.669  -2.463  -1.434  0.00  0.00    +0.020 A 
ATOM     12  C   LIG    1       -4.368  -1.828  -2.639  0.00  0.00    +0.040 A 
ATOM     13  C   LIG    1       -4.014  -2.579  -3.741  0.00  0.00    +0.020 A 
ATOM     14  C   LIG    1       -3.969  -3.960  -3.656  0.00  0.00    -0.040 A 
ATOM     15  C   LIG    1       -4.272  -4.595  -2.464  0.00  0.00    +0.020 A 
ATOM     16 CL   LIG    1       -3.531  -4.898  -5.050  0.00  0.00    -0.070 Cl
ATOM     17  C   LIG    1       -4.622  -3.855  -1.354  0.00  0.00    +0.030 A 
ENDBRANCH   6  11
BRANCH   3  18
ATOM     18  C   LIG    1       -0.955   0.910   0.831  0.00  0.00    -0.020 C 
ATOM     19  C   LIG    1       -0.892   2.417   0.577  0.00  0.00    +0.050 C 
ATOM     20  C   LIG    1       -0.119   0.566   2.066  0.00  0.00    +0.050 C 
ATOM     21  C   LIG    1       -0.401   0.164  -0.384  0.00  0.00    +0.050 C 
ENDBRANCH   3  18
BRANCH   1  22
ATOM     22  N   LIG    1       -5.149   1.196   3.363  0.00  0.00    -0.670 N 
ATOM     23  H   LIG    1       -4.840   1.095   4.277  0.00  0.00    +0.420 HD
BRANCH  22  29
ATOM     24  C   LIG    1       -9.232   3.376   5.018  0.00  0.00    +0.090 C 
ATOM     25  C   LIG    1       -8.339   2.947   3.882  0.00  0.00    -0.050 A 
ATOM     26  C   LIG    1       -8.698   3.228   2.577  0.00  0.00    -0.030 A 
ATOM     27  C   LIG    1       -7.882   2.836   1.532  0.00  0.00    +0.050 A 
ATOM     28  C   LIG    1       -6.702   2.166   1.789  0.00  0.00    -0.050 A 
ATOM     29  C   LIG    1       -6.340   1.877   3.099  0.00  0.00    +0.190 A 
ATOM     30  C   LIG    1       -7.162   2.273   4.146  0.00  0.00    -0.050 A 
ENDBRANCH  22  29
ENDBRANCH   1  22
TORSDOF 4
