REMARK  Name = ZINCqH0000006ZO9.0
REMARK                            x       y       z     vdW  Elec       q    Type
REMARK                         _______ _______ _______ _____ _____    ______ ____
ROOT
ATOM      1  S   LIG    1       -6.359   0.588   0.036  0.00  0.00    +0.150 S 
ENDROOT
BRANCH   1   5
ATOM      2  C   LIG    1       -2.502   1.006   0.020  0.00  0.00    +0.220 A 
ATOM      3  N   LIG    1       -2.631  -0.299   0.008  0.00  0.00    -0.270 NA
ATOM      4  N   LIG    1       -3.881  -0.605   0.018  0.00  0.00    -0.290 NA
ATOM      5  C   LIG    1       -4.599   0.494   0.027  0.00  0.00    +0.120 A 
ATOM      6  O   LIG    1       -3.745   1.535   0.029  0.00  0.00    -0.200 OA
BRANCH   2  10
ATOM      7  C   LIG    1        1.153   3.171   0.008  0.00  0.00    +0.160 A 
ATOM      8  C   LIG    1        1.171   1.782   0.000  0.00  0.00    +0.000 A 
ATOM      9  C   LIG    1       -0.013   1.076   0.008  0.00  0.00    +0.130 A 
ATOM     10  C   LIG    1       -1.231   1.758   0.017  0.00  0.00    -0.070 A 
ATOM     11  C   LIG    1       -1.244   3.155   0.029  0.00  0.00    +0.100 A 
ATOM     12  C   LIG    1       -0.056   3.854   0.022  0.00  0.00    -0.070 A 
BRANCH   7  14
ATOM     13  C   LIG    1        2.232   5.289   0.009  0.00  0.00    +0.250 C 
ATOM     14  O   LIG    1        2.322   3.863   0.001  0.00  0.00    -0.310 OA
ENDBRANCH   7  14
ENDBRANCH   2  10
ENDBRANCH   1   5
BRANCH   1  15
ATOM     15  C   LIG    1       -6.769  -1.175   0.028  0.00  0.00    +0.090 C 
BRANCH  15  16
ATOM     16  C   LIG    1       -8.266  -1.343   0.035  0.00  0.00    +0.540 C 
ATOM     17  N   LIG    1       -8.806  -2.578   0.030  0.00  0.00    -0.720 N 
ATOM     18  H   LIG    1       -8.230  -3.358   0.024  0.00  0.00    +0.400 HD
ATOM     19  O   LIG    1       -8.986  -0.366   0.043  0.00  0.00    -0.520 OA
BRANCH  17  20
ATOM     20  C   LIG    1      -10.262  -2.741   0.036  0.00  0.00    +0.240 C 
ATOM     21  C   LIG    1      -10.776  -2.680   1.476  0.00  0.00    +0.010 C 
ATOM     22  C   LIG    1      -12.296  -2.851   1.483  0.00  0.00    +0.010 C 
ATOM     23  C   LIG    1      -12.660  -4.203   0.867  0.00  0.00    +0.010 C 
ATOM     24  C   LIG    1      -12.146  -4.264  -0.572  0.00  0.00    -0.010 C 
ATOM     25  C   LIG    1      -12.511  -5.616  -1.188  0.00  0.00    +0.030 C 
ATOM     26  C   LIG    1      -10.626  -4.093  -0.579  0.00  0.00    -0.010 C 
ATOM     27  C   LIG    1       -9.984  -5.215   0.239  0.00  0.00    +0.020 C 
ENDBRANCH  17  20
ENDBRANCH  15  16
ENDBRANCH   1  15
TORSDOF 6
