REMARK  Name = ZINCwl0000000t2F.0
REMARK                            x       y       z     vdW  Elec       q    Type
REMARK                         _______ _______ _______ _____ _____    ______ ____
ROOT
ATOM      1  C   LIG    1        3.016   3.440  -0.008  0.00  0.00    +0.510 C 
ATOM      2  N   LIG    1        1.699   3.155   0.003  0.00  0.00    -0.610 N 
ATOM      3  H   LIG    1        1.047   3.873   0.013  0.00  0.00    +0.430 HD
ATOM      4  O   LIG    1        3.832   2.541  -0.021  0.00  0.00    -0.490 OA
ENDROOT
BRANCH   2   5
ATOM      5  C   LIG    1        1.275   1.830  -0.000  0.00  0.00    +0.320 A 
ATOM      6  C   LIG    1        2.074   0.727  -0.014  0.00  0.00    -0.080 A 
ATOM      7  C   LIG    1        1.249  -0.401  -0.012  0.00  0.00    +0.120 A 
ATOM      8  N   LIG    1        0.002  -0.004   0.002  0.00  0.00    -0.260 NA
ATOM      9  N   LIG    1       -0.017   1.397   0.010  0.00  0.00    -0.340 N 
BRANCH   9  10
ATOM     10  C   LIG    1       -1.157   2.205   0.020  0.00  0.00    +0.360 A 
ATOM     11  C   LIG    1       -2.353   1.714  -0.486  0.00  0.00    +0.000 A 
ATOM     12  C   LIG    1       -3.475   2.525  -0.471  0.00  0.00    +0.100 A 
ATOM     13  C   LIG    1       -3.359   3.804   0.053  0.00  0.00    -0.030 A 
ATOM     14  C   LIG    1       -2.137   4.227   0.540  0.00  0.00    +0.300 A 
ATOM     15  N   LIG    1       -1.087   3.430   0.516  0.00  0.00    -0.520 NA
ENDBRANCH   9  10
BRANCH   7  16
ATOM     16  C   LIG    1        1.716  -1.834  -0.024  0.00  0.00    +0.010 C 
ATOM     17  C   LIG    1        2.834  -1.996  -1.056  0.00  0.00    +0.050 C 
ATOM     18  C   LIG    1        0.546  -2.749  -0.391  0.00  0.00    +0.040 C 
ATOM     19  C   LIG    1        2.244  -2.210   1.362  0.00  0.00    +0.050 C 
ENDBRANCH   7  16
ENDBRANCH   2   5
BRANCH   1  22
ATOM     20  N   LIG    1        4.789   5.148  -0.016  0.00  0.00    -0.700 N 
ATOM     21  H   LIG    1        5.441   4.429  -0.026  0.00  0.00    +0.420 HD
ATOM     22  C   LIG    1        3.472   4.862  -0.005  0.00  0.00    +0.520 C 
ATOM     23  O   LIG    1        2.656   5.761   0.008  0.00  0.00    -0.500 OA
BRANCH  20  24
ATOM     24  C   LIG    1        5.236   6.543  -0.013  0.00  0.00    +0.310 C 
BRANCH  24  26
ATOM     25  C   LIG    1        7.281   6.001  -1.343  0.00  0.00    +0.060 C 
ATOM     26  C   LIG    1        6.765   6.588  -0.027  0.00  0.00    -0.020 C 
BRANCH  26  27
ATOM     27  C   LIG    1        7.234   8.039   0.102  0.00  0.00    +0.280 C 
BRANCH  27  28
ATOM     28  N   LIG    1        8.698   8.073   0.208  0.00  0.00    -0.390 N 
ATOM     29  C   LIG    1        9.114   7.417   1.455  0.00  0.00    +0.270 C 
ATOM     30  C   LIG    1       10.640   7.436   1.558  0.00  0.00    +0.200 C 
ATOM     31  N   LIG    1       11.113   8.827   1.535  0.00  0.00    -0.540 NA
ATOM     32  C   LIG    1       10.683   9.505   0.304  0.00  0.00    +0.210 C 
ATOM     33  C   LIG    1       12.572   8.890   1.689  0.00  0.00    +0.220 C 
ATOM     34  C   LIG    1        9.156   9.469   0.212  0.00  0.00    +0.280 C 
ATOM     35  H   LIG    1        9.104   7.588  -0.578  0.00  0.00    +0.420 HD
ENDBRANCH  27  28
ENDBRANCH  26  27
ENDBRANCH  24  26
ENDBRANCH  20  24
ENDBRANCH   1  22
TORSDOF 8
