REMARK  Name = ZINCwl0000000t2F.1
REMARK                            x       y       z     vdW  Elec       q    Type
REMARK                         _______ _______ _______ _____ _____    ______ ____
ROOT
ATOM      1  C   LIG    1        0.126   2.333   5.380  0.00  0.00    +0.510 C 
ATOM      2  N   LIG    1       -1.013   2.694   4.757  0.00  0.00    -0.610 N 
ATOM      3  H   LIG    1       -1.746   3.072   5.267  0.00  0.00    +0.430 HD
ATOM      4  O   LIG    1        1.043   1.859   4.741  0.00  0.00    -0.490 OA
ENDROOT
BRANCH   2   5
ATOM      5  C   LIG    1       -1.139   2.523   3.382  0.00  0.00    +0.320 A 
ATOM      6  C   LIG    1       -0.199   2.002   2.545  0.00  0.00    -0.080 A 
ATOM      7  C   LIG    1       -0.724   2.012   1.250  0.00  0.00    +0.120 A 
ATOM      8  N   LIG    1       -1.934   2.509   1.296  0.00  0.00    -0.260 NA
ATOM      9  N   LIG    1       -2.226   2.841   2.625  0.00  0.00    -0.340 N 
BRANCH   9  10
ATOM     10  C   LIG    1       -3.419   3.400   3.092  0.00  0.00    +0.360 A 
ATOM     11  C   LIG    1       -4.217   4.139   2.228  0.00  0.00    +0.000 A 
ATOM     12  C   LIG    1       -5.396   4.687   2.702  0.00  0.00    +0.100 A 
ATOM     13  C   LIG    1       -5.738   4.473   4.030  0.00  0.00    -0.030 A 
ATOM     14  C   LIG    1       -4.897   3.727   4.833  0.00  0.00    +0.300 A 
ATOM     15  N   LIG    1       -3.781   3.214   4.351  0.00  0.00    -0.520 NA
ENDBRANCH   9  10
BRANCH   7  16
ATOM     16  C   LIG    1       -0.019   1.526   0.010  0.00  0.00    +0.010 C 
ATOM     17  C   LIG    1       -0.759   2.033  -1.229  0.00  0.00    +0.040 C 
ATOM     18  C   LIG    1        1.417   2.055  -0.000  0.00  0.00    +0.050 C 
ATOM     19  C   LIG    1        0.002  -0.004   0.002  0.00  0.00    +0.050 C 
ENDBRANCH   7  16
ENDBRANCH   2   5
BRANCH   1  22
ATOM     20  N   LIG    1        1.400   2.155   7.478  0.00  0.00    -0.700 N 
ATOM     21  H   LIG    1        2.133   1.777   6.968  0.00  0.00    +0.420 HD
ATOM     22  C   LIG    1        0.261   2.516   6.856  0.00  0.00    +0.520 C 
ATOM     23  O   LIG    1       -0.656   2.990   7.494  0.00  0.00    -0.500 OA
BRANCH  20  24
ATOM     24  C   LIG    1        1.532   2.335   8.926  0.00  0.00    +0.280 C 
BRANCH  24  26
ATOM     25  C   LIG    1        3.992   2.739   8.759  0.00  0.00    +0.040 C 
ATOM     26  C   LIG    1        2.911   1.850   9.377  0.00  0.00    -0.020 C 
BRANCH  26  27
ATOM     27  C   LIG    1        3.003   1.921  10.903  0.00  0.00    +0.210 C 
BRANCH  27  28
ATOM     28  N   LIG    1        4.280   1.344  11.343  0.00  0.00    -0.540 NA
ATOM     29  C   LIG    1        4.332  -0.098  11.062  0.00  0.00    +0.210 C 
ATOM     30  C   LIG    1        5.697  -0.648  11.481  0.00  0.00    +0.280 C 
ATOM     31  N   LIG    1        5.905  -0.403  12.914  0.00  0.00    -0.390 N 
ATOM     32  C   LIG    1        5.875   1.042  13.175  0.00  0.00    +0.280 C 
ATOM     33  C   LIG    1        7.208  -0.947  13.319  0.00  0.00    +0.310 C 
ATOM     34  H   LIG    1        5.173  -0.855  13.442  0.00  0.00    +0.420 HD
ATOM     35  C   LIG    1        4.512   1.606  12.771  0.00  0.00    +0.210 C 
ENDBRANCH  27  28
ENDBRANCH  26  27
ENDBRANCH  24  26
ENDBRANCH  20  24
ENDBRANCH   1  22
TORSDOF 8
