REMARK  Name = ZINCpk00000xIdgR.0
REMARK                            x       y       z     vdW  Elec       q    Type
REMARK                         _______ _______ _______ _____ _____    ______ ____
ROOT
ATOM      1  C   LIG    1       -1.201   5.673  -2.731  0.00  0.00    +0.110 A 
ATOM      2  C   LIG    1       -0.032   4.995  -2.441  0.00  0.00    -0.030 A 
ATOM      3  C   LIG    1       -0.036   3.921  -1.558  0.00  0.00    -0.060 A 
ATOM      4  C   LIG    1       -1.215   3.534  -0.962  0.00  0.00    -0.090 A 
ATOM      5  C   LIG    1       -1.283   2.398   0.021  0.00  0.00    +0.340 C 
ATOM      6  N   LIG    1       -0.020   1.652   0.011  0.00  0.00    -1.010 NA
ATOM      7  C   LIG    1        1.226   2.435   0.003  0.00  0.00    +0.300 C 
ATOM      8  C   LIG    1       -2.394   4.208  -1.254  0.00  0.00    -0.030 A 
ATOM      9  C   LIG    1        1.276   3.226  -1.302  0.00  0.00    +0.080 C 
ATOM     10  C   LIG    1       -2.394   5.274  -2.134  0.00  0.00    +0.100 A 
ENDROOT
BRANCH   6  11
ATOM     11  S   LIG    1        0.002  -0.004   0.002  0.00  0.00    +2.790 S 
ATOM     12  O   LIG    1        1.252  -0.385  -0.556  0.00  0.00    -0.970 OA
ATOM     13  O   LIG    1       -1.247  -0.419  -0.533  0.00  0.00    -0.970 OA
BRANCH  11  14
ATOM     14  N   LIG    1        0.024  -0.503   1.581  0.00  0.00    -1.010 NA
ATOM     15  C   LIG    1        1.295  -0.720   2.289  0.00  0.00    +0.270 C 
ATOM     16  C   LIG    1        1.236   0.042   3.623  0.00  0.00    +0.140 C 
ATOM     17  O   LIG    1        0.048  -0.332   4.324  0.00  0.00    -0.370 OA
ATOM     18  C   LIG    1       -1.164   0.010   3.646  0.00  0.00    +0.200 C 
ATOM     19  C   LIG    1       -1.192   1.516   3.379  0.00  0.00    +0.010 C 
ATOM     20  C   LIG    1        2.461  -0.315   4.468  0.00  0.00    +0.060 C 
ATOM     21  C   LIG    1       -1.228  -0.748   2.315  0.00  0.00    +0.270 C 
ENDBRANCH  11  14
ENDBRANCH   6  11
BRANCH   1  23
ATOM     22  C   LIG    1        0.074   7.074  -4.167  0.00  0.00    +0.250 C 
ATOM     23  O   LIG    1       -1.187   6.723  -3.594  0.00  0.00    -0.310 OA
ENDBRANCH   1  23
BRANCH  10  24
ATOM     24  O   LIG    1       -3.552   5.930  -2.415  0.00  0.00    -0.310 OA
ATOM     25  C   LIG    1       -4.736   5.463  -1.764  0.00  0.00    +0.240 C 
ENDBRANCH  10  24
TORSDOF 4
