REMARK  Name = ZINCrD000000C8IO.0
REMARK                            x       y       z     vdW  Elec       q    Type
REMARK                         _______ _______ _______ _____ _____    ______ ____
ROOT
ATOM      1  O   LIG    1        0.003  -0.004   0.006  0.00  0.00    -0.510 OA
ATOM      2  C   LIG    1       -0.014   1.209   0.006  0.00  0.00    +0.520 C 
ATOM      3  N   LIG    1       -1.191   1.867   0.018  0.00  0.00    -0.650 N 
ATOM      4  H   LIG    1       -1.205   2.833   0.098  0.00  0.00    +0.420 HD
ENDROOT
BRANCH   3   5
ATOM      5  C   LIG    1       -2.389   1.156  -0.086  0.00  0.00    +0.170 A 
ATOM      6  C   LIG    1       -2.413  -0.080  -0.693  0.00  0.00    +0.030 A 
ATOM      7  C   LIG    1       -3.600  -0.798  -0.802  0.00  0.00    +0.040 A 
ATOM      8  C   LIG    1       -4.769  -0.299  -0.313  0.00  0.00    +0.010 A 
ATOM      9  C   LIG    1       -4.786   0.958   0.313  0.00  0.00    -0.080 A 
ATOM     10  C   LIG    1       -5.977   1.502   0.829  0.00  0.00    +0.080 A 
ATOM     11  C   LIG    1       -5.917   2.722   1.440  0.00  0.00    -0.030 A 
ATOM     12  C   LIG    1       -4.702   3.399   1.522  0.00  0.00    +0.290 A 
ATOM     13  N   LIG    1       -3.596   2.891   1.036  0.00  0.00    -0.480 NA
ATOM     14  C   LIG    1       -3.584   1.698   0.436  0.00  0.00    +0.110 A 
ENDBRANCH   3   5
BRANCH   2  15
ATOM     15  C   LIG    1        1.280   1.980  -0.014  0.00  0.00    -0.010 C 
ATOM     16  C   LIG    1        1.331   2.860  -1.266  0.00  0.00    +0.040 C 
ATOM     17  C   LIG    1        2.631   3.668  -1.271  0.00  0.00    +0.030 C 
ATOM     18  C   LIG    1        3.824   2.708  -1.305  0.00  0.00    +0.290 C 
ATOM     19  N   LIG    1        3.705   1.765  -0.185  0.00  0.00    -0.990 NA
ATOM     20  C   LIG    1        2.458   1.002  -0.033  0.00  0.00    +0.330 C 
BRANCH  19  21
ATOM     21  S   LIG    1        4.951   1.566   0.887  0.00  0.00    +2.710 S 
ATOM     22  O   LIG    1        6.133   1.965   0.207  0.00  0.00    -0.950 OA
ATOM     23  O   LIG    1        4.783   0.278   1.463  0.00  0.00    -0.940 OA
BRANCH  21  24
ATOM     24  C   LIG    1        4.710   2.728   2.189  0.00  0.00    -0.800 A 
ATOM     25  C   LIG    1        4.016   2.500   3.305  0.00  0.00    +0.160 A 
ATOM     26  C   LIG    1        3.963   3.565   4.188  0.00  0.00    -0.010 A 
ATOM     27  C   LIG    1        4.615   4.658   3.788  0.00  0.00    +0.000 A 
ATOM     28  S   LIG    1        5.354   4.365   2.220  0.00  0.00    +0.220 S 
ENDBRANCH  21  24
ENDBRANCH  19  21
ENDBRANCH   2  15
TORSDOF 4
