REMARK  Name = ZINCrD0000071bFO.0
REMARK                            x       y       z     vdW  Elec       q    Type
REMARK                         _______ _______ _______ _____ _____    ______ ____
ROOT
ATOM      1  N   LIG    1       -0.288   1.272  -2.443  0.00  0.00    -0.670 N 
ATOM      2  H   LIG    1        0.546   0.789  -2.544  0.00  0.00    +0.410 HD
ATOM      3  C   LIG    1       -0.743   1.583  -1.213  0.00  0.00    +0.520 C 
ATOM      4  O   LIG    1       -1.742   2.260  -1.088  0.00  0.00    -0.490 OA
ENDROOT
BRANCH   1   8
ATOM      5  C   LIG    1       -2.471   2.386  -5.812  0.00  0.00    -0.080 A 
ATOM      6  C   LIG    1       -2.445   3.212  -4.703  0.00  0.00    +0.030 A 
ATOM      7  C   LIG    1       -1.722   2.845  -3.585  0.00  0.00    +0.020 A 
ATOM      8  C   LIG    1       -1.022   1.646  -3.575  0.00  0.00    +0.130 A 
ATOM      9  C   LIG    1       -1.045   0.822  -4.692  0.00  0.00    -0.010 A 
ATOM     10  C   LIG    1       -1.774   1.192  -5.806  0.00  0.00    +0.030 A 
BRANCH   5  12
ATOM     11  C   LIG    1       -2.725   4.117  -7.570  0.00  0.00    +0.040 C 
ATOM     12  C   LIG    1       -3.261   2.789  -7.031  0.00  0.00    -0.030 C 
ATOM     13  C   LIG    1       -4.735   2.949  -6.654  0.00  0.00    +0.040 C 
ATOM     14  C   LIG    1       -3.124   1.710  -8.107  0.00  0.00    +0.030 C 
ENDBRANCH   5  12
ENDBRANCH   1   8
BRANCH   3  15
ATOM     15  C   LIG    1       -0.009   1.091   0.008  0.00  0.00    +0.270 C 
BRANCH  15  16
ATOM     16  O   LIG    1       -0.690   1.556   1.203  0.00  0.00    -0.320 OA
BRANCH  16  17
ATOM     17  C   LIG    1       -0.160   1.202   2.384  0.00  0.00    +0.480 C 
ATOM     18  O   LIG    1        0.840   0.525   2.418  0.00  0.00    -0.470 OA
BRANCH  17  19
ATOM     19  C   LIG    1       -0.813   1.647   3.667  0.00  0.00    +0.200 C 
ATOM     20  C   LIG    1       -0.708   3.173   3.798  0.00  0.00    +0.270 C 
ATOM     21  O   LIG    1       -1.324   3.560   5.031  0.00  0.00    -0.290 OA
ATOM     22  C   LIG    1       -0.998   2.832   6.133  0.00  0.00    +0.050 A 
ATOM     23  C   LIG    1       -1.260   3.349   7.393  0.00  0.00    +0.030 A 
ATOM     24  C   LIG    1       -0.942   2.617   8.522  0.00  0.00    +0.030 A 
ATOM     25  C   LIG    1       -0.360   1.370   8.399  0.00  0.00    +0.030 A 
ATOM     26  C   LIG    1       -0.093   0.850   7.146  0.00  0.00    +0.030 A 
ATOM     27  C   LIG    1       -0.410   1.578   6.009  0.00  0.00    +0.050 A 
ATOM     28  O   LIG    1       -0.140   1.054   4.783  0.00  0.00    -0.280 OA
ENDBRANCH  17  19
ENDBRANCH  16  17
ENDBRANCH  15  16
ENDBRANCH   3  15
TORSDOF 6
