REMARK  Name = ZINCqH0000007aej.0
REMARK                            x       y       z     vdW  Elec       q    Type
REMARK                         _______ _______ _______ _____ _____    ______ ____
ROOT
ATOM      1  N   LIG    1       -0.453   1.393   3.718  0.00  0.00    -0.610 N 
ATOM      2  C   LIG    1        0.000   1.080   2.488  0.00  0.00    +0.520 C 
ATOM      3  O   LIG    1        0.994   0.397   2.363  0.00  0.00    -0.540 OA
ATOM      4  C   LIG    1       -1.654   2.218   3.868  0.00  0.00    +0.290 C 
ENDROOT
BRANCH   1   5
ATOM      5  C   LIG    1        0.256   0.907   4.905  0.00  0.00    +0.350 C 
BRANCH   5   9
ATOM      6  C   LIG    1        3.229   3.758   6.056  0.00  0.00    +0.170 A 
ATOM      7  C   LIG    1        3.588   2.628   5.335  0.00  0.00    -0.120 A 
ATOM      8  C   LIG    1        2.626   1.706   4.969  0.00  0.00    +0.120 A 
ATOM      9  C   LIG    1        1.303   1.912   5.310  0.00  0.00    -0.180 A 
ATOM     10  C   LIG    1        0.939   3.041   6.032  0.00  0.00    +0.180 A 
ATOM     11  C   LIG    1        1.903   3.964   6.405  0.00  0.00    -0.110 A 
BRANCH   6  13
ATOM     12  C   LIG    1        5.522   4.385   6.028  0.00  0.00    +0.250 C 
ATOM     13  O   LIG    1        4.176   4.661   6.421  0.00  0.00    -0.320 OA
ENDBRANCH   6  13
BRANCH  10  14
ATOM     14  O   LIG    1       -0.362   3.240   6.371  0.00  0.00    -0.310 OA
ATOM     15  C   LIG    1       -0.664   4.423   7.114  0.00  0.00    +0.240 C 
ENDBRANCH  10  14
ENDBRANCH   5   9
ENDBRANCH   1   5
BRANCH   2  16
ATOM     16  C   LIG    1       -0.729   1.579   1.267  0.00  0.00    +0.040 C 
BRANCH  16  17
ATOM     17  C   LIG    1       -0.013   1.086   0.008  0.00  0.00    +0.320 C 
BRANCH  17  18
ATOM     18  N   LIG    1       -0.721   1.571  -1.179  0.00  0.00    -0.490 N 
ATOM     19  C   LIG    1       -1.664   0.865  -1.875  0.00  0.00    +0.220 A 
ATOM     20  C   LIG    1       -2.118   1.598  -2.904  0.00  0.00    -0.050 A 
ATOM     21  C   LIG    1       -1.400   2.875  -2.870  0.00  0.00    -0.110 A 
ATOM     22  C   LIG    1       -1.427   4.024  -3.661  0.00  0.00    +0.050 A 
ATOM     23  C   LIG    1       -0.609   5.076  -3.357  0.00  0.00    -0.030 A 
ATOM     24  C   LIG    1        0.247   5.011  -2.267  0.00  0.00    +0.020 A 
ATOM     25  C   LIG    1        0.289   3.886  -1.472  0.00  0.00    -0.010 A 
ATOM     26  C   LIG    1       -0.534   2.804  -1.763  0.00  0.00    +0.100 A 
ENDBRANCH  17  18
ENDBRANCH  16  17
ENDBRANCH   2  16
TORSDOF 7
