REMARK  Name = ZINCrg000000sEaz.0
REMARK                            x       y       z     vdW  Elec       q    Type
REMARK                         _______ _______ _______ _____ _____    ______ ____
ROOT
ATOM      1  N   LIG    1       -3.232   3.766  -1.033  0.00  0.00    -0.510 NA
ATOM      2  C   LIG    1       -3.448   2.312  -1.054  0.00  0.00    +0.190 C 
ATOM      3  C   LIG    1       -2.096   1.597  -0.993  0.00  0.00    +0.230 C 
ATOM      4  N   LIG    1       -1.269   2.021  -2.131  0.00  0.00    -0.480 N 
ATOM      5  C   LIG    1       -1.053   3.474  -2.110  0.00  0.00    +0.210 C 
ATOM      6  C   LIG    1       -2.405   4.189  -2.171  0.00  0.00    +0.200 C 
ENDROOT
BRANCH   1  11
ATOM      7  N   LIG    1       -6.605   3.839   0.186  0.00  0.00    -0.520 N 
ATOM      8  C   LIG    1       -7.430   3.885  -1.015  0.00  0.00    +0.260 C 
ATOM      9  C   LIG    1       -6.731   4.685  -2.115  0.00  0.00    +0.040 C 
ATOM     10  C   LIG    1       -5.304   4.150  -2.280  0.00  0.00    +0.000 C 
ATOM     11  C   LIG    1       -4.511   4.488  -1.015  0.00  0.00    +0.200 C 
ATOM     12  C   LIG    1       -5.295   4.083   0.201  0.00  0.00    +0.520 C 
ATOM     13  O   LIG    1       -4.704   3.973   1.254  0.00  0.00    -0.510 OA
BRANCH   7  17
ATOM     14  C   LIG    1       -9.982   2.482   3.507  0.00  0.00    +0.370 C 
ATOM     15  N   LIG    1       -8.726   2.913   2.887  0.00  0.00    -0.380 N 
ATOM     16  C   LIG    1       -8.522   3.130   1.562  0.00  0.00    +0.190 A 
ATOM     17  C   LIG    1       -7.230   3.515   1.404  0.00  0.00    -0.010 A 
ATOM     18  C   LIG    1       -6.628   3.528   2.671  0.00  0.00    +0.270 A 
ATOM     19  N   LIG    1       -7.524   3.174   3.556  0.00  0.00    -0.290 NA
ENDBRANCH   7  17
ENDBRANCH   1  11
BRANCH   4  20
ATOM     20  C   LIG    1       -0.062   1.339  -2.149  0.00  0.00    +0.340 A 
ATOM     21  C   LIG    1        0.862   1.605  -3.157  0.00  0.00    -0.040 A 
ATOM     22  C   LIG    1        2.056   0.934  -3.168  0.00  0.00    +0.150 A 
ATOM     23  C   LIG    1        2.306  -0.003  -2.155  0.00  0.00    -0.110 A 
ATOM     24  C   LIG    1        1.335  -0.218  -1.176  0.00  0.00    +0.360 A 
ATOM     25  N   LIG    1        0.199   0.448  -1.202  0.00  0.00    -0.520 NA
BRANCH  23  26
ATOM     26  C   LIG    1        3.541  -0.729  -2.125  0.00  0.00    +0.260 C 
ATOM     27  N   LIG    1        4.520  -1.304  -2.102  0.00  0.00    -0.410 NA
ENDBRANCH  23  26
ENDBRANCH   4  20
TORSDOF 4
