REMARK  Name = ZINCtV000002F97E.0
REMARK                            x       y       z     vdW  Elec       q    Type
REMARK                         _______ _______ _______ _____ _____    ______ ____
ROOT
ATOM      1  C   LIG    1       -1.325   3.679   0.142  0.00  0.00    +0.150 A 
ATOM      2  C   LIG    1       -0.110   4.349   0.105  0.00  0.00    +0.030 A 
ATOM      3  C   LIG    1        1.070   3.638  -0.003  0.00  0.00    -0.010 A 
ATOM      4  C   LIG    1        1.041   2.254  -0.076  0.00  0.00    +0.080 A 
ATOM      5  C   LIG    1       -0.175   1.581  -0.040  0.00  0.00    +0.100 A 
ATOM      6  F   LIG    1       -0.203   0.232  -0.111  0.00  0.00    -0.120 F 
ATOM      7  C   LIG    1       -1.355   2.292   0.064  0.00  0.00    +0.040 A 
ENDROOT
BRANCH   1   9
ATOM      8  C   LIG    1       -3.549   3.896   0.960  0.00  0.00    +0.570 C 
ATOM      9  N   LIG    1       -2.520   4.400   0.251  0.00  0.00    -0.670 N 
ATOM     10  H   LIG    1       -2.607   5.263  -0.184  0.00  0.00    +0.410 HD
ATOM     11  O   LIG    1       -3.466   2.784   1.444  0.00  0.00    -0.520 OA
BRANCH   8  20
ATOM     12  C   LIG    1       -8.652   3.474   3.502  0.00  0.00    +0.180 C 
ATOM     13  C   LIG    1       -8.261   4.713   2.740  0.00  0.00    +0.120 A 
ATOM     14  N   LIG    1       -8.993   5.777   2.577  0.00  0.00    -0.250 NA
ATOM     15  N   LIG    1       -8.302   6.725   1.815  0.00  0.00    -0.500 N 
ATOM     16  H   LIG    1       -8.641   7.597   1.561  0.00  0.00    +0.440 HD
ATOM     17  C   LIG    1       -7.072   6.225   1.484  0.00  0.00    +0.160 A 
ATOM     18  C   LIG    1       -5.995   6.728   0.754  0.00  0.00    -0.010 A 
ATOM     19  C   LIG    1       -4.868   5.980   0.594  0.00  0.00    +0.090 A 
ATOM     20  C   LIG    1       -4.777   4.695   1.149  0.00  0.00    -0.190 A 
ATOM     21  C   LIG    1       -5.837   4.173   1.881  0.00  0.00    +0.190 A 
ATOM     22  C   LIG    1       -6.992   4.937   2.053  0.00  0.00    -0.190 A 
ENDBRANCH   8  20
ENDBRANCH   1   9
BRANCH   4  23
ATOM     23  O   LIG    1        2.202   1.554  -0.183  0.00  0.00    -0.240 OA
BRANCH  23  24
ATOM     24  C   LIG    1        3.359   2.255  -0.321  0.00  0.00    +0.090 A 
ATOM     25  C   LIG    1        3.856   2.533  -1.585  0.00  0.00    +0.050 A 
ATOM     26  C   LIG    1        5.030   3.249  -1.723  0.00  0.00    +0.060 A 
ATOM     27  C   LIG    1        5.714   3.681  -0.601  0.00  0.00    -0.020 A 
ATOM     28  C   LIG    1        5.223   3.401   0.662  0.00  0.00    +0.060 A 
ATOM     29 CL   LIG    1        7.192   4.575  -0.777  0.00  0.00    -0.040 Cl
ATOM     30  C   LIG    1        4.047   2.689   0.805  0.00  0.00    -0.040 A 
ATOM     31 CL   LIG    1        3.432   2.336   2.389  0.00  0.00    -0.030 Cl
ENDBRANCH  23  24
ENDBRANCH   4  23
TORSDOF 4
