REMARK  Name = ZINCrg000000p7wP.0
REMARK                            x       y       z     vdW  Elec       q    Type
REMARK                         _______ _______ _______ _____ _____    ______ ____
ROOT
ATOM      1  C   LIG    1       -2.202  -1.528   5.235  0.00  0.00    +0.250 C 
ENDROOT
BRANCH   1   8
ATOM      2  C   LIG    1       -3.378  -6.890   8.339  0.00  0.00    +0.190 C 
ATOM      3  N   LIG    1       -2.954  -6.070   7.197  0.00  0.00    -0.540 NA
ATOM      4  C   LIG    1       -4.078  -5.811   6.288  0.00  0.00    +0.170 C 
ATOM      5  C   LIG    1       -3.559  -5.113   5.026  0.00  0.00    +0.300 C 
ATOM      6  N   LIG    1       -2.800  -3.920   5.431  0.00  0.00    -0.610 N 
ATOM      7  C   LIG    1       -1.741  -4.079   6.440  0.00  0.00    +0.270 C 
ATOM      8  C   LIG    1       -3.063  -2.715   4.889  0.00  0.00    +0.520 C 
ATOM      9  O   LIG    1       -3.994  -2.586   4.122  0.00  0.00    -0.530 OA
ATOM     10  C   LIG    1       -2.335  -4.817   7.650  0.00  0.00    +0.170 C 
ENDBRANCH   1   8
BRANCH   1  11
ATOM     11  N   LIG    1       -2.234  -0.563   4.133  0.00  0.00    -0.720 N 
ATOM     12  H   LIG    1       -2.992  -0.543   3.528  0.00  0.00    +0.410 HD
ATOM     13  C   LIG    1       -1.209   0.295   3.959  0.00  0.00    +0.520 C 
ATOM     14  O   LIG    1       -0.262   0.270   4.715  0.00  0.00    -0.490 OA
BRANCH  13  15
ATOM     15  C   LIG    1       -1.242   1.288   2.825  0.00  0.00    +0.160 C 
ATOM     16  C   LIG    1       -1.200   0.542   1.474  0.00  0.00    +0.060 C 
ATOM     17  C   LIG    1        0.046   1.113   0.779  0.00  0.00    -0.170 C 
ATOM     18  C   LIG    1        0.296   2.438   1.521  0.00  0.00    +0.250 C 
ATOM     19  C   LIG    1        1.182   0.230   0.295  0.00  0.00    +0.040 C 
ATOM     20  C   LIG    1        0.289   0.961  -0.713  0.00  0.00    +0.040 C 
ATOM     21  O   LIG    1       -0.081   2.135   2.883  0.00  0.00    -0.340 OA
ENDBRANCH  13  15
ENDBRANCH   1  11
BRANCH   1  22
ATOM     22  C   LIG    1       -2.734  -0.866   6.508  0.00  0.00    +0.070 C 
BRANCH  22  23
ATOM     23  C   LIG    1       -1.794   0.234   6.932  0.00  0.00    -0.070 A 
ATOM     24  C   LIG    1       -0.751  -0.043   7.796  0.00  0.00    +0.000 A 
ATOM     25  C   LIG    1        0.113   0.964   8.182  0.00  0.00    +0.010 A 
ATOM     26  C   LIG    1       -0.072   2.251   7.711  0.00  0.00    +0.000 A 
ATOM     27  C   LIG    1       -1.118   2.529   6.851  0.00  0.00    +0.010 A 
ATOM     28  C   LIG    1       -1.980   1.521   6.462  0.00  0.00    +0.000 A 
ENDBRANCH  22  23
ENDBRANCH   1  22
TORSDOF 5
