REMARK  Name = ZINCqH00000015ed.0
REMARK                            x       y       z     vdW  Elec       q    Type
REMARK                         _______ _______ _______ _____ _____    ______ ____
ROOT
ATOM      1  C   LIG    1        4.563   0.259  -0.040  0.00  0.00    +0.600 C 
ATOM      2  N   LIG    1        3.659   1.259  -0.026  0.00  0.00    -0.610 N 
ATOM      3  H   LIG    1        3.958   2.182  -0.024  0.00  0.00    +0.440 HD
ATOM      4  O   LIG    1        4.189  -0.898  -0.042  0.00  0.00    -0.500 OA
ENDROOT
BRANCH   1   7
ATOM      5  N   LIG    1        7.833   1.671  -0.063  0.00  0.00    -0.260 N 
ATOM      6  N   LIG    1        6.552   1.768  -0.051  0.00  0.00    -0.240 NA
ATOM      7  C   LIG    1        6.006   0.568  -0.052  0.00  0.00    -0.030 A 
ATOM      8  C   LIG    1        7.068  -0.368  -0.061  0.00  0.00    -0.010 A 
ATOM      9  C   LIG    1        8.202   0.372  -0.074  0.00  0.00    +0.050 A 
BRANCH   5  11
ATOM     10  C   LIG    1        7.965   4.113  -0.051  0.00  0.00    +0.070 C 
ATOM     11  C   LIG    1        8.759   2.805  -0.066  0.00  0.00    +0.170 C 
ATOM     12  C   LIG    1        9.628   2.751  -1.324  0.00  0.00    +0.060 C 
ATOM     13  C   LIG    1        9.653   2.737   1.174  0.00  0.00    +0.060 C 
ENDBRANCH   5  11
BRANCH   9  14
ATOM     14  C   LIG    1        9.613  -0.156  -0.090  0.00  0.00    +0.010 C 
ATOM     15  C   LIG    1        9.872  -1.457  -0.854  0.00  0.00    +0.040 C 
ATOM     16  C   LIG    1        9.892  -1.450   0.677  0.00  0.00    +0.040 C 
ENDBRANCH   9  14
ENDBRANCH   1   7
BRANCH   2  17
ATOM     17  C   LIG    1        2.305   0.969  -0.015  0.00  0.00    +0.090 A 
ATOM     18  C   LIG    1        1.306   1.908  -0.000  0.00  0.00    -0.240 A 
ATOM     19  C   LIG    1       -0.016   1.321   0.009  0.00  0.00    +0.050 A 
ATOM     20  C   LIG    1        0.002  -0.004   0.002  0.00  0.00    -0.110 A 
ATOM     21  S   LIG    1        1.650  -0.605  -0.017  0.00  0.00    +0.300 S 
BRANCH  18  22
ATOM     22  C   LIG    1        1.552   3.353   0.005  0.00  0.00    +0.590 C 
ATOM     23  N   LIG    1        0.514   4.213   0.019  0.00  0.00    -0.700 N 
ATOM     24  H   LIG    1       -0.395   3.876   0.027  0.00  0.00    +0.400 HD
ATOM     25  O   LIG    1        2.693   3.777  -0.004  0.00  0.00    -0.550 OA
BRANCH  23  26
ATOM     26  C   LIG    1        0.760   5.658   0.024  0.00  0.00    +0.220 C 
ATOM     27  C   LIG    1       -0.081   6.514   0.973  0.00  0.00    +0.010 C 
ATOM     28  C   LIG    1       -0.340   6.563  -0.534  0.00  0.00    +0.010 C 
ENDBRANCH  23  26
ENDBRANCH  18  22
ENDBRANCH   2  17
TORSDOF 6
