REMARK  Name = ZINCpe00000SHyuJ.0
REMARK                            x       y       z     vdW  Elec       q    Type
REMARK                         _______ _______ _______ _____ _____    ______ ____
ROOT
ATOM      1  C   UNK A  0       -3.075   2.530  -2.441  0.00  0.00    +0.510 C 
ATOM      2  N   TYR A  1       -3.289   2.103  -1.181  0.00  0.00    -0.720 N 
ATOM      3  H   TYR A  1       -3.806   1.297  -1.024  0.00  0.00    +0.400 HD
ATOM      4  O   UNK A  0       -2.473   3.565  -2.636  0.00  0.00    -0.500 OA
ENDROOT
BRANCH   1   5
ATOM      5  C   UNK A  0       -3.583   1.722  -3.607  0.00  0.00    +0.290 C 
BRANCH   5   6
ATOM      6  N   UNK A  0       -3.353   2.462  -4.851  0.00  0.00    -0.620 N 
ATOM      7  C   UNK A  0       -4.367   2.735  -5.880  0.00  0.00    +0.250 C 
ATOM      8  C   UNK A  0       -3.600   3.536  -6.950  0.00  0.00    +0.250 C 
ATOM      9  N   UNK A  0       -2.233   3.621  -6.415  0.00  0.00    -0.750 N 
ATOM     10  H   UNK A  0       -1.486   4.062  -6.849  0.00  0.00    +0.430 HD
ATOM     11  C   UNK A  0       -2.184   2.992  -5.234  0.00  0.00    +0.700 C 
ATOM     12  O   UNK A  0       -1.169   2.909  -4.569  0.00  0.00    -0.550 OA
ENDBRANCH   5   6
BRANCH   5  14
ATOM     13  C   UNK A  0       -3.189  -0.444  -2.427  0.00  0.00    +0.040 C 
ATOM     14  C   UNK A  0       -2.841   0.386  -3.664  0.00  0.00    -0.070 C 
ATOM     15  C   UNK A  0       -1.333   0.641  -3.700  0.00  0.00    +0.040 C 
ATOM     16  C   UNK A  0       -3.259  -0.377  -4.923  0.00  0.00    +0.030 C 
ENDBRANCH   5  14
ENDBRANCH   1   5
BRANCH   2  17
ATOM     17  CA  TYR A  1       -2.743   2.855  -0.049  0.00  0.00    +0.260 C 
BRANCH  17  18
ATOM     18  CB  TYR A  1       -2.553   1.916   1.144  0.00  0.00    +0.100 C 
BRANCH  18  19
ATOM     19  CG  TYR A  1       -1.492   0.897   0.817  0.00  0.00    -0.090 A 
ATOM     20  CD2 TYR A  1       -1.856  -0.373   0.411  0.00  0.00    +0.020 A 
ATOM     21  CE2 TYR A  1       -0.886  -1.311   0.116  0.00  0.00    -0.010 A 
ATOM     22  CZ  TYR A  1        0.456  -0.973   0.217  0.00  0.00    +0.100 A 
ATOM     23  CE1 TYR A  1        0.820   0.304   0.619  0.00  0.00    -0.010 A 
ATOM     24  CD1 TYR A  1       -0.155   1.236   0.918  0.00  0.00    +0.030 A 
BRANCH  22  25
ATOM     25  OH  TYR A  1        1.413  -1.892  -0.079  0.00  0.00    -0.500 OA
ATOM     26  HH  TYR A  1        1.686  -1.891  -1.007  0.00  0.00    +0.390 HD
ENDBRANCH  22  25
ENDBRANCH  18  19
ENDBRANCH  17  18
BRANCH  17  27
ATOM     27  C   TYR A  1       -3.711   3.976   0.333  0.00  0.00    +0.170 C 
BRANCH  27  28
ATOM     28  O   TYR A  1       -4.932   3.408   0.811  0.00  0.00    -0.570 OA
ATOM     29  H   TYR A  1       -5.594   4.063   1.073  0.00  0.00    +0.380 HD
ENDBRANCH  27  28
ENDBRANCH  17  27
ENDBRANCH   2  17
TORSDOF 9
