REMARK  Name = ZINCrg000000qjkU.0
REMARK                            x       y       z     vdW  Elec       q    Type
REMARK                         _______ _______ _______ _____ _____    ______ ____
ROOT
ATOM      1  N   LIG    1        1.574   0.654  -2.393  0.00  0.00    -0.530 N 
ATOM      2  C   LIG    1        2.216   1.384  -1.462  0.00  0.00    +0.710 A 
ATOM      3  N   LIG    1        1.778   1.434  -0.192  0.00  0.00    -0.660 N 
ATOM      4  H   LIG    1        2.259   1.968   0.460  0.00  0.00    +0.430 HD
ATOM      5  C   LIG    1        0.680   0.751   0.186  0.00  0.00    +0.560 A 
ATOM      6  C   LIG    1       -0.016  -0.024  -0.761  0.00  0.00    -0.150 A 
ATOM      7  O   LIG    1        0.289   0.807   1.340  0.00  0.00    -0.500 OA
ATOM      8  O   LIG    1        3.210   2.010  -1.776  0.00  0.00    -0.510 OA
ATOM      9  C   LIG    1        0.448  -0.063  -2.060  0.00  0.00    +0.480 A 
ENDROOT
BRANCH   6  10
ATOM     10  N   LIG    1       -1.169  -0.747  -0.388  0.00  0.00    -0.520 N 
ATOM     11  C   LIG    1       -2.240  -0.098   0.113  0.00  0.00    +0.540 C 
ATOM     12  O   LIG    1       -3.202  -0.726   0.502  0.00  0.00    -0.530 OA
BRANCH  11  13
ATOM     13  C   LIG    1       -2.241   1.407   0.190  0.00  0.00    -0.030 C 
ATOM     14  C   LIG    1       -2.084   1.951   1.620  0.00  0.00    +0.060 C 
ATOM     15  C   LIG    1       -3.129   3.017   1.243  0.00  0.00    +0.000 C 
ATOM     16  C   LIG    1       -3.650   2.022   0.192  0.00  0.00    +0.040 C 
ENDBRANCH  11  13
BRANCH  10  17
ATOM     17  C   LIG    1       -1.202  -2.203  -0.546  0.00  0.00    +0.330 C 
BRANCH  17  18
ATOM     18  C   LIG    1       -0.706  -2.857   0.718  0.00  0.00    -0.100 A 
ATOM     19  C   LIG    1        0.651  -3.026   0.922  0.00  0.00    +0.010 A 
ATOM     20  C   LIG    1        1.106  -3.621   2.083  0.00  0.00    +0.000 A 
ATOM     21  C   LIG    1        0.204  -4.058   3.036  0.00  0.00    +0.010 A 
ATOM     22  C   LIG    1       -1.153  -3.894   2.829  0.00  0.00    +0.000 A 
ATOM     23  C   LIG    1       -1.608  -3.294   1.670  0.00  0.00    +0.040 A 
ENDBRANCH  17  18
ENDBRANCH  10  17
ENDBRANCH   6  10
BRANCH   9  24
ATOM     24  N   LIG    1       -0.208  -0.808  -3.010  0.00  0.00    -0.830 N 
ATOM     25  H   LIG    1        0.169  -0.901  -3.899  0.00  0.00    +0.410 HD
ATOM     26  H   LIG    1       -1.047  -1.242  -2.792  0.00  0.00    +0.430 HD
ENDBRANCH   9  24
BRANCH   1  27
ATOM     27  C   LIG    1        2.078   0.621  -3.768  0.00  0.00    +0.340 C 
BRANCH  27  28
ATOM     28  C   LIG    1        1.431   1.749  -4.575  0.00  0.00    +0.160 C 
BRANCH  28  30
ATOM     29  C   LIG    1        1.299   4.137  -4.735  0.00  0.00    +0.200 C 
ATOM     30  O   LIG    1        1.849   3.010  -4.049  0.00  0.00    -0.370 OA
ENDBRANCH  28  30
ENDBRANCH  27  28
ENDBRANCH   1  27
TORSDOF 8
