REMARK  Name = ZINCAx0000000dSq.0
REMARK                            x       y       z     vdW  Elec       q    Type
REMARK                         _______ _______ _______ _____ _____    ______ ____
ROOT
ATOM      1  N   LIG    1        0.002  -0.004   0.002  0.00  0.00    -0.980 NA
ENDROOT
BRANCH   1   2
ATOM      2  S   LIG    1        1.319  -0.818   0.591  0.00  0.00    +2.610 S 
ATOM      3  O   LIG    1        2.378   0.127   0.513  0.00  0.00    -0.950 OA
ATOM      4  O   LIG    1        1.353  -2.021  -0.163  0.00  0.00    -0.950 OA
ATOM      5  C   LIG    1        0.900  -1.163   2.322  0.00  0.00    -0.290 C 
ENDBRANCH   1   2
BRANCH   1   6
ATOM      6  C   LIG    1       -0.018   1.461   0.010  0.00  0.00    +0.340 C 
BRANCH   6  11
ATOM      7  N   LIG    1       -1.483   3.954   2.465  0.00  0.00    -0.530 NA
ATOM      8  C   LIG    1       -0.681   3.554   3.630  0.00  0.00    +0.150 C 
ATOM      9  C   LIG    1       -0.553   2.029   3.656  0.00  0.00    +0.220 C 
ATOM     10  O   LIG    1        0.021   1.582   2.425  0.00  0.00    -0.390 OA
ATOM     11  C   LIG    1       -0.734   1.954   1.269  0.00  0.00    +0.150 C 
ATOM     12  C   LIG    1       -0.864   3.479   1.219  0.00  0.00    +0.160 C 
BRANCH   7  13
ATOM     13  C   LIG    1       -1.677   5.410   2.434  0.00  0.00    +0.230 C 
BRANCH  13  15
ATOM     14  C   LIG    1       -1.954   6.246   4.725  0.00  0.00    +0.060 C 
ATOM     15  C   LIG    1       -2.528   5.828   3.606  0.00  0.00    -0.080 C 
BRANCH  15  16
ATOM     16  C   LIG    1       -4.001   5.771   3.507  0.00  0.00    -0.040 A 
ATOM     17  C   LIG    1       -4.646   4.543   3.354  0.00  0.00    +0.060 A 
ATOM     18  C   LIG    1       -6.022   4.495   3.268  0.00  0.00    +0.020 A 
ATOM     19  C   LIG    1       -6.763   5.664   3.323  0.00  0.00    -0.030 A 
ATOM     20  C   LIG    1       -6.128   6.886   3.470  0.00  0.00    +0.020 A 
ATOM     21 CL   LIG    1       -8.493   5.597   3.207  0.00  0.00    -0.070 Cl
ATOM     22  C   LIG    1       -4.753   6.945   3.562  0.00  0.00    +0.030 A 
ENDBRANCH  15  16
ENDBRANCH  13  15
ENDBRANCH   7  13
ENDBRANCH   6  11
ENDBRANCH   1   6
BRANCH   1  23
ATOM     23  C   LIG    1       -1.143  -0.749  -0.527  0.00  0.00    +0.330 C 
BRANCH  23  24
ATOM     24  C   LIG    1       -1.007  -0.883  -2.022  0.00  0.00    +0.500 C 
ATOM     25  N   LIG    1       -1.951  -1.536  -2.729  0.00  0.00    -0.730 N 
ATOM     26  H   LIG    1       -2.718  -1.920  -2.275  0.00  0.00    +0.400 HD
ATOM     27  O   LIG    1       -0.049  -0.403  -2.590  0.00  0.00    -0.520 OA
BRANCH  25  28
ATOM     28  C   LIG    1       -1.820  -1.666  -4.182  0.00  0.00    +0.250 C 
ATOM     29  C   LIG    1       -2.604  -2.892  -4.660  0.00  0.00    +0.040 C 
ATOM     30  C   LIG    1       -2.263  -3.176  -6.124  0.00  0.00    +0.140 C 
ATOM     31  C   LIG    1       -2.436  -1.893  -6.924  0.00  0.00    +0.070 A 
ATOM     32  C   LIG    1       -2.489  -0.679  -6.346  0.00  0.00    -0.230 A 
ATOM     33  S   LIG    1       -2.695   0.532  -7.605  0.00  0.00    +0.120 S 
ATOM     34  C   LIG    1       -2.692  -0.694  -8.795  0.00  0.00    +0.050 A 
ATOM     35  C   LIG    1       -2.836  -0.459 -10.277  0.00  0.00    +0.180 C 
ATOM     36  N   LIG    1       -2.549  -1.848  -8.243  0.00  0.00    -0.470 NA
ATOM     37  C   LIG    1       -2.386  -0.415  -4.862  0.00  0.00    +0.110 C 
ENDBRANCH  25  28
ENDBRANCH  23  24
ENDBRANCH   1  23
TORSDOF 9
