REMARK  Name = ZINCtV00000L6kab.0
REMARK                            x       y       z     vdW  Elec       q    Type
REMARK                         _______ _______ _______ _____ _____    ______ ____
ROOT
ATOM      1  C   LIG    1        4.878   1.137  -0.129  0.00  0.00    +0.150 A 
ATOM      2  C   LIG    1        4.945  -0.250  -0.236  0.00  0.00    +0.040 A 
ATOM      3  C   LIG    1        6.165  -0.884  -0.343  0.00  0.00    +0.070 A 
ATOM      4  C   LIG    1        7.335  -0.141  -0.344  0.00  0.00    -0.010 A 
ATOM      5  O   LIG    1        8.646  -0.463  -0.431  0.00  0.00    -0.210 OA
ATOM      6  C   LIG    1        9.361   0.677  -0.380  0.00  0.00    +0.300 A 
ATOM      7  N   LIG    1        8.557   1.706  -0.265  0.00  0.00    -0.460 NA
ATOM      8  C   LIG    1        7.276   1.258  -0.236  0.00  0.00    +0.050 A 
ATOM      9  C   LIG    1        6.037   1.893  -0.134  0.00  0.00    +0.090 A 
ENDROOT
BRANCH   6  10
ATOM     10  C   LIG    1       10.832   0.756  -0.445  0.00  0.00    -0.030 A 
ATOM     11  C   LIG    1       11.479   1.984  -0.390  0.00  0.00    +0.110 A 
ATOM     12  C   LIG    1       12.865   2.055  -0.443  0.00  0.00    +0.020 A 
ATOM     13  C   LIG    1       13.636   0.941  -0.565  0.00  0.00    +0.070 A 
ATOM     14  C   LIG    1       13.049  -0.334  -0.634  0.00  0.00    -0.050 A 
ATOM     15  C   LIG    1       13.833  -1.495  -0.758  0.00  0.00    -0.020 A 
ATOM     16  C   LIG    1       13.226  -2.713  -0.821  0.00  0.00    +0.040 A 
ATOM     17  C   LIG    1       11.840  -2.828  -0.762  0.00  0.00    +0.050 A 
ATOM     18  C   LIG    1       11.050  -1.723  -0.641  0.00  0.00    +0.040 A 
ATOM     19 CL   LIG    1       15.563  -1.376  -0.833  0.00  0.00    -0.050 Cl
ATOM     20  C   LIG    1       11.639  -0.455  -0.575  0.00  0.00    -0.020 A 
ENDBRANCH   6  10
BRANCH   1  23
ATOM     21  O   LIG    1        4.453   3.303   1.360  0.00  0.00    -0.510 OA
ATOM     22  C   LIG    1        3.509   2.892   0.713  0.00  0.00    +0.560 C 
ATOM     23  N   LIG    1        3.634   1.769  -0.022  0.00  0.00    -0.670 N 
ATOM     24  H   LIG    1        2.861   1.399  -0.477  0.00  0.00    +0.410 HD
BRANCH  22  25
ATOM     25  C   LIG    1        2.225   3.624   0.732  0.00  0.00    -0.140 A 
ATOM     26  C   LIG    1        2.092   4.788   1.492  0.00  0.00    +0.080 A 
ATOM     27  C   LIG    1        0.890   5.463   1.509  0.00  0.00    +0.000 A 
ATOM     28  C   LIG    1       -0.180   4.996   0.767  0.00  0.00    +0.040 A 
ATOM     29  C   LIG    1       -0.056   3.844   0.011  0.00  0.00    +0.000 A 
ATOM     30  C   LIG    1        1.140   3.155  -0.011  0.00  0.00    +0.040 A 
ENDBRANCH  22  25
ENDBRANCH   1  23
TORSDOF 3
