REMARK  Name = ZINCqH0000004S81.0
REMARK                            x       y       z     vdW  Elec       q    Type
REMARK                         _______ _______ _______ _____ _____    ______ ____
ROOT
ATOM      1  C   LIG    1       -0.011   1.243  -0.013  0.00  0.00    +0.540 C 
ATOM      2  N   LIG    1        1.151   1.925  -0.017  0.00  0.00    -0.660 N 
ATOM      3  H   LIG    1        1.145   2.893  -0.086  0.00  0.00    +0.420 HD
ATOM      4  O   LIG    1       -0.002   0.030  -0.011  0.00  0.00    -0.500 OA
ENDROOT
BRANCH   2   5
ATOM      5  C   LIG    1        2.367   1.239   0.078  0.00  0.00    +0.160 A 
ATOM      6  C   LIG    1        2.510  -0.006  -0.521  0.00  0.00    +0.010 A 
ATOM      7  C   LIG    1        3.710  -0.685  -0.427  0.00  0.00    +0.050 A 
ATOM      8  C   LIG    1        4.770  -0.129   0.263  0.00  0.00    -0.020 A 
ATOM      9  C   LIG    1        4.633   1.116   0.864  0.00  0.00    +0.160 A 
ATOM     10  C   LIG    1        3.431   1.803   0.767  0.00  0.00    +0.000 A 
BRANCH   9  11
ATOM     11  N   LIG    1        5.707   1.679   1.562  0.00  0.00    -0.680 N 
ATOM     12  H   LIG    1        6.615   1.535   1.253  0.00  0.00    +0.410 HD
ATOM     13  C   LIG    1        5.479   2.421   2.664  0.00  0.00    +0.510 C 
ATOM     14  O   LIG    1        4.342   2.671   3.003  0.00  0.00    -0.520 OA
ATOM     15  C   LIG    1        6.638   2.940   3.475  0.00  0.00    +0.110 C 
ENDBRANCH   9  11
ENDBRANCH   2   5
BRANCH   1  16
ATOM     16  C   LIG    1       -1.322   1.986  -0.016  0.00  0.00    +0.110 C 
BRANCH  16  17
ATOM     17  S   LIG    1       -2.688   0.800  -0.017  0.00  0.00    +0.080 S 
BRANCH  17  26
ATOM     18  N   LIG    1       -5.371   1.535  -0.029  0.00  0.00    -0.470 N 
ATOM     19  C   LIG    1       -6.128   2.695  -0.027  0.00  0.00    +0.060 A 
ATOM     20  C   LIG    1       -7.490   2.954  -0.030  0.00  0.00    +0.010 A 
ATOM     21  C   LIG    1       -7.941   4.258  -0.034  0.00  0.00    +0.030 A 
ATOM     22  C   LIG    1       -7.041   5.313  -0.034  0.00  0.00    +0.000 A 
ATOM     23  C   LIG    1       -5.685   5.074  -0.030  0.00  0.00    +0.060 A 
ATOM     24  C   LIG    1       -5.212   3.760  -0.027  0.00  0.00    +0.060 A 
ATOM     25  N   LIG    1       -3.966   3.217  -0.024  0.00  0.00    -0.500 NA
ATOM     26  C   LIG    1       -4.057   1.909  -0.021  0.00  0.00    +0.250 A 
BRANCH  18  28
ATOM     27  C   LIG    1       -6.070  -0.317   1.407  0.00  0.00    +0.040 C 
ATOM     28  C   LIG    1       -5.884   0.163  -0.034  0.00  0.00    +0.300 C 
ENDBRANCH  18  28
ENDBRANCH  17  26
ENDBRANCH  16  17
ENDBRANCH   1  16
TORSDOF 6
