REMARK  Name = ZINCrD00000l2mM3.0
REMARK                            x       y       z     vdW  Elec       q    Type
REMARK                         _______ _______ _______ _____ _____    ______ ____
ROOT
ATOM      1  C   LIG    1       -2.139   2.563   1.235  0.00  0.00    +0.570 C 
ATOM      2  N   LIG    1       -0.802   2.641   1.091  0.00  0.00    -0.590 N 
ATOM      3  O   LIG    1       -2.625   2.424   2.341  0.00  0.00    -0.520 OA
ENDROOT
BRANCH   1   7
ATOM      4  C   LIG    1       -4.657   2.804  -2.181  0.00  0.00    +0.130 A 
ATOM      5  C   LIG    1       -3.363   2.318  -2.305  0.00  0.00    -0.040 A 
ATOM      6  C   LIG    1       -2.544   2.239  -1.200  0.00  0.00    +0.040 A 
ATOM      7  C   LIG    1       -3.015   2.648   0.050  0.00  0.00    -0.130 A 
ATOM      8  C   LIG    1       -4.321   3.132   0.176  0.00  0.00    +0.040 A 
ATOM      9  C   LIG    1       -5.134   3.214  -0.936  0.00  0.00    +0.100 A 
BRANCH   9  10
ATOM     10  O   LIG    1       -6.403   3.690  -0.817  0.00  0.00    -0.300 OA
ATOM     11  C   LIG    1       -6.825   4.092   0.487  0.00  0.00    +0.240 C 
ENDBRANCH   9  10
BRANCH   4  12
ATOM     12  O   LIG    1       -5.461   2.880  -3.273  0.00  0.00    -0.300 OA
BRANCH  12  13
ATOM     13  C   LIG    1       -4.908   2.443  -4.516  0.00  0.00    +0.170 C 
BRANCH  13  15
ATOM     14  C   LIG    1       -5.362   2.134  -6.954  0.00  0.00    +0.040 C 
ATOM     15  C   LIG    1       -5.953   2.602  -5.622  0.00  0.00    +0.040 C 
ENDBRANCH  13  15
ENDBRANCH  12  13
ENDBRANCH   4  12
ENDBRANCH   1   7
BRANCH   2  16
ATOM     16  C   LIG    1        0.071   2.486   2.257  0.00  0.00    +0.280 C 
ATOM     17  C   LIG    1        0.414   3.865   2.824  0.00  0.00    +0.010 C 
ENDBRANCH   2  16
BRANCH   2  18
ATOM     18  C   LIG    1       -0.220   2.880  -0.233  0.00  0.00    +0.310 C 
BRANCH  18  19
ATOM     19  C   LIG    1        0.409   1.608  -0.742  0.00  0.00    +0.490 C 
ATOM     20  N   LIG    1        1.010   1.590  -1.948  0.00  0.00    -0.730 N 
ATOM     21  H   LIG    1        1.037   2.395  -2.489  0.00  0.00    +0.400 HD
ATOM     22  O   LIG    1        0.375   0.602  -0.066  0.00  0.00    -0.520 OA
BRANCH  20  23
ATOM     23  C   LIG    1        1.621   0.354  -2.443  0.00  0.00    +0.360 C 
BRANCH  23  24
ATOM     24  C   LIG    1        2.220   0.600  -3.804  0.00  0.00    -0.210 A 
ATOM     25  C   LIG    1        3.470   1.006  -4.033  0.00  0.00    +0.030 A 
ATOM     26  C   LIG    1        3.796   1.164  -5.368  0.00  0.00    +0.000 A 
ATOM     27  C   LIG    1        2.812   0.886  -6.224  0.00  0.00    -0.030 A 
ATOM     28  S   LIG    1        1.379   0.387  -5.334  0.00  0.00    +0.120 S 
ENDBRANCH  23  24
ENDBRANCH  20  23
ENDBRANCH  18  19
ENDBRANCH   2  18
TORSDOF 10
