REMARK  Name = ZINCpe00000VVH15.0
REMARK                            x       y       z     vdW  Elec       q    Type
REMARK                         _______ _______ _______ _____ _____    ______ ____
ROOT
ATOM      1  C   LIG    1       -1.195   1.631  -0.090  0.00  0.00    +0.510 C 
ATOM      2  N   LIG    1       -0.020   0.975  -0.162  0.00  0.00    -0.700 N 
ATOM      3  H   LIG    1       -0.007   0.006  -0.195  0.00  0.00    +0.410 HD
ATOM      4  O   LIG    1       -1.211   2.844  -0.048  0.00  0.00    -0.510 OA
ENDROOT
BRANCH   1   6
ATOM      5  N   LIG    1       -3.644   1.513   0.129  0.00  0.00    -0.520 N 
ATOM      6  C   LIG    1       -2.477   0.866  -0.063  0.00  0.00    +0.510 C 
ATOM      7  O   LIG    1       -2.469  -0.338  -0.213  0.00  0.00    -0.500 OA
ATOM      8  C   LIG    1       -3.668   2.977   0.193  0.00  0.00    +0.320 C 
BRANCH   5  13
ATOM      9  C   LIG    1       -7.229   0.722   0.436  0.00  0.00    +0.030 A 
ATOM     10  C   LIG    1       -7.178  -0.669   0.543  0.00  0.00    +0.020 A 
ATOM     11  C   LIG    1       -5.960  -1.319   0.512  0.00  0.00    +0.040 A 
ATOM     12  C   LIG    1       -4.790  -0.598   0.370  0.00  0.00    +0.030 A 
ATOM     13  C   LIG    1       -4.830   0.788   0.268  0.00  0.00    +0.140 A 
ATOM     14  C   LIG    1       -6.048   1.450   0.298  0.00  0.00    +0.000 A 
BRANCH   9  16
ATOM     15  C   LIG    1       -9.525   1.953   0.493  0.00  0.00    +0.060 C 
ATOM     16  C   LIG    1       -8.491   1.398   0.468  0.00  0.00    -0.150 C 
ENDBRANCH   9  16
ENDBRANCH   5  13
ENDBRANCH   1   6
BRANCH   2  17
ATOM     17  C   LIG    1        1.238   1.726  -0.195  0.00  0.00    +0.290 C 
BRANCH  17  18
ATOM     18  C   LIG    1        2.412   0.749  -0.283  0.00  0.00    +0.180 C 
BRANCH  18  19
ATOM     19  N   LIG    1        3.673   1.502  -0.316  0.00  0.00    -0.530 NA
ATOM     20  C   LIG    1        3.786   2.287  -1.553  0.00  0.00    +0.160 C 
ATOM     21  C   LIG    1        5.083   3.100  -1.520  0.00  0.00    +0.160 C 
ATOM     22  O   LIG    1        6.191   2.214  -1.338  0.00  0.00    -0.380 OA
ATOM     23  C   LIG    1        6.114   1.434  -0.141  0.00  0.00    +0.160 C 
ATOM     24  C   LIG    1        7.323   0.500  -0.062  0.00  0.00    +0.050 C 
ATOM     25  C   LIG    1        5.246   3.857  -2.839  0.00  0.00    +0.050 C 
ATOM     26  C   LIG    1        4.827   0.604  -0.161  0.00  0.00    +0.160 C 
ENDBRANCH  18  19
ENDBRANCH  17  18
ENDBRANCH   2  17
TORSDOF 6
