REMARK  Name = ZINCpk00000y6v0Q.0
REMARK                            x       y       z     vdW  Elec       q    Type
REMARK                         _______ _______ _______ _____ _____    ______ ____
ROOT
ATOM      1  O   LIG    1       -4.243   1.843   3.630  0.00  0.00    -0.540 OA
ATOM      2  C   LIG    1       -3.206   1.435   3.151  0.00  0.00    +0.520 C 
ATOM      3  C   LIG    1       -1.965   1.378   4.006  0.00  0.00    +0.040 C 
ATOM      4  C   LIG    1       -1.004   2.490   3.570  0.00  0.00    +0.330 C 
ATOM      5  N   LIG    1       -0.268   2.051   2.381  0.00  0.00    -0.590 N 
ATOM      6  C   LIG    1       -0.965   1.726   1.141  0.00  0.00    +0.080 C 
ATOM      7  C   LIG    1       -0.075   1.673  -0.098  0.00  0.00    +0.260 C 
ATOM      8  O   LIG    1       -1.119   2.335  -0.827  0.00  0.00    -0.360 OA
ATOM      9  C   LIG    1       -1.927   0.546   1.278  0.00  0.00    +0.330 C 
ATOM     10  C   LIG    1       -1.550   2.931   0.406  0.00  0.00    +0.210 C 
ATOM     11  C   LIG    1        1.075   1.945   2.434  0.00  0.00    +0.580 C 
ATOM     12  O   LIG    1        1.667   1.305   1.588  0.00  0.00    -0.520 OA
ATOM     13  N   LIG    1       -3.182   1.041   1.873  0.00  0.00    -0.730 N 
ATOM     14  H   LIG    1       -3.989   1.081   1.337  0.00  0.00    +0.410 HD
ENDROOT
BRANCH  11  15
ATOM     15  C   LIG    1        1.828   2.608   3.524  0.00  0.00    +0.080 A 
ATOM     16  C   LIG    1        3.188   2.361   3.670  0.00  0.00    +0.050 A 
ATOM     17  C   LIG    1        3.884   3.000   4.700  0.00  0.00    +0.000 A 
ATOM     18  C   LIG    1        3.175   3.854   5.548  0.00  0.00    +0.010 A 
ATOM     19  C   LIG    1        1.820   4.041   5.337  0.00  0.00    +0.270 A 
ATOM     20  N   LIG    1        1.195   3.429   4.355  0.00  0.00    -0.460 NA
BRANCH  17  21
ATOM     21  C   LIG    1        5.338   2.772   4.891  0.00  0.00    -0.060 A 
ATOM     22  C   LIG    1        6.030   1.913   4.040  0.00  0.00    +0.030 A 
ATOM     23  C   LIG    1        7.383   1.710   4.219  0.00  0.00    +0.010 A 
ATOM     24  C   LIG    1        8.050   2.348   5.249  0.00  0.00    +0.020 A 
ATOM     25  C   LIG    1        7.368   3.198   6.101  0.00  0.00    +0.010 A 
ATOM     26  C   LIG    1        6.016   3.413   5.927  0.00  0.00    +0.030 A 
ENDBRANCH  17  21
ENDBRANCH  11  15
TORSDOF 2
