REMARK  Name = ZINCpk00000y6wOL.0
REMARK                            x       y       z     vdW  Elec       q    Type
REMARK                         _______ _______ _______ _____ _____    ______ ____
ROOT
ATOM      1  C   LIG    1        6.861   2.126  -5.059  0.00  0.00    +0.330 C 
ATOM      2  C   LIG    1        6.069   1.820  -6.336  0.00  0.00    +0.240 C 
ATOM      3  O   LIG    1        5.969   0.403  -6.499  0.00  0.00    -0.370 OA
ATOM      4  C   LIG    1        5.259  -0.259  -5.450  0.00  0.00    +0.220 C 
ATOM      5  C   LIG    1        6.014  -0.060  -4.126  0.00  0.00    +0.260 C 
ATOM      6  N   LIG    1        6.253   1.381  -3.946  0.00  0.00    -0.610 N 
ATOM      7  C   LIG    1        5.929   1.999  -2.793  0.00  0.00    +0.570 C 
ATOM      8  O   LIG    1        6.043   3.205  -2.696  0.00  0.00    -0.520 OA
ENDROOT
BRANCH   7   9
ATOM      9  C   LIG    1        5.434   1.211  -1.647  0.00  0.00    -0.160 A 
ATOM     10  C   LIG    1        5.904  -0.088  -1.436  0.00  0.00    +0.080 A 
ATOM     11  C   LIG    1        5.440  -0.821  -0.366  0.00  0.00    -0.020 A 
ATOM     12  C   LIG    1        4.505  -0.270   0.504  0.00  0.00    +0.190 A 
ATOM     13  N   LIG    1        4.037  -1.014   1.586  0.00  0.00    -0.660 N 
ATOM     14  H   LIG    1        4.538  -1.785   1.893  0.00  0.00    +0.410 HD
ATOM     15  C   LIG    1        2.895  -0.670   2.208  0.00  0.00    +0.520 C 
ATOM     16  C   LIG    1        2.089   0.513   1.743  0.00  0.00    +0.080 C 
ATOM     17  C   LIG    1        3.024   1.615   1.244  0.00  0.00    +0.110 C 
ATOM     18  O   LIG    1        2.510  -1.321   3.156  0.00  0.00    -0.520 OA
ATOM     19  C   LIG    1        4.037   1.024   0.297  0.00  0.00    -0.130 A 
ATOM     20  C   LIG    1        4.496   1.762  -0.770  0.00  0.00    +0.120 A 
ENDBRANCH   7   9
BRANCH   1  24
ATOM     21  C   LIG    1        8.120   6.855  -3.997  0.00  0.00    +0.240 C 
ATOM     22  C   LIG    1        7.353   5.599  -4.321  0.00  0.00    +0.180 A 
ATOM     23  N   LIG    1        7.857   4.403  -4.509  0.00  0.00    -0.480 NA
ATOM     24  C   LIG    1        6.807   3.604  -4.770  0.00  0.00    +0.190 A 
ATOM     25  N   LIG    1        5.738   4.342  -4.733  0.00  0.00    -0.360 NA
ATOM     26  O   LIG    1        6.030   5.490  -4.471  0.00  0.00    +0.080 OA
ENDBRANCH   1  24
TORSDOF 2
