REMARK  Name = ZINCrg000000rQ6L.0
REMARK                            x       y       z     vdW  Elec       q    Type
REMARK                         _______ _______ _______ _____ _____    ______ ____
ROOT
ATOM      1  N   LIG    1       -5.360   4.313   0.930  0.00  0.00    -0.520 NA
ATOM      2  C   LIG    1       -6.187   3.217   1.453  0.00  0.00    +0.180 C 
ATOM      3  C   LIG    1       -6.621   3.548   2.885  0.00  0.00    +0.280 C 
ATOM      4  N   LIG    1       -7.268   4.869   2.884  0.00  0.00    -0.630 N 
ATOM      5  C   LIG    1       -6.557   5.991   2.253  0.00  0.00    +0.320 C 
ATOM      6  C   LIG    1       -8.480   5.046   3.446  0.00  0.00    +0.720 C 
ATOM      7  N   LIG    1       -9.030   4.063   4.186  0.00  0.00    -0.640 N 
ATOM      8  C   LIG    1       -8.201   2.987   4.752  0.00  0.00    +0.250 C 
ATOM      9  C   LIG    1       -8.528   2.868   6.250  0.00  0.00    +0.220 C 
ATOM     10  O   LIG    1       -9.942   2.732   6.412  0.00  0.00    -0.380 OA
ATOM     11  C   LIG    1      -10.695   3.858   5.954  0.00  0.00    +0.220 C 
ATOM     12  C   LIG    1      -10.478   4.030   4.446  0.00  0.00    +0.270 C 
ATOM     13  O   LIG    1       -9.077   6.093   3.286  0.00  0.00    -0.580 OA
ATOM     14  C   LIG    1       -6.125   5.564   0.846  0.00  0.00    +0.170 C 
ENDROOT
BRANCH   1  15
ATOM     15  C   LIG    1       -4.782   3.961  -0.373  0.00  0.00    +0.210 C 
BRANCH  15  26
ATOM     16  C   LIG    1       -2.861  -0.054  -0.715  0.00  0.00    +0.040 C 
ATOM     17  C   LIG    1       -2.189   1.222  -1.226  0.00  0.00    +0.230 C 
ATOM     18  C   LIG    1       -1.729   1.036  -2.681  0.00  0.00    +0.090 C 
ATOM     19  C   LIG    1       -2.493   2.082  -3.461  0.00  0.00    -0.130 A 
ATOM     20  C   LIG    1       -2.489   2.390  -4.808  0.00  0.00    +0.060 A 
ATOM     21  C   LIG    1       -3.289   3.410  -5.290  0.00  0.00    -0.010 A 
ATOM     22  C   LIG    1       -4.095   4.121  -4.420  0.00  0.00    +0.050 A 
ATOM     23  C   LIG    1       -4.102   3.817  -3.075  0.00  0.00    -0.030 A 
ATOM     24  C   LIG    1       -3.297   2.789  -2.581  0.00  0.00    +0.140 A 
ATOM     25  N   LIG    1       -3.156   2.326  -1.270  0.00  0.00    -0.550 N 
ATOM     26  C   LIG    1       -3.812   2.820  -0.201  0.00  0.00    +0.530 C 
ATOM     27  O   LIG    1       -3.621   2.348   0.900  0.00  0.00    -0.500 OA
ENDBRANCH  15  26
ENDBRANCH   1  15
TORSDOF 2
