REMARK  Name = ZINCtV00000L6jWG.0
REMARK                            x       y       z     vdW  Elec       q    Type
REMARK                         _______ _______ _______ _____ _____    ______ ____
ROOT
ATOM      1  C   LIG    1       -0.238   0.084   0.429  0.00  0.00    +0.170 C 
ATOM      2  C   LIG    1       -0.873   0.884   1.537  0.00  0.00    +0.150 A 
ATOM      3  N   LIG    1       -0.265   1.302   2.620  0.00  0.00    -0.330 NA
ATOM      4  N   LIG    1       -1.173   2.011   3.413  0.00  0.00    -0.340 N 
ATOM      5  C   LIG    1       -1.047   2.642   4.623  0.00  0.00    +0.490 A 
ATOM      6  C   LIG    1       -2.149   3.269   5.165  0.00  0.00    -0.170 A 
ATOM      7  C   LIG    1       -3.357   3.243   4.469  0.00  0.00    +0.260 A 
ATOM      8  N   LIG    1       -3.443   2.627   3.309  0.00  0.00    -0.510 NA
ATOM      9  C   LIG    1       -2.383   2.015   2.770  0.00  0.00    +0.330 A 
ATOM     10  C   LIG    1       -2.206   1.309   1.574  0.00  0.00    -0.230 A 
ENDROOT
BRANCH   5  11
ATOM     11  N   LIG    1        0.161   2.649   5.287  0.00  0.00    -0.590 N 
ATOM     12  C   LIG    1        1.375   2.137   4.637  0.00  0.00    +0.290 C 
ATOM     13  C   LIG    1        2.462   3.221   4.709  0.00  0.00    -0.030 C 
ATOM     14  C   LIG    1        2.659   3.642   6.167  0.00  0.00    +0.030 C 
ATOM     15  C   LIG    1        1.355   4.230   6.711  0.00  0.00    -0.020 C 
ATOM     16  C   LIG    1        0.941   5.430   5.857  0.00  0.00    +0.030 C 
ATOM     17  C   LIG    1        3.775   2.663   4.156  0.00  0.00    +0.030 C 
ATOM     18  C   LIG    1        0.257   3.163   6.660  0.00  0.00    +0.290 C 
ENDBRANCH   5  11
BRANCH  10  19
ATOM     19  C   LIG    1       -3.239   1.055   0.542  0.00  0.00    +0.030 A 
ATOM     20  C   LIG    1       -3.791   2.119  -0.171  0.00  0.00    +0.040 A 
ATOM     21  C   LIG    1       -4.748   1.876  -1.135  0.00  0.00    +0.020 A 
ATOM     22  C   LIG    1       -5.168   0.581  -1.387  0.00  0.00    -0.040 A 
ATOM     23  C   LIG    1       -4.628  -0.478  -0.677  0.00  0.00    +0.020 A 
ATOM     24 CL   LIG    1       -6.378   0.284  -2.596  0.00  0.00    -0.080 Cl
ATOM     25  C   LIG    1       -3.666  -0.247   0.285  0.00  0.00    +0.030 A 
ENDBRANCH  10  19
BRANCH   7  26
ATOM     26  C   LIG    1       -4.571   3.923   5.048  0.00  0.00    -0.020 C 
ATOM     27  C   LIG    1       -4.280   5.414   5.233  0.00  0.00    +0.050 C 
ATOM     28  C   LIG    1       -4.909   3.297   6.403  0.00  0.00    +0.050 C 
ATOM     29  C   LIG    1       -5.756   3.749   4.096  0.00  0.00    +0.050 C 
ENDBRANCH   7  26
TORSDOF 3
