REMARK  Name = ZINCrD0000074rOy.0
REMARK                            x       y       z     vdW  Elec       q    Type
REMARK                         _______ _______ _______ _____ _____    ______ ____
ROOT
ATOM      1  C   LIG    1       -2.373  -0.303   3.181  0.00  0.00    +0.590 C 
ATOM      2  N   LIG    1       -1.330  -0.821   2.503  0.00  0.00    -0.720 N 
ATOM      3  H   LIG    1       -1.432  -1.655   2.019  0.00  0.00    +0.400 HD
ATOM      4  O   LIG    1       -2.245   0.744   3.788  0.00  0.00    -0.520 OA
ENDROOT
BRANCH   1  11
ATOM      5  C   LIG    1       -8.201  -4.849   2.339  0.00  0.00    +0.090 C 
ATOM      6  C   LIG    1       -7.350  -3.683   2.774  0.00  0.00    -0.050 A 
ATOM      7  C   LIG    1       -7.900  -2.693   3.579  0.00  0.00    -0.030 A 
ATOM      8  C   LIG    1       -7.147  -1.629   3.984  0.00  0.00    -0.030 A 
ATOM      9  C   LIG    1       -5.807  -1.533   3.587  0.00  0.00    -0.120 A 
ATOM     10  C   LIG    1       -4.785  -0.585   3.836  0.00  0.00    +0.060 A 
ATOM     11  CA  LIG    1       -3.667  -1.002   3.187  0.00  0.00    +0.010 A 
ATOM     12  N   LIG    1       -3.937  -2.192   2.539  0.00  0.00    -0.580 N 
ATOM     13  H   LIG    1       -3.305  -2.701   2.007  0.00  0.00    +0.410 HD
ATOM     14  C   LIG    1       -5.247  -2.536   2.772  0.00  0.00    +0.130 A 
ATOM     15  C   LIG    1       -7.756  -0.561   4.855  0.00  0.00    +0.090 C 
ATOM     16  C   LIG    1       -6.035  -3.611   2.371  0.00  0.00    -0.110 A 
ATOM     17  C   LIG    1       -5.452  -4.693   1.500  0.00  0.00    +0.090 C 
ENDBRANCH   1  11
BRANCH   2  18
ATOM     18  CA  LIG    1       -0.042  -0.124   2.497  0.00  0.00    +0.260 C 
BRANCH  18  19
ATOM     19  C   LIG    1        0.742  -0.511   1.242  0.00  0.00    +0.030 C 
BRANCH  19  20
ATOM     20  C   LIG    1        0.002  -0.004   0.002  0.00  0.00    +0.250 C 
BRANCH  20  21
ATOM     21  C   LIG    1        0.707  -0.490  -1.238  0.00  0.00    -0.120 A 
ATOM     22  C   LIG    1        1.836   0.166  -1.693  0.00  0.00    +0.010 A 
ATOM     23  C   LIG    1        2.486  -0.283  -2.828  0.00  0.00    +0.000 A 
ATOM     24  C   LIG    1        2.001  -1.381  -3.513  0.00  0.00    +0.000 A 
ATOM     25  C   LIG    1        0.869  -2.034  -3.061  0.00  0.00    +0.000 A 
ATOM     26  C   LIG    1        0.222  -1.588  -1.923  0.00  0.00    +0.010 A 
ENDBRANCH  20  21
BRANCH  20  27
ATOM     27  O   LIG    1       -0.017   1.425   0.010  0.00  0.00    -0.550 OA
ATOM     28  H   LIG    1        0.861   1.830   0.004  0.00  0.00    +0.370 HD
ENDBRANCH  20  27
ENDBRANCH  19  20
ENDBRANCH  18  19
BRANCH  18  29
ATOM     29  C   LIG    1        0.758  -0.520   3.740  0.00  0.00    +0.180 C 
BRANCH  29  30
ATOM     30  O   LIG    1        1.080  -1.911   3.676  0.00  0.00    -0.570 OA
ATOM     31  H   LIG    1        1.589  -2.232   4.433  0.00  0.00    +0.380 HD
ENDBRANCH  29  30
ENDBRANCH  18  29
ENDBRANCH   2  18
TORSDOF 8
