REMARK  Name = ZINCtV000002KfQV.0
REMARK                            x       y       z     vdW  Elec       q    Type
REMARK                         _______ _______ _______ _____ _____    ______ ____
ROOT
ATOM      1  C   LIG    1       -9.450   1.780   0.667  0.00  0.00    +0.180 C 
ATOM      2  C   LIG    1       -8.556   0.570   0.580  0.00  0.00    +0.150 A 
ATOM      3  N   LIG    1       -8.951  -0.668   0.611  0.00  0.00    -0.250 NA
ATOM      4  N   LIG    1       -7.843  -1.513   0.505  0.00  0.00    -0.300 N 
ATOM      5  C   LIG    1       -6.722  -0.732   0.406  0.00  0.00    +0.030 A 
ATOM      6  S   LIG    1       -4.972  -0.807   0.245  0.00  0.00    +0.200 S 
ATOM      7  C   LIG    1       -4.852   0.945   0.241  0.00  0.00    -0.280 A 
ATOM      8  C   LIG    1       -6.069   1.497   0.361  0.00  0.00    +0.190 A 
ATOM      9  C   LIG    1       -7.133   0.590   0.449  0.00  0.00    -0.220 A 
ENDROOT
BRANCH   4  10
ATOM     10  C   LIG    1       -7.873  -2.914   0.502  0.00  0.00    +0.140 A 
ATOM     11  C   LIG    1       -6.975  -3.627  -0.280  0.00  0.00    +0.040 A 
ATOM     12  C   LIG    1       -7.002  -5.008  -0.277  0.00  0.00    +0.020 A 
ATOM     13  C   LIG    1       -7.933  -5.681   0.497  0.00  0.00    +0.100 A 
ATOM     14  C   LIG    1       -8.834  -4.971   1.273  0.00  0.00    +0.020 A 
ATOM     15  F   LIG    1       -7.962  -7.032   0.495  0.00  0.00    -0.130 F 
ATOM     16  C   LIG    1       -8.806  -3.591   1.277  0.00  0.00    +0.070 A 
ENDBRANCH   4  10
BRANCH   7  17
ATOM     17  C   LIG    1       -3.599   1.697   0.130  0.00  0.00    +0.600 C 
ATOM     18  N   LIG    1       -2.427   1.041   0.019  0.00  0.00    -0.670 N 
ATOM     19  H   LIG    1       -2.418   0.075  -0.064  0.00  0.00    +0.410 HD
ATOM     20  O   LIG    1       -3.618   2.914   0.137  0.00  0.00    -0.500 OA
BRANCH  18  21
ATOM     21  C   LIG    1       -1.224   1.754   0.023  0.00  0.00    +0.140 A 
ATOM     22  C   LIG    1       -1.104   2.913   0.780  0.00  0.00    +0.020 A 
ATOM     23  C   LIG    1        0.087   3.611   0.787  0.00  0.00    +0.030 A 
ATOM     24  C   LIG    1        1.159   3.161   0.037  0.00  0.00    -0.080 A 
ATOM     25  C   LIG    1        1.041   2.011  -0.722  0.00  0.00    +0.030 A 
ATOM     26  C   LIG    1       -0.148   1.308  -0.733  0.00  0.00    -0.010 A 
BRANCH  24  27
ATOM     27  C   LIG    1        2.457   3.925   0.048  0.00  0.00    -0.030 C 
ATOM     28  C   LIG    1        2.217   5.346  -0.465  0.00  0.00    +0.040 C 
ATOM     29  C   LIG    1        3.471   3.221  -0.857  0.00  0.00    +0.030 C 
ATOM     30  C   LIG    1        3.003   3.983   1.476  0.00  0.00    +0.040 C 
ENDBRANCH  24  27
ENDBRANCH  18  21
ENDBRANCH   7  17
TORSDOF 4
