REMARK  Name = ZINCrD00000hQ6qX.0
REMARK                            x       y       z     vdW  Elec       q    Type
REMARK                         _______ _______ _______ _____ _____    ______ ____
ROOT
ATOM      1  O   LIG    1        5.782  -1.005   1.954  0.00  0.00    -0.330 OA
ENDROOT
BRANCH   1   3
ATOM      2  O   LIG    1        6.124   0.170   3.794  0.00  0.00    -0.510 OA
ATOM      3  C   LIG    1        6.122  -0.908   3.249  0.00  0.00    +0.490 C 
BRANCH   3   4
ATOM      4  C   LIG    1        6.503  -2.144   4.023  0.00  0.00    -0.010 C 
ATOM      5  C   LIG    1        7.964  -2.284   4.457  0.00  0.00    +0.100 C 
ATOM      6  C   LIG    1        6.883  -1.967   5.494  0.00  0.00    +0.050 C 
BRANCH   6   7
ATOM      7  C   LIG    1        6.494  -3.065   6.451  0.00  0.00    -0.130 A 
ATOM      8  C   LIG    1        5.824  -2.757   7.622  0.00  0.00    +0.140 A 
ATOM      9  C   LIG    1        5.462  -3.768   8.497  0.00  0.00    -0.010 A 
ATOM     10  C   LIG    1        5.779  -5.081   8.207  0.00  0.00    +0.090 A 
ATOM     11  C   LIG    1        6.453  -5.388   7.040  0.00  0.00    -0.010 A 
ATOM     12  F   LIG    1        5.519  -1.473   7.909  0.00  0.00    -0.120 F 
ATOM     13  C   LIG    1        6.811  -4.381   6.160  0.00  0.00    +0.130 A 
ATOM     14  F   LIG    1        7.470  -4.681   5.020  0.00  0.00    -0.120 F 
ENDBRANCH   6   7
ENDBRANCH   3   4
ENDBRANCH   1   3
BRANCH   1  15
ATOM     15  C   LIG    1        5.427   0.226   1.272  0.00  0.00    +0.210 C 
BRANCH  15  16
ATOM     16  C   LIG    1        5.071  -0.082  -0.184  0.00  0.00    +0.340 C 
BRANCH  16  17
ATOM     17  N   LIG    1        3.864  -0.911  -0.227  0.00  0.00    -0.550 N 
ATOM     18  C   LIG    1        4.002  -2.243  -0.203  0.00  0.00    +0.710 C 
ATOM     19  N   LIG    1        2.957  -3.090  -0.238  0.00  0.00    -0.730 N 
ATOM     20  H   LIG    1        3.101  -4.049  -0.219  0.00  0.00    +0.430 HD
ATOM     21  C   LIG    1        1.591  -2.543  -0.307  0.00  0.00    +0.310 C 
ATOM     22  C   LIG    1        1.458  -1.038  -0.333  0.00  0.00    -0.140 A 
ATOM     23  C   LIG    1        0.226  -0.429  -0.395  0.00  0.00    +0.060 A 
ATOM     24  C   LIG    1        0.143   0.953  -0.417  0.00  0.00    -0.010 A 
ATOM     25  C   LIG    1        1.295   1.716  -0.375  0.00  0.00    +0.050 A 
ATOM     26  C   LIG    1        2.534   1.108  -0.313  0.00  0.00    -0.030 A 
ATOM     27  O   LIG    1        5.123  -2.709  -0.147  0.00  0.00    -0.560 OA
ATOM     28  C   LIG    1        2.622  -0.277  -0.291  0.00  0.00    +0.170 A 
ENDBRANCH  16  17
ENDBRANCH  15  16
ENDBRANCH   1  15
TORSDOF 6
