REMARK  Name = ZINCrD00000F5Lw1.0
REMARK                            x       y       z     vdW  Elec       q    Type
REMARK                         _______ _______ _______ _____ _____    ______ ____
ROOT
ATOM      1  N   LIG    1        4.258   1.629  -0.030  0.00  0.00    -0.640 N 
ENDROOT
BRANCH   1   2
ATOM      2  C   LIG    1        3.430   0.530  -0.002  0.00  0.00    +0.400 A 
ATOM      3  C   LIG    1        3.393  -0.293   1.105  0.00  0.00    -0.060 A 
ATOM      4  C   LIG    1        2.542  -1.397   1.100  0.00  0.00    +0.370 A 
ATOM      5  N   LIG    1        1.785  -1.652   0.055  0.00  0.00    -0.450 NA
ATOM      6  C   LIG    1        1.807  -0.863  -1.029  0.00  0.00    +0.400 A 
ATOM      7  N   LIG    1        1.147  -0.919  -2.177  0.00  0.00    -0.480 NA
ATOM      8  C   LIG    1        1.519   0.106  -2.952  0.00  0.00    +0.250 A 
ATOM      9  C   LIG    1        2.437   0.837  -2.288  0.00  0.00    +0.070 A 
ATOM     10  N   LIG    1        2.628   0.234  -1.071  0.00  0.00    -0.410 N 
ENDBRANCH   1   2
BRANCH   1  11
ATOM     11  C   LIG    1        3.687   2.975  -0.127  0.00  0.00    +0.400 C 
BRANCH  11  15
ATOM     12  C   LIG    1        2.859   4.312   3.500  0.00  0.00    +0.070 A 
ATOM     13  N   LIG    1        4.041   4.661   3.120  0.00  0.00    -0.470 NA
ATOM     14  C   LIG    1        4.429   4.265   1.925  0.00  0.00    +0.240 A 
ATOM     15  C   LIG    1        3.520   3.551   1.255  0.00  0.00    -0.270 A 
ATOM     16  S   LIG    1        2.093   3.395   2.277  0.00  0.00    +0.140 S 
BRANCH  12  18
ATOM     17  C   LIG    1        2.165   6.185   4.970  0.00  0.00    +0.060 C 
ATOM     18  C   LIG    1        2.241   4.663   4.829  0.00  0.00    +0.010 C 
ATOM     19  C   LIG    1        3.099   4.089   5.958  0.00  0.00    +0.070 C 
ATOM     20  C   LIG    1        0.832   4.073   4.909  0.00  0.00    +0.040 C 
ENDBRANCH  12  18
ENDBRANCH  11  15
ENDBRANCH   1  11
BRANCH   1  21
ATOM     21  C   LIG    1        5.711   1.454   0.037  0.00  0.00    +0.310 C 
BRANCH  21  22
ATOM     22  C   LIG    1        6.274   1.312  -1.378  0.00  0.00    +0.300 C 
BRANCH  22  23
ATOM     23  N   LIG    1        7.727   1.137  -1.311  0.00  0.00    -0.380 N 
ATOM     24  C   LIG    1        8.430   0.121  -1.854  0.00  0.00    +0.230 A 
ATOM     25  C   LIG    1        9.737   0.325  -1.570  0.00  0.00    -0.120 A 
ATOM     26  C   LIG    1        9.836   1.507  -0.828  0.00  0.00    +0.240 A 
ATOM     27  N   LIG    1        8.633   1.997  -0.677  0.00  0.00    -0.300 NA
ENDBRANCH  22  23
ENDBRANCH  21  22
ENDBRANCH   1  21
TORSDOF 7
