REMARK  Name = ZINCpe00000VVGo0.0
REMARK                            x       y       z     vdW  Elec       q    Type
REMARK                         _______ _______ _______ _____ _____    ______ ____
ROOT
ATOM      1  N   LIG    1        2.422   0.399  -0.260  0.00  0.00    -0.520 NA
ATOM      2  C   LIG    1        1.351  -0.385   0.369  0.00  0.00    +0.190 C 
ATOM      3  C   LIG    1        0.022  -0.084  -0.333  0.00  0.00    +0.300 C 
ATOM      4  N   LIG    1       -0.188   1.372  -0.329  0.00  0.00    -0.610 N 
ATOM      5  C   LIG    1        0.899   2.233  -0.818  0.00  0.00    +0.270 C 
ATOM      6  C   LIG    1       -1.349   1.902   0.106  0.00  0.00    +0.590 C 
ATOM      7  O   LIG    1       -2.280   1.174   0.392  0.00  0.00    -0.510 OA
ATOM      8  C   LIG    1        2.193   1.841  -0.097  0.00  0.00    +0.170 C 
ENDROOT
BRANCH   6   9
ATOM      9  C   LIG    1       -1.489   3.361   0.233  0.00  0.00    -0.030 A 
ATOM     10  C   LIG    1       -2.661   4.089   0.158  0.00  0.00    +0.040 A 
ATOM     11  C   LIG    1       -2.277   5.432   0.343  0.00  0.00    +0.100 A 
ATOM     12  N   LIG    1       -0.969   5.452   0.503  0.00  0.00    -0.240 NA
ATOM     13  N   LIG    1       -0.484   4.264   0.444  0.00  0.00    -0.370 N 
ATOM     14  H   LIG    1        0.455   4.041   0.536  0.00  0.00    +0.450 HD
BRANCH  11  15
ATOM     15  C   LIG    1       -3.177   6.605   0.350  0.00  0.00    +0.060 A 
ATOM     16  C   LIG    1       -2.800   7.898   0.529  0.00  0.00    -0.020 A 
ATOM     17  C   LIG    1       -3.973   8.677   0.459  0.00  0.00    -0.060 A 
ATOM     18  C   LIG    1       -4.998   7.828   0.251  0.00  0.00    +0.190 A 
ATOM     19  O   LIG    1       -4.513   6.577   0.185  0.00  0.00    -0.170 OA
ENDBRANCH  11  15
ENDBRANCH   6   9
BRANCH   1  20
ATOM     20  C   LIG    1        3.737   0.012   0.268  0.00  0.00    +0.210 C 
BRANCH  20  21
ATOM     21  C   LIG    1        3.826   0.396   1.746  0.00  0.00    +0.180 C 
BRANCH  21  22
ATOM     22  O   LIG    1        2.907  -0.398   2.501  0.00  0.00    -0.550 OA
ATOM     23  H   LIG    1        3.069  -1.349   2.442  0.00  0.00    +0.370 HD
ENDBRANCH  21  22
BRANCH  21  24
ATOM     24  C   LIG    1        5.248   0.148   2.253  0.00  0.00    +0.140 C 
BRANCH  24  25
ATOM     25  O   LIG    1        5.363   0.614   3.599  0.00  0.00    -0.380 OA
BRANCH  25  27
ATOM     26  C   LIG    1        6.666   0.961   5.604  0.00  0.00    +0.040 C 
ATOM     27  C   LIG    1        6.660   0.429   4.170  0.00  0.00    +0.160 C 
ENDBRANCH  25  27
ENDBRANCH  24  25
ENDBRANCH  21  24
ENDBRANCH  20  21
ENDBRANCH   1  20
TORSDOF 8
