REMARK  Name = ZINCrH000004sFWQ.0
REMARK                            x       y       z     vdW  Elec       q    Type
REMARK                         _______ _______ _______ _____ _____    ______ ____
ROOT
ATOM      1  C   LIG    1       -0.268   6.732  -0.921  0.00  0.00    +0.180 C 
ATOM      2  C   LIG    1        0.501   5.547  -0.397  0.00  0.00    +0.150 A 
ATOM      3  N   LIG    1        0.207   4.299  -0.608  0.00  0.00    -0.250 NA
ATOM      4  N   LIG    1        1.143   3.485   0.038  0.00  0.00    -0.300 N 
ATOM      5  C   LIG    1        2.053   4.297   0.662  0.00  0.00    +0.030 A 
ATOM      6  S   LIG    1        3.505   4.272   1.654  0.00  0.00    +0.200 S 
ATOM      7  C   LIG    1        3.561   6.026   1.697  0.00  0.00    -0.280 A 
ATOM      8  C   LIG    1        2.539   6.544   0.999  0.00  0.00    +0.200 A 
ATOM      9  C   LIG    1        1.680   5.607   0.410  0.00  0.00    -0.220 A 
ENDROOT
BRANCH   4  10
ATOM     10  C   LIG    1        1.151   2.085   0.041  0.00  0.00    +0.150 A 
ATOM     11  C   LIG    1       -0.046   1.381   0.056  0.00  0.00    +0.030 A 
ATOM     12  C   LIG    1       -0.034   0.000   0.059  0.00  0.00    +0.040 A 
ATOM     13  C   LIG    1        1.169  -0.682   0.046  0.00  0.00    +0.010 A 
ATOM     14  C   LIG    1        2.363   0.015   0.032  0.00  0.00    +0.050 A 
ATOM     15  C   LIG    1        2.357   1.396   0.029  0.00  0.00    +0.000 A 
ENDBRANCH   4  10
BRANCH   7  16
ATOM     16  C   LIG    1        4.581   6.813   2.396  0.00  0.00    +0.600 C 
ATOM     17  N   LIG    1        5.568   6.190   3.070  0.00  0.00    -0.670 N 
ATOM     18  H   LIG    1        5.567   5.223   3.148  0.00  0.00    +0.410 HD
ATOM     19  O   LIG    1        4.536   8.029   2.368  0.00  0.00    -0.500 OA
BRANCH  17  20
ATOM     20  C   LIG    1        6.590   6.935   3.654  0.00  0.00    +0.170 A 
ATOM     21  C   LIG    1        7.885   6.426   3.695  0.00  0.00    -0.020 A 
ATOM     22  C   LIG    1        8.898   7.162   4.267  0.00  0.00    +0.070 A 
ATOM     23  C   LIG    1        8.623   8.417   4.816  0.00  0.00    -0.160 A 
ATOM     24  C   LIG    1        7.321   8.924   4.778  0.00  0.00    +0.100 A 
ATOM     25  C   LIG    1        6.314   8.185   4.200  0.00  0.00    +0.020 A 
BRANCH  23  26
ATOM     26  C   LIG    1        9.706   9.206   5.436  0.00  0.00    +0.560 C 
ATOM     27  O   LIG    1        9.466  10.297   5.914  0.00  0.00    -0.540 OA
ATOM     28  N   LIG    1       10.961   8.716   5.471  0.00  0.00    -0.850 N 
ATOM     29  H   LIG    1       11.672   9.234   5.879  0.00  0.00    +0.410 HD
ATOM     30  H   LIG    1       11.153   7.845   5.090  0.00  0.00    +0.400 HD
ENDBRANCH  23  26
ENDBRANCH  17  20
ENDBRANCH   7  16
TORSDOF 4
