REMARK  Name = ZINCrg000000qKqv.0
REMARK                            x       y       z     vdW  Elec       q    Type
REMARK                         _______ _______ _______ _____ _____    ______ ____
ROOT
ATOM      1  C   LIG    1       -0.724   2.012   1.250  0.00  0.00    +0.520 C 
ATOM      2  N   LIG    1       -0.863   3.334   1.472  0.00  0.00    -0.610 N 
ATOM      3  C   LIG    1       -0.327   4.314   0.517  0.00  0.00    +0.270 C 
ATOM      4  C   LIG    1       -1.457   5.273   0.116  0.00  0.00    +0.020 C 
ATOM      5  C   LIG    1       -2.065   5.893   1.376  0.00  0.00    +0.020 C 
ATOM      6  C   LIG    1       -2.660   4.788   2.253  0.00  0.00    +0.230 C 
ATOM      7  C   LIG    1       -1.548   3.823   2.676  0.00  0.00    +0.280 C 
ATOM      8  O   LIG    1       -1.167   1.213   2.049  0.00  0.00    -0.540 OA
ENDROOT
BRANCH   6   9
ATOM      9  N   LIG    1       -3.269   5.385   3.444  0.00  0.00    -0.600 N 
ATOM     10  C   LIG    1       -4.695   5.175   3.679  0.00  0.00    +0.280 C 
ATOM     11  C   LIG    1       -5.035   5.468   5.141  0.00  0.00    +0.190 C 
ATOM     12  N   LIG    1       -4.479   6.782   5.501  0.00  0.00    -0.680 NA
ATOM     13  H   LIG    1       -4.848   7.101   6.385  0.00  0.00    +0.360 HD
ATOM     14  C   LIG    1       -3.012   6.719   5.536  0.00  0.00    +0.230 C 
ATOM     15  C   LIG    1       -2.494   6.093   4.272  0.00  0.00    +0.520 C 
ATOM     16  O   LIG    1       -1.324   6.241   3.988  0.00  0.00    -0.540 OA
ENDBRANCH   6   9
BRANCH   1  17
ATOM     17  C   LIG    1       -0.019   1.526   0.010  0.00  0.00    +0.070 C 
BRANCH  17  18
ATOM     18  C   LIG    1        0.002  -0.004   0.002  0.00  0.00    +0.100 C 
BRANCH  18  22
ATOM     19  C   LIG    1        2.009  -1.384  -3.513  0.00  0.00    +0.100 A 
ATOM     20  C   LIG    1        2.725  -1.148  -2.351  0.00  0.00    -0.030 A 
ATOM     21  C   LIG    1        2.073  -0.702  -1.216  0.00  0.00    +0.020 A 
ATOM     22  C   LIG    1        0.707  -0.490  -1.238  0.00  0.00    -0.080 A 
ATOM     23  C   LIG    1       -0.014  -0.729  -2.393  0.00  0.00    -0.040 A 
ATOM     24  C   LIG    1        0.634  -1.170  -3.535  0.00  0.00    +0.100 A 
BRANCH  19  26
ATOM     25  C   LIG    1        4.061  -2.019  -4.535  0.00  0.00    +0.240 C 
ATOM     26  O   LIG    1        2.649  -1.822  -4.630  0.00  0.00    -0.310 OA
ENDBRANCH  19  26
BRANCH  24  27
ATOM     27  O   LIG    1       -0.073  -1.400  -4.674  0.00  0.00    -0.310 OA
ATOM     28  C   LIG    1       -1.481  -1.160  -4.623  0.00  0.00    +0.240 C 
ENDBRANCH  24  27
ENDBRANCH  18  22
ENDBRANCH  17  18
ENDBRANCH   1  17
TORSDOF 6
