REMARK  Name = ZINCrg00000fSFGV.0
REMARK                            x       y       z     vdW  Elec       q    Type
REMARK                         _______ _______ _______ _____ _____    ______ ____
ROOT
ATOM      1  O   LIG    1       -0.890   3.458  -1.596  0.00  0.00    -0.510 OA
ATOM      2  C   LIG    1        0.192   3.836  -2.002  0.00  0.00    +0.560 C 
ATOM      3  N   LIG    1        1.287   3.700  -1.228  0.00  0.00    -0.720 N 
ATOM      4  H   LIG    1        2.150   4.002  -1.551  0.00  0.00    +0.400 HD
ENDROOT
BRANCH   2   5
ATOM      5  C   LIG    1        0.307   4.444  -3.344  0.00  0.00    -0.140 A 
ATOM      6  C   LIG    1        1.547   4.880  -3.813  0.00  0.00    +0.060 A 
ATOM      7  C   LIG    1        1.647   5.446  -5.067  0.00  0.00    +0.010 A 
ATOM      8  C   LIG    1        0.522   5.583  -5.859  0.00  0.00    +0.080 A 
ATOM      9  C   LIG    1       -0.711   5.154  -5.401  0.00  0.00    -0.130 A 
ATOM     10  C   LIG    1       -0.824   4.581  -4.151  0.00  0.00    +0.100 A 
BRANCH   9  11
ATOM     11  C   LIG    1       -1.932   5.307  -6.271  0.00  0.00    +0.390 C 
BRANCH  11  12
ATOM     12  N   LIG    1       -2.096   4.109  -7.098  0.00  0.00    -0.290 N 
ATOM     13  C   LIG    1       -3.203   3.333  -7.159  0.00  0.00    +0.140 A 
ATOM     14  C   LIG    1       -2.922   2.345  -8.041  0.00  0.00    +0.140 A 
ATOM     15  N   LIG    1       -1.671   2.558  -8.464  0.00  0.00    -0.270 NA
ATOM     16  N   LIG    1       -1.209   3.610  -7.887  0.00  0.00    -0.080 NA
ENDBRANCH  11  12
ENDBRANCH   9  11
ENDBRANCH   2   5
BRANCH   3  17
ATOM     17  C   LIG    1        1.173   3.097   0.102  0.00  0.00    +0.260 C 
ATOM     18  C   LIG    1        2.337   3.564   0.994  0.00  0.00    +0.050 C 
ATOM     19  C   LIG    1        3.117   2.296   1.401  0.00  0.00    -0.020 C 
ATOM     20  C   LIG    1        2.081   1.153   1.263  0.00  0.00    +0.020 C 
ATOM     21  C   LIG    1        1.286   1.562  -0.002  0.00  0.00    +0.150 C 
BRANCH  21  22
ATOM     22  O   LIG    1       -0.011   0.963   0.007  0.00  0.00    -0.550 OA
ATOM     23  H   LIG    1        0.002  -0.004   0.002  0.00  0.00    +0.380 HD
ENDBRANCH  21  22
BRANCH  19  24
ATOM     24  C   LIG    1        3.603   2.407   2.847  0.00  0.00    +0.330 C 
BRANCH  24  25
ATOM     25  N   LIG    1        4.364   1.206   3.200  0.00  0.00    -0.370 N 
ATOM     26  C   LIG    1        5.626   1.179   3.678  0.00  0.00    +0.220 A 
ATOM     27  C   LIG    1        5.962  -0.117   3.879  0.00  0.00    -0.120 A 
ATOM     28  C   LIG    1        4.872  -0.908   3.502  0.00  0.00    +0.220 A 
ATOM     29  N   LIG    1        3.914  -0.116   3.095  0.00  0.00    -0.290 NA
ENDBRANCH  24  25
ENDBRANCH  19  24
ENDBRANCH   3  17
TORSDOF 7
