REMARK  Name = ZINCqH00000037cw.0
REMARK                            x       y       z     vdW  Elec       q    Type
REMARK                         _______ _______ _______ _____ _____    ______ ____
ROOT
ATOM      1  C   LIG    1        4.256   0.034  -1.429  0.00  0.00    +0.290 C 
ENDROOT
BRANCH   1   2
ATOM      2  C   LIG    1        4.716  -0.212  -2.843  0.00  0.00    +0.450 A 
ATOM      3  N   LIG    1        3.931   0.148  -3.819  0.00  0.00    -0.560 NA
ATOM      4  C   LIG    1        4.274  -0.034  -5.109  0.00  0.00    +0.530 A 
ATOM      5  C   LIG    1        5.572  -0.668  -5.398  0.00  0.00    -0.210 A 
ATOM      6  C   LIG    1        6.008  -0.901  -6.700  0.00  0.00    +0.140 A 
ATOM      7  C   LIG    1        7.223  -1.494  -6.910  0.00  0.00    +0.010 A 
ATOM      8  C   LIG    1        8.023  -1.865  -5.837  0.00  0.00    +0.020 A 
ATOM      9  C   LIG    1        7.608  -1.642  -4.539  0.00  0.00    -0.010 A 
ATOM     10 CL   LIG    1        9.560  -2.616  -6.131  0.00  0.00    -0.050 Cl
ATOM     11  C   LIG    1        6.379  -1.042  -4.307  0.00  0.00    +0.190 A 
ATOM     12  O   LIG    1        3.530   0.312  -6.011  0.00  0.00    -0.470 OA
ATOM     13  N   LIG    1        5.913  -0.795  -3.031  0.00  0.00    -0.630 N 
ATOM     14  H   LIG    1        6.453  -1.045  -2.265  0.00  0.00    +0.420 HD
ENDBRANCH   1   2
BRANCH   1  15
ATOM     15  N   LIG    1        2.997   0.789  -1.448  0.00  0.00    -0.500 NA
BRANCH  15  17
ATOM     16  C   LIG    1        4.121   2.876  -0.831  0.00  0.00    -0.020 C 
ATOM     17  C   LIG    1        3.224   2.181  -1.858  0.00  0.00    +0.230 C 
ENDBRANCH  15  17
BRANCH  15  18
ATOM     18  C   LIG    1        2.326   0.728  -0.142  0.00  0.00    +0.230 C 
BRANCH  18  19
ATOM     19  C   LIG    1        0.936   1.298  -0.264  0.00  0.00    -0.090 A 
ATOM     20  C   LIG    1       -0.122   0.470  -0.588  0.00  0.00    +0.070 A 
ATOM     21  C   LIG    1       -1.398   0.990  -0.706  0.00  0.00    -0.040 A 
ATOM     22  C   LIG    1       -1.617   2.341  -0.488  0.00  0.00    +0.100 A 
ATOM     23  C   LIG    1       -0.552   3.172  -0.164  0.00  0.00    +0.070 A 
ATOM     24  F   LIG    1       -0.762   4.490   0.044  0.00  0.00    -0.130 F 
ATOM     25  C   LIG    1        0.722   2.647  -0.053  0.00  0.00    +0.030 A 
BRANCH  22  26
ATOM     26  O   LIG    1       -2.872   2.853  -0.599  0.00  0.00    -0.310 OA
ATOM     27  C   LIG    1       -3.918   1.940  -0.936  0.00  0.00    +0.250 C 
ENDBRANCH  22  26
ENDBRANCH  18  19
ENDBRANCH  15  18
ENDBRANCH   1  15
TORSDOF 6
