REMARK  Name = ZINCtV00001bB3oJ.0
REMARK                            x       y       z     vdW  Elec       q    Type
REMARK                         _______ _______ _______ _____ _____    ______ ____
ROOT
ATOM      1  P   LIG    1        2.511   0.704   0.012  0.00  0.00    +2.540 P 
ATOM      2  O   LIG    1        2.754  -0.638   0.586  0.00  0.00    -1.010 OA
ENDROOT
BRANCH   1   3
ATOM      3  C   LIG    1        3.084   0.739  -1.709  0.00  0.00    -0.780 C 
ATOM      4  C   LIG    1        4.274   0.257  -2.018  0.00  0.00    +0.290 C 
ATOM      5  N   LIG    1        5.333   0.043  -1.149  0.00  0.00    -0.540 N 
ATOM      6  C   LIG    1        6.441  -0.481  -1.814  0.00  0.00    +0.160 A 
ATOM      7  C   LIG    1        7.698  -0.843  -1.331  0.00  0.00    -0.020 A 
ATOM      8  C   LIG    1        8.654  -1.341  -2.192  0.00  0.00    +0.050 A 
ATOM      9  C   LIG    1        8.374  -1.485  -3.538  0.00  0.00    -0.020 A 
ATOM     10  C   LIG    1        7.129  -1.127  -4.025  0.00  0.00    +0.070 A 
ATOM     11  C   LIG    1        6.171  -0.629  -3.169  0.00  0.00    -0.140 A 
ATOM     12  C   LIG    1        5.291   0.326   0.288  0.00  0.00    +0.300 C 
ATOM     13  C   LIG    1        4.751  -0.162  -3.392  0.00  0.00    -0.010 C 
ATOM     14  C   LIG    1        4.725   1.028  -4.354  0.00  0.00    +0.060 C 
ATOM     15  C   LIG    1        3.890  -1.306  -3.931  0.00  0.00    +0.080 C 
ENDBRANCH   1   3
BRANCH   1  16
ATOM     16  C   LIG    1        0.735   1.072   0.065  0.00  0.00    -0.750 A 
ATOM     17  C   LIG    1       -0.168   0.073   0.376  0.00  0.00    +0.110 A 
ATOM     18  C   LIG    1       -1.522   0.352   0.410  0.00  0.00    -0.010 A 
ATOM     19  C   LIG    1       -1.971   1.632   0.145  0.00  0.00    +0.050 A 
ATOM     20  C   LIG    1       -1.067   2.631  -0.166  0.00  0.00    -0.010 A 
ATOM     21  C   LIG    1        0.286   2.351  -0.206  0.00  0.00    +0.050 A 
ENDBRANCH   1  16
BRANCH   1  22
ATOM     22  O   LIG    1        3.313   1.808   0.867  0.00  0.00    -0.640 OA
BRANCH  22  29
ATOM     23  C   LIG    1        1.794   3.977   1.851  0.00  0.00    +0.100 C 
ATOM     24  C   LIG    1        2.265   2.848   2.732  0.00  0.00    -0.090 A 
ATOM     25  C   LIG    1        1.951   2.844   4.077  0.00  0.00    +0.020 A 
ATOM     26  C   LIG    1        2.388   1.812   4.887  0.00  0.00    +0.020 A 
ATOM     27  C   LIG    1        3.134   0.779   4.352  0.00  0.00    +0.020 A 
ATOM     28  C   LIG    1        3.445   0.775   3.006  0.00  0.00    +0.020 A 
ATOM     29  C   LIG    1        3.008   1.809   2.191  0.00  0.00    +0.080 A 
ENDBRANCH  22  29
ENDBRANCH   1  22
TORSDOF 4
