REMARK  Name = ZINCpe00000METoJ.0
REMARK                            x       y       z     vdW  Elec       q    Type
REMARK                         _______ _______ _______ _____ _____    ______ ____
ROOT
ATOM      1  C   LIG    1        3.767  -1.014   0.171  0.00  0.00    +0.230 C 
ATOM      2  C   LIG    1        4.031  -2.042  -0.929  0.00  0.00    +0.320 C 
ATOM      3  N   LIG    1        2.795  -2.769  -1.215  0.00  0.00    -0.470 N 
ATOM      4  C   LIG    1        2.641  -3.949  -1.849  0.00  0.00    +0.190 A 
ATOM      5  N   LIG    1        1.358  -4.201  -1.885  0.00  0.00    -0.290 NA
ATOM      6  N   LIG    1        0.710  -3.247  -1.308  0.00  0.00    -0.270 NA
ATOM      7  C   LIG    1        3.740  -4.814  -2.409  0.00  0.00    +0.200 C 
ATOM      8  C   LIG    1        1.547  -2.353  -0.881  0.00  0.00    +0.150 A 
ATOM      9  C   LIG    1        1.260  -1.069  -0.141  0.00  0.00    +0.440 C 
ATOM     10  N   LIG    1        2.516  -0.296  -0.118  0.00  0.00    -0.610 N 
ATOM     11  C   LIG    1        2.519   1.030  -0.361  0.00  0.00    +0.570 C 
ATOM     12  O   LIG    1        3.570   1.639  -0.397  0.00  0.00    -0.500 OA
ENDROOT
BRANCH  11  13
ATOM     13  C   LIG    1        1.246   1.741  -0.582  0.00  0.00    -0.160 A 
ATOM     14  C   LIG    1        1.204   2.875  -1.410  0.00  0.00    +0.150 A 
ATOM     15  N   LIG    1        2.154   3.548  -2.135  0.00  0.00    -0.580 N 
ATOM     16  H   LIG    1        3.092   3.308  -2.182  0.00  0.00    +0.420 HD
ATOM     17  C   LIG    1        1.581   4.610  -2.783  0.00  0.00    +0.220 A 
ATOM     18  C   LIG    1        0.269   4.660  -2.506  0.00  0.00    -0.050 A 
ATOM     19  C   LIG    1       -0.020   3.539  -1.607  0.00  0.00    -0.120 A 
ATOM     20  C   LIG    1       -1.177   3.071  -0.983  0.00  0.00    +0.100 A 
ATOM     21  C   LIG    1       -1.121   1.953  -0.177  0.00  0.00    -0.020 A 
ATOM     22  C   LIG    1        0.077   1.293   0.030  0.00  0.00    +0.070 A 
ENDBRANCH  11  13
BRANCH   1  26
ATOM     23  C   LIG    1        6.527   1.302   1.465  0.00  0.00    +0.290 C 
ATOM     24  N   LIG    1        5.416   0.348   1.414  0.00  0.00    -0.730 N 
ATOM     25  H   LIG    1        5.044  -0.009   2.236  0.00  0.00    +0.400 HD
ATOM     26  C   LIG    1        4.910  -0.033   0.224  0.00  0.00    +0.540 C 
ATOM     27  O   LIG    1        5.374   0.413  -0.803  0.00  0.00    -0.510 OA
ENDBRANCH   1  26
TORSDOF 2
