REMARK  Name = ZINCtV000002Na9v.0
REMARK                            x       y       z     vdW  Elec       q    Type
REMARK                         _______ _______ _______ _____ _____    ______ ____
ROOT
ATOM      1  C   LIG    1        2.407   0.092  -0.592  0.00  0.00    -0.260 A 
ATOM      2  C   LIG    1        1.384  -0.648  -1.194  0.00  0.00    +0.140 A 
ATOM      3  C   LIG    1        0.352   0.038  -1.811  0.00  0.00    -0.090 A 
ATOM      4  C   LIG    1        0.361   1.421  -1.816  0.00  0.00    +0.350 A 
ATOM      5  N   LIG    1        1.334   2.101  -1.242  0.00  0.00    -0.530 NA
ATOM      6  C   LIG    1        2.345   1.496  -0.638  0.00  0.00    +0.440 A 
ENDROOT
BRANCH   1   8
ATOM      7  O   LIG    1        4.466   0.061   0.507  0.00  0.00    -0.540 OA
ATOM      8  C   LIG    1        3.530  -0.588   0.080  0.00  0.00    +0.580 C 
ATOM      9  N   LIG    1        3.519  -1.928   0.220  0.00  0.00    -0.720 N 
ATOM     10  H   LIG    1        2.773  -2.445  -0.120  0.00  0.00    +0.400 HD
BRANCH   9  11
ATOM     11  C   LIG    1        4.635  -2.603   0.888  0.00  0.00    +0.340 C 
BRANCH  11  12
ATOM     12  C   LIG    1        4.379  -4.088   0.914  0.00  0.00    -0.080 A 
ATOM     13  C   LIG    1        3.707  -4.656   1.980  0.00  0.00    +0.040 A 
ATOM     14  C   LIG    1        3.469  -6.017   2.002  0.00  0.00    +0.070 A 
ATOM     15  C   LIG    1        3.912  -6.813   0.962  0.00  0.00    -0.170 A 
ATOM     16  C   LIG    1        4.588  -6.247  -0.102  0.00  0.00    +0.070 A 
ATOM     17  C   LIG    1        4.822  -4.884  -0.126  0.00  0.00    +0.040 A 
BRANCH  15  18
ATOM     18  C   LIG    1        3.657  -8.298   0.988  0.00  0.00    +0.510 C 
ATOM     19  F   LIG    1        3.540  -8.774  -0.322  0.00  0.00    -0.180 F 
ATOM     20  F   LIG    1        2.472  -8.555   1.686  0.00  0.00    -0.180 F 
ATOM     21  F   LIG    1        4.723  -8.943   1.626  0.00  0.00    -0.170 F 
ENDBRANCH  15  18
ENDBRANCH  11  12
ENDBRANCH   9  11
ENDBRANCH   1   8
BRANCH   6  22
ATOM     22  N   LIG    1        3.345   2.249  -0.049  0.00  0.00    -0.640 N 
ATOM     23  H   LIG    1        4.140   1.814   0.297  0.00  0.00    +0.440 HD
BRANCH  22  24
ATOM     24  C   LIG    1        3.211   3.638   0.047  0.00  0.00    +0.180 A 
ATOM     25  C   LIG    1        4.330   4.453  -0.054  0.00  0.00    +0.010 A 
ATOM     26  C   LIG    1        4.195   5.825   0.040  0.00  0.00    +0.080 A 
ATOM     27  C   LIG    1        2.946   6.386   0.236  0.00  0.00    -0.050 A 
ATOM     28  C   LIG    1        1.827   5.575   0.337  0.00  0.00    -0.010 A 
ATOM     29 CL   LIG    1        0.261   6.284   0.582  0.00  0.00    -0.050 Cl
ATOM     30 CL   LIG    1        2.780   8.110   0.355  0.00  0.00    -0.050 Cl
ATOM     31  C   LIG    1        1.957   4.203   0.237  0.00  0.00    +0.050 A 
ENDBRANCH  22  24
ENDBRANCH   6  22
TORSDOF 6
