REMARK  Name = ZINCpk00000KfL55.0
REMARK                            x       y       z     vdW  Elec       q    Type
REMARK                         _______ _______ _______ _____ _____    ______ ____
ROOT
ATOM      1  C   LIG    1       -4.385   1.933  -5.456  0.00  0.00    +0.010 C 
ATOM      2  C   LIG    1       -5.222   1.269  -4.359  0.00  0.00    +0.030 C 
ATOM      3  C   LIG    1       -5.636   2.328  -3.334  0.00  0.00    +0.050 C 
ATOM      4  C   LIG    1       -4.383   2.995  -2.762  0.00  0.00    +0.170 C 
ATOM      5  N   LIG    1       -3.618   3.616  -3.850  0.00  0.00    -0.510 NA
ATOM      6  C   LIG    1       -3.168   2.612  -4.823  0.00  0.00    +0.200 C 
ENDROOT
BRANCH   1  11
ATOM      7  N   LIG    1       -5.060   0.378  -8.369  0.00  0.00    -0.580 N 
ATOM      8  C   LIG    1       -4.023   1.158  -8.695  0.00  0.00    +0.700 C 
ATOM      9  N   LIG    1       -3.285   1.504  -7.625  0.00  0.00    -0.720 N 
ATOM     10  H   LIG    1       -2.491   2.062  -7.624  0.00  0.00    +0.440 HD
ATOM     11  C   LIG    1       -3.917   0.872  -6.454  0.00  0.00    +0.130 C 
ATOM     12  C   LIG    1       -2.950  -0.106  -5.783  0.00  0.00    +0.080 C 
ATOM     13  O   LIG    1       -3.776   1.514  -9.830  0.00  0.00    -0.540 OA
ATOM     14  C   LIG    1       -5.103   0.132  -7.041  0.00  0.00    +0.530 C 
ATOM     15  O   LIG    1       -5.917  -0.538  -6.443  0.00  0.00    -0.460 OA
BRANCH   7  17
ATOM     16  C   LIG    1       -5.545  -1.501  -9.858  0.00  0.00    +0.030 C 
ATOM     17  C   LIG    1       -6.029  -0.148  -9.334  0.00  0.00    +0.310 C 
ENDBRANCH   7  17
ENDBRANCH   1  11
BRANCH   5  18
ATOM     18  C   LIG    1       -2.482   4.384  -3.324  0.00  0.00    +0.390 C 
BRANCH  18  19
ATOM     19  C   LIG    1       -1.494   3.444  -2.681  0.00  0.00    +0.120 A 
ATOM     20  N   LIG    1       -0.492   2.857  -3.272  0.00  0.00    -0.270 NA
ATOM     21  N   LIG    1        0.137   2.127  -2.420  0.00  0.00    -0.290 NA
ATOM     22  C   LIG    1       -0.442   2.223  -1.257  0.00  0.00    +0.200 A 
ATOM     23  O   LIG    1       -1.489   3.053  -1.396  0.00  0.00    -0.220 OA
BRANCH  22  24
ATOM     24  C   LIG    1       -0.019   1.526   0.010  0.00  0.00    +0.050 C 
ATOM     25  C   LIG    1        1.317   0.779  -0.006  0.00  0.00    +0.080 C 
ATOM     26  C   LIG    1        0.002  -0.004   0.002  0.00  0.00    +0.060 C 
ENDBRANCH  22  24
ENDBRANCH  18  19
ENDBRANCH   5  18
TORSDOF 5
