REMARK  Name = ZINCvU00000008YB.0
REMARK                            x       y       z     vdW  Elec       q    Type
REMARK                         _______ _______ _______ _____ _____    ______ ____
ROOT
ATOM      1  C   LIG    1        4.262  10.342  -0.525  0.00  0.00    +0.200 A 
ATOM      2  N   LIG    1        2.987  10.660  -0.514  0.00  0.00    -0.480 NA
ATOM      3  C   LIG    1        2.855  11.990  -0.606  0.00  0.00    +0.190 A 
ATOM      4  C   LIG    1        4.097  12.535  -0.689  0.00  0.00    +0.020 A 
ATOM      5  N   LIG    1        4.996  11.483  -0.637  0.00  0.00    -0.440 N 
ENDROOT
BRANCH   4   6
ATOM      6  C   LIG    1        4.425  13.971  -0.810  0.00  0.00    -0.010 A 
ATOM      7  C   LIG    1        5.576  14.480  -0.207  0.00  0.00    +0.000 A 
ATOM      8  C   LIG    1        5.879  15.821  -0.328  0.00  0.00    +0.020 A 
ATOM      9  C   LIG    1        5.039  16.662  -1.037  0.00  0.00    +0.010 A 
ATOM     10  C   LIG    1        3.893  16.164  -1.632  0.00  0.00    +0.020 A 
ATOM     11  C   LIG    1        3.582  14.825  -1.523  0.00  0.00    +0.030 A 
ENDBRANCH   4   6
BRANCH   1  12
ATOM     12  S   LIG    1        4.913   8.708  -0.420  0.00  0.00    -0.010 S 
BRANCH  12  13
ATOM     13  C   LIG    1        3.374   7.763  -0.298  0.00  0.00    +0.140 C 
BRANCH  13  14
ATOM     14  C   LIG    1        3.698   6.271  -0.193  0.00  0.00    +0.090 C 
BRANCH  14  17
ATOM     15  N   LIG    1        2.456   4.142   0.011  0.00  0.00    -0.670 N 
ATOM     16  H   LIG    1        3.308   3.688   0.104  0.00  0.00    +0.410 HD
ATOM     17  C   LIG    1        2.416   5.485  -0.091  0.00  0.00    +0.520 C 
ATOM     18  O   LIG    1        1.349   6.061  -0.101  0.00  0.00    -0.500 OA
BRANCH  15  26
ATOM     19  C   LIG    1        2.437   1.583   1.255  0.00  0.00    +0.120 C 
ATOM     20  C   LIG    1        1.216   2.149   0.578  0.00  0.00    -0.150 A 
ATOM     21  C   LIG    1        0.040   1.420   0.548  0.00  0.00    +0.120 A 
ATOM     22  C   LIG    1       -1.081   1.939  -0.079  0.00  0.00    -0.030 A 
ATOM     23  C   LIG    1       -1.031   3.189  -0.667  0.00  0.00    +0.070 A 
ATOM     24  C   LIG    1        0.141   3.921  -0.640  0.00  0.00    +0.010 A 
ATOM     25  F   LIG    1       -0.013   0.200   1.125  0.00  0.00    -0.130 F 
ATOM     26  C   LIG    1        1.269   3.402  -0.017  0.00  0.00    +0.180 A 
ENDBRANCH  15  26
ENDBRANCH  14  17
ENDBRANCH  13  14
ENDBRANCH  12  13
ENDBRANCH   1  12
BRANCH   5  27
ATOM     27  C   LIG    1        6.457  11.579  -0.692  0.00  0.00    +0.420 C 
BRANCH  27  28
ATOM     28  C   LIG    1        6.903  11.630  -2.130  0.00  0.00    -0.050 A 
ATOM     29  C   LIG    1        7.060  12.745  -2.866  0.00  0.00    -0.020 A 
ATOM     30  C   LIG    1        7.490  12.332  -4.148  0.00  0.00    -0.070 A 
ATOM     31  C   LIG    1        7.563  10.989  -4.121  0.00  0.00    +0.190 A 
ATOM     32  O   LIG    1        7.206  10.569  -2.896  0.00  0.00    -0.160 OA
ENDBRANCH  27  28
ENDBRANCH   5  27
TORSDOF 8
