REMARK  Name = ZINCnE000001OwAd.0
REMARK                            x       y       z     vdW  Elec       q    Type
REMARK                         _______ _______ _______ _____ _____    ______ ____
ROOT
ATOM      1  C   LIG    1        3.477   4.942  -0.007  0.00  0.00    +0.310 C 
ENDROOT
BRANCH   1   4
ATOM      2  C   LIG    1        4.930   2.195  -0.032  0.00  0.00    +0.130 C 
ATOM      3  C   LIG    1        3.439   2.416  -0.017  0.00  0.00    -0.150 A 
ATOM      4  C   LIG    1        2.801   3.595  -0.007  0.00  0.00    +0.040 A 
ATOM      5  O   LIG    1        1.471   3.401   0.005  0.00  0.00    -0.190 OA
ATOM      6  C   LIG    1        1.177   2.085   0.002  0.00  0.00    +0.050 A 
ATOM      7  C   LIG    1       -0.017   1.374   0.010  0.00  0.00    +0.060 A 
ATOM      8  C   LIG    1        0.002  -0.004   0.002  0.00  0.00    +0.020 A 
ATOM      9  C   LIG    1        1.206  -0.696  -0.014  0.00  0.00    +0.080 A 
ATOM     10  C   LIG    1        2.402  -0.009  -0.021  0.00  0.00    +0.040 A 
ATOM     11  F   LIG    1        1.206  -2.047  -0.021  0.00  0.00    -0.140 F 
ATOM     12  C   LIG    1        2.395   1.385  -0.013  0.00  0.00    -0.100 A 
ENDBRANCH   1   4
BRANCH   1  13
ATOM     13  N   LIG    1        3.684   5.386  -1.391  0.00  0.00    -0.530 NA
ATOM     14  C   LIG    1        4.120   6.788  -1.435  0.00  0.00    +0.200 C 
ATOM     15  C   LIG    1        4.464   7.172  -2.875  0.00  0.00    -0.070 C 
ATOM     16  C   LIG    1        3.230   6.975  -3.760  0.00  0.00    +0.040 C 
ATOM     17  C   LIG    1        2.767   5.519  -3.659  0.00  0.00    +0.290 C 
ATOM     18  F   LIG    1        3.774   4.674  -4.139  0.00  0.00    -0.190 F 
ATOM     19  F   LIG    1        1.607   5.343  -4.422  0.00  0.00    -0.210 F 
ATOM     20  C   LIG    1        2.472   5.182  -2.196  0.00  0.00    +0.180 C 
BRANCH  15  21
ATOM     21  C   LIG    1        4.892   8.616  -2.922  0.00  0.00    +0.500 C 
ATOM     22  O   LIG    1        4.309   9.447  -2.246  0.00  0.00    -0.690 OA
ATOM     23  O   LIG    1        5.821   8.954  -3.636  0.00  0.00    -0.690 OA
ENDBRANCH  15  21
ENDBRANCH   1  13
TORSDOF 3
