REMARK  Name = ZINCnE000004RdOA.0
REMARK                            x       y       z     vdW  Elec       q    Type
REMARK                         _______ _______ _______ _____ _____    ______ ____
ROOT
ATOM      1  CA  LIG    1        3.711  -0.707  -0.036  0.00  0.00    +0.210 C 
ENDROOT
BRANCH   1   5
ATOM      2  C   LIG    1       -1.292  -0.775   0.011  0.00  0.00    +0.100 C 
ATOM      3  C   LIG    1        0.002  -0.004   0.002  0.00  0.00    -0.120 A 
ATOM      4  C   LIG    1        1.208  -0.678  -0.013  0.00  0.00    +0.050 A 
ATOM      5  C   LIG    1        2.396   0.029  -0.020  0.00  0.00    -0.060 A 
ATOM      6  C   LIG    1        2.379   1.412  -0.013  0.00  0.00    +0.030 A 
ATOM      7  C   LIG    1        1.173   2.088   0.002  0.00  0.00    -0.020 A 
ATOM      8  C   LIG    1       -0.017   1.381   0.010  0.00  0.00    +0.080 A 
ATOM      9  F   LIG    1       -1.196   2.041   0.019  0.00  0.00    -0.150 F 
ENDBRANCH   1   5
BRANCH   1  10
ATOM     10  N   LIG    1        4.662  -0.027   0.847  0.00  0.00    -0.690 N 
ATOM     11  H   LIG    1        4.556   0.918   1.038  0.00  0.00    +0.390 HD
ATOM     12  C   LIG    1        5.684  -0.714   1.394  0.00  0.00    +0.560 C 
ATOM     13  O   LIG    1        5.817  -1.899   1.155  0.00  0.00    -0.520 OA
BRANCH  12  14
ATOM     14  C   LIG    1        6.642  -0.029   2.284  0.00  0.00    -0.150 A 
ATOM     15  C   LIG    1        6.496   1.333   2.556  0.00  0.00    +0.100 A 
ATOM     16  C   LIG    1        7.391   1.967   3.392  0.00  0.00    +0.020 A 
ATOM     17  C   LIG    1        8.442   1.259   3.953  0.00  0.00    +0.010 A 
ATOM     18  C   LIG    1        8.598  -0.090   3.685  0.00  0.00    -0.010 A 
ATOM     19 CL   LIG    1        9.567   2.067   4.998  0.00  0.00    -0.060 Cl
ATOM     20  C   LIG    1        7.704  -0.739   2.853  0.00  0.00    +0.170 A 
ATOM     21  F   LIG    1        7.857  -2.056   2.591  0.00  0.00    -0.110 F 
ENDBRANCH  12  14
ENDBRANCH   1  10
BRANCH   1  22
ATOM     22  C   LIG    1        4.257  -0.730  -1.440  0.00  0.00    +0.500 C 
ATOM     23  OXT LIG    1        3.711  -1.406  -2.295  0.00  0.00    -0.680 OA
ATOM     24  O   LIG    1        5.245  -0.073  -1.721  0.00  0.00    -0.680 OA
ENDBRANCH   1  22
TORSDOF 4
