REMARK  Name = ZINCqH00000073Wk.0
REMARK                            x       y       z     vdW  Elec       q    Type
REMARK                         _______ _______ _______ _____ _____    ______ ____
ROOT
ATOM      1  C   LIG    1       -4.918   1.040   0.062  0.00  0.00    +0.260 C 
ENDROOT
BRANCH   1   3
ATOM      2  C   LIG    1       -2.516   0.754  -0.236  0.00  0.00    +0.570 C 
ATOM      3  N   LIG    1       -3.591   1.566  -0.270  0.00  0.00    -0.710 N 
ATOM      4  H   LIG    1       -3.487   2.499  -0.514  0.00  0.00    +0.410 HD
ATOM      5  O   LIG    1       -2.647  -0.416   0.070  0.00  0.00    -0.530 OA
BRANCH   2   9
ATOM      6  C   LIG    1        1.327   2.277  -1.204  0.00  0.00    +0.160 A 
ATOM      7  C   LIG    1        1.180   0.940  -0.854  0.00  0.00    -0.020 A 
ATOM      8  C   LIG    1       -0.064   0.443  -0.535  0.00  0.00    +0.130 A 
ATOM      9  C   LIG    1       -1.180   1.284  -0.570  0.00  0.00    -0.180 A 
ATOM     10  C   LIG    1       -1.027   2.628  -0.918  0.00  0.00    +0.090 A 
ATOM     11  C   LIG    1        0.221   3.118  -1.234  0.00  0.00    -0.080 A 
BRANCH   6  13
ATOM     12  C   LIG    1        2.635   4.146  -1.868  0.00  0.00    +0.240 C 
ATOM     13  O   LIG    1        2.555   2.763  -1.517  0.00  0.00    -0.310 OA
ENDBRANCH   6  13
ENDBRANCH   2   9
ENDBRANCH   1   3
BRANCH   1  14
ATOM     14  C   LIG    1       -5.974   1.881  -0.608  0.00  0.00    +0.510 C 
ATOM     15  N   LIG    1       -7.223   1.398  -0.762  0.00  0.00    -0.660 N 
ATOM     16  H   LIG    1       -7.423   0.482  -0.513  0.00  0.00    +0.410 HD
ATOM     17  O   LIG    1       -5.700   2.993  -1.007  0.00  0.00    -0.510 OA
BRANCH  15  18
ATOM     18  C   LIG    1       -8.231   2.218  -1.281  0.00  0.00    +0.150 A 
ATOM     19  C   LIG    1       -8.087   3.599  -1.254  0.00  0.00    +0.010 A 
ATOM     20  C   LIG    1       -9.082   4.405  -1.772  0.00  0.00    -0.070 A 
ATOM     21  C   LIG    1      -10.224   3.840  -2.307  0.00  0.00    -0.020 A 
ATOM     22  C   LIG    1      -10.373   2.465  -2.330  0.00  0.00    +0.040 A 
ATOM     23  C   LIG    1       -8.924   5.904  -1.748  0.00  0.00    +0.100 C 
ATOM     24  C   LIG    1       -9.380   1.653  -1.819  0.00  0.00    -0.120 A 
ATOM     25  C   LIG    1       -9.543   0.155  -1.844  0.00  0.00    +0.080 C 
ENDBRANCH  15  18
ENDBRANCH   1  14
BRANCH   1  26
ATOM     26  C   LIG    1       -5.118   1.081   1.578  0.00  0.00    -0.020 C 
ATOM     27  C   LIG    1       -4.875   2.503   2.086  0.00  0.00    +0.030 C 
ATOM     28  C   LIG    1       -4.131   0.124   2.249  0.00  0.00    +0.040 C 
ENDBRANCH   1  26
TORSDOF 6
