REMARK  Name = ZINCqH0000001xZP.0
REMARK                            x       y       z     vdW  Elec       q    Type
REMARK                         _______ _______ _______ _____ _____    ______ ____
ROOT
ATOM      1  N   LIG    1       -2.770   7.328   0.048  0.00  0.00    -0.650 N 
ATOM      2  H   LIG    1       -3.699   7.092   0.196  0.00  0.00    +0.420 HD
ATOM      3  C   LIG    1       -1.825   6.367   0.033  0.00  0.00    +0.510 C 
ATOM      4  O   LIG    1       -0.664   6.661  -0.153  0.00  0.00    -0.470 OA
ENDROOT
BRANCH   1  10
ATOM      5  C   LIG    1       -3.395   9.652  -0.139  0.00  0.00    +0.050 A 
ATOM      6  C   LIG    1       -3.021  10.974  -0.332  0.00  0.00    +0.000 A 
ATOM      7  C   LIG    1       -1.679  11.258  -0.540  0.00  0.00    -0.020 A 
ATOM      8  C   LIG    1       -0.761  10.226  -0.544  0.00  0.00    +0.250 A 
ATOM      9  N   LIG    1       -1.143   8.977  -0.352  0.00  0.00    -0.440 NA
ATOM     10  C   LIG    1       -2.412   8.662  -0.150  0.00  0.00    +0.340 A 
BRANCH   5  11
ATOM     11  O   LIG    1       -4.700   9.326   0.064  0.00  0.00    -0.310 OA
BRANCH  11  13
ATOM     12  C   LIG    1       -6.085  10.844  -1.207  0.00  0.00    +0.020 C 
ATOM     13  C   LIG    1       -5.627  10.406   0.186  0.00  0.00    +0.150 C 
ATOM     14  C   LIG    1       -6.838   9.950   1.001  0.00  0.00    +0.070 C 
ENDBRANCH  11  13
ENDBRANCH   5  11
ENDBRANCH   1  10
BRANCH   3  15
ATOM     15  C   LIG    1       -2.213   4.926   0.246  0.00  0.00    +0.100 C 
BRANCH  15  16
ATOM     16  C   LIG    1       -0.962   4.047   0.181  0.00  0.00    +0.100 C 
BRANCH  16  17
ATOM     17  S   LIG    1       -1.428   2.313   0.439  0.00  0.00    -0.100 S 
BRANCH  17  18
ATOM     18  C   LIG    1        0.115   1.468   0.332  0.00  0.00    -0.080 A 
ATOM     19  C   LIG    1        1.282   2.180   0.092  0.00  0.00    +0.010 A 
ATOM     20  C   LIG    1        2.491   1.517   0.002  0.00  0.00    +0.050 A 
ATOM     21  C   LIG    1        2.543   0.139   0.149  0.00  0.00    +0.050 A 
ATOM     22  O   LIG    1        3.743  -0.497   0.053  0.00  0.00    -0.310 OA
ATOM     23  C   LIG    1        3.810  -1.828   0.577  0.00  0.00    +0.220 C 
ATOM     24  C   LIG    1        2.582  -2.602   0.078  0.00  0.00    +0.220 C 
ATOM     25  O   LIG    1        1.408  -1.929   0.544  0.00  0.00    -0.310 OA
ATOM     26  C   LIG    1        1.376  -0.577   0.391  0.00  0.00    +0.070 A 
ATOM     27  C   LIG    1        0.163   0.088   0.481  0.00  0.00    +0.050 A 
ENDBRANCH  17  18
ENDBRANCH  16  17
ENDBRANCH  15  16
ENDBRANCH   3  15
TORSDOF 7
