REMARK  Name = ZINCpe00000bI30k.0
REMARK                            x       y       z     vdW  Elec       q    Type
REMARK                         _______ _______ _______ _____ _____    ______ ____
ROOT
ATOM      1  C   LIG    1       -6.268  -0.591  -0.081  0.00  0.00    +0.590 C 
ATOM      2  N   LIG    1       -6.476   0.723  -0.295  0.00  0.00    -0.600 N 
ATOM      3  C   LIG    1       -7.804   1.288   0.011  0.00  0.00    +0.280 C 
ATOM      4  C   LIG    1       -7.706   2.655   0.714  0.00  0.00    +0.020 C 
ATOM      5  C   LIG    1       -6.590   2.637   1.728  0.00  0.00    +0.040 C 
ATOM      6  C   LIG    1       -5.302   3.127   1.073  0.00  0.00    +0.020 C 
ATOM      7  C   LIG    1       -4.549   2.084   0.361  0.00  0.00    +0.210 C 
ATOM      8  C   LIG    1       -5.388   1.522  -0.814  0.00  0.00    +0.280 C 
ATOM      9  O   LIG    1       -7.157  -1.281   0.381  0.00  0.00    -0.520 OA
ENDROOT
BRANCH   1  13
ATOM     10  C   LIG    1       -2.779  -1.499  -0.592  0.00  0.00    +0.050 A 
ATOM     11  C   LIG    1       -3.382  -2.578  -1.145  0.00  0.00    -0.030 A 
ATOM     12  C   LIG    1       -4.765  -2.400  -1.037  0.00  0.00    +0.040 A 
ATOM     13  C   LIG    1       -4.969  -1.191  -0.407  0.00  0.00    -0.060 A 
ATOM     14  N   LIG    1       -3.733  -0.646  -0.144  0.00  0.00    -0.530 N 
ATOM     15  H   LIG    1       -3.571   0.206   0.291  0.00  0.00    +0.420 HD
BRANCH  10  16
ATOM     16  C   LIG    1       -1.292  -1.279  -0.496  0.00  0.00    +0.260 C 
BRANCH  16  18
ATOM     17  C   LIG    1        0.815  -2.226  -1.137  0.00  0.00    +0.210 C 
ATOM     18  O   LIG    1       -0.609  -2.339  -1.169  0.00  0.00    -0.380 OA
ENDBRANCH  16  18
ENDBRANCH  10  16
ENDBRANCH   1  13
BRANCH   7  19
ATOM     19  N   LIG    1       -3.305   2.654  -0.161  0.00  0.00    -0.700 N 
ATOM     20  H   LIG    1       -3.336   3.398  -0.783  0.00  0.00    +0.420 HD
ATOM     21  C   LIG    1       -2.117   2.145   0.222  0.00  0.00    +0.500 C 
ATOM     22  O   LIG    1       -2.078   1.226   1.013  0.00  0.00    -0.510 OA
BRANCH  21  23
ATOM     23  C   LIG    1       -0.838   2.717  -0.333  0.00  0.00    +0.290 C 
ATOM     24  F   LIG    1       -1.125   3.866  -1.077  0.00  0.00    -0.180 F 
ATOM     25  F   LIG    1        0.021   3.047   0.721  0.00  0.00    -0.160 F 
BRANCH  23  26
ATOM     26  C   LIG    1       -0.165   1.681  -1.234  0.00  0.00    +0.210 C 
BRANCH  26  27
ATOM     27  O   LIG    1       -1.034   1.359  -2.322  0.00  0.00    -0.550 OA
ATOM     28  H   LIG    1       -0.638   0.773  -2.982  0.00  0.00    +0.400 HD
ENDBRANCH  26  27
ENDBRANCH  23  26
ENDBRANCH  21  23
ENDBRANCH   7  19
TORSDOF 7
