REMARK  Name = ZINCrH00000tj11v.0
REMARK                            x       y       z     vdW  Elec       q    Type
REMARK                         _______ _______ _______ _____ _____    ______ ____
ROOT
ATOM      1  C   LIG    1        0.024   5.846   6.037  0.00  0.00    +0.160 A 
ATOM      2  C   LIG    1        1.286   6.231   5.762  0.00  0.00    -0.080 A 
ATOM      3  S   LIG    1        1.881   5.231   4.439  0.00  0.00    +0.130 S 
ATOM      4  C   LIG    1        0.389   4.398   4.381  0.00  0.00    +0.060 A 
ATOM      5  N   LIG    1       -0.421   4.863   5.269  0.00  0.00    -0.460 NA
ENDROOT
BRANCH   1   9
ATOM      6  C   LIG    1       -1.460   8.849   9.856  0.00  0.00    +0.130 C 
ATOM      7  C   LIG    1       -1.437   7.796   8.778  0.00  0.00    +0.020 A 
ATOM      8  C   LIG    1       -0.398   7.525   7.966  0.00  0.00    -0.030 A 
ATOM      9  C   LIG    1       -0.798   6.473   7.103  0.00  0.00    -0.110 A 
ATOM     10  C   LIG    1       -2.073   6.143   7.440  0.00  0.00    +0.070 A 
ATOM     11  C   LIG    1       -2.909   5.069   6.793  0.00  0.00    +0.130 C 
ATOM     12  N   LIG    1       -2.462   6.954   8.465  0.00  0.00    -0.440 N 
BRANCH  12  13
ATOM     13  C   LIG    1       -3.771   6.924   9.123  0.00  0.00    +0.390 C 
BRANCH  13  14
ATOM     14  C   LIG    1       -3.726   5.966  10.286  0.00  0.00    -0.210 A 
ATOM     15  C   LIG    1       -3.386   6.288  11.535  0.00  0.00    +0.030 A 
ATOM     16  C   LIG    1       -3.421   5.239  12.438  0.00  0.00    +0.000 A 
ATOM     17  C   LIG    1       -3.780   4.063  11.920  0.00  0.00    -0.030 A 
ATOM     18  S   LIG    1       -4.107   4.251  10.202  0.00  0.00    +0.120 S 
ENDBRANCH  13  14
ENDBRANCH  12  13
ENDBRANCH   1   9
BRANCH   4  19
ATOM     19  C   LIG    1        0.065   3.281   3.423  0.00  0.00    +0.190 C 
BRANCH  19  20
ATOM     20  C   LIG    1       -0.535   3.857   2.166  0.00  0.00    +0.520 C 
ATOM     21  N   LIG    1       -0.905   3.039   1.160  0.00  0.00    -0.620 N 
ATOM     22  C   LIG    1       -0.732   1.581   1.268  0.00  0.00    +0.250 C 
ATOM     23  C   LIG    1       -0.013   1.086   0.008  0.00  0.00    +0.220 C 
ATOM     24  O   LIG    1       -0.706   1.560  -1.149  0.00  0.00    -0.380 OA
ATOM     25  C   LIG    1       -0.736   2.985  -1.270  0.00  0.00    +0.220 C 
ATOM     26  C   LIG    1       -1.493   3.577  -0.076  0.00  0.00    +0.260 C 
ATOM     27  O   LIG    1       -0.685   5.055   2.059  0.00  0.00    -0.520 OA
ENDBRANCH  19  20
ENDBRANCH   4  19
TORSDOF 5
