REMARK  Name = ZINCvU0000000BwA.0
REMARK                            x       y       z     vdW  Elec       q    Type
REMARK                         _______ _______ _______ _____ _____    ______ ____
ROOT
ATOM      1  C   LIG    1        4.663   3.889  -0.522  0.00  0.00    +0.530 C 
ATOM      2  N   LIG    1        5.884   3.328  -0.638  0.00  0.00    -0.610 N 
ATOM      3  C   LIG    1        6.144   1.961  -0.166  0.00  0.00    +0.340 C 
ATOM      4  C   LIG    1        6.758   1.183  -1.311  0.00  0.00    -0.100 A 
ATOM      5  C   LIG    1        6.660  -0.199  -1.292  0.00  0.00    +0.030 A 
ATOM      6  C   LIG    1        7.213  -0.956  -2.310  0.00  0.00    +0.050 A 
ATOM      7  C   LIG    1        7.872  -0.319  -3.355  0.00  0.00    +0.060 A 
ATOM      8  O   LIG    1        8.430  -1.038  -4.367  0.00  0.00    -0.310 OA
ATOM      9  C   LIG    1        7.990  -2.393  -4.511  0.00  0.00    +0.220 C 
ATOM     10  C   LIG    1        7.993  -3.050  -3.124  0.00  0.00    +0.220 C 
ATOM     11  C   LIG    1        7.963   1.062  -3.368  0.00  0.00    +0.030 A 
ATOM     12  O   LIG    1        7.104  -2.312  -2.278  0.00  0.00    -0.310 OA
ATOM     13  C   LIG    1        7.406   1.823  -2.345  0.00  0.00    -0.040 A 
ATOM     14  C   LIG    1        7.549   3.314  -2.437  0.00  0.00    -0.030 C 
ATOM     15  C   LIG    1        9.042   3.671  -2.635  0.00  0.00    +0.040 C 
ATOM     16  C   LIG    1        8.972   5.048  -3.342  0.00  0.00    +0.010 C 
ATOM     17  C   LIG    1        7.768   4.923  -4.298  0.00  0.00    +0.010 C 
ATOM     18  C   LIG    1        6.863   3.820  -3.722  0.00  0.00    +0.030 C 
ATOM     19  C   LIG    1        7.005   4.062  -1.234  0.00  0.00    +0.310 C 
ATOM     20  O   LIG    1        4.476   5.021  -0.914  0.00  0.00    -0.500 OA
ENDROOT
BRANCH   1  22
ATOM     21  C   LIG    1        3.846   2.832   1.567  0.00  0.00    +0.060 C 
ATOM     22  C   LIG    1        3.531   3.108   0.095  0.00  0.00    +0.160 C 
BRANCH  22  23
ATOM     23  O   LIG    1        2.323   3.865   0.000  0.00  0.00    -0.270 OA
BRANCH  23  24
ATOM     24  C   LIG    1        1.156   3.169   0.008  0.00  0.00    +0.160 A 
ATOM     25  C   LIG    1        1.167   1.798   0.219  0.00  0.00    -0.050 A 
ATOM     26  C   LIG    1       -0.021   1.092   0.227  0.00  0.00    +0.100 A 
ATOM     27  C   LIG    1       -1.220   1.750   0.018  0.00  0.00    -0.070 A 
ATOM     28  C   LIG    1       -1.234   3.118  -0.187  0.00  0.00    +0.110 A 
ATOM     29 CL   LIG    1       -2.709   0.858   0.020  0.00  0.00    -0.060 Cl
ATOM     30  C   LIG    1       -0.048   3.828  -0.196  0.00  0.00    -0.110 A 
ATOM     31 BR   LIG    1       -0.067   5.697  -0.484  0.00  0.00    -0.010 Br
ENDBRANCH  23  24
ENDBRANCH  22  23
ENDBRANCH   1  22
TORSDOF 3
