REMARK  Name = ZINCpe00000VVGiR.0
REMARK                            x       y       z     vdW  Elec       q    Type
REMARK                         _______ _______ _______ _____ _____    ______ ____
ROOT
ATOM      1  N   LIG    1       -1.720   5.306  -1.820  0.00  0.00    -0.740 N 
ATOM      2  H   LIG    1       -2.588   5.733  -1.752  0.00  0.00    +0.400 HD
ATOM      3  C   LIG    1       -1.634   3.967  -1.943  0.00  0.00    +0.710 C 
ATOM      4  N   LIG    1       -2.755   3.220  -1.972  0.00  0.00    -0.630 N 
ATOM      5  C   LIG    1       -4.139   3.737  -1.961  0.00  0.00    +0.240 C 
ATOM      6  C   LIG    1       -4.987   2.617  -2.614  0.00  0.00    +0.040 C 
ATOM      7  C   LIG    1       -4.293   1.341  -2.067  0.00  0.00    +0.040 C 
ATOM      8  C   LIG    1       -2.805   1.751  -2.018  0.00  0.00    +0.260 C 
ATOM      9  O   LIG    1       -0.545   3.433  -2.028  0.00  0.00    -0.570 OA
ENDROOT
BRANCH   8  10
ATOM     10  C   LIG    1       -2.146   1.168  -0.767  0.00  0.00    -0.030 C 
ATOM     11  C   LIG    1       -0.746   1.766  -0.602  0.00  0.00    +0.260 C 
ATOM     12  O   LIG    1       -0.110   1.177   0.535  0.00  0.00    -0.390 OA
ATOM     13  C   LIG    1        0.069  -0.239   0.436  0.00  0.00    +0.200 C 
ATOM     14  C   LIG    1       -1.298  -0.915   0.312  0.00  0.00    -0.020 C 
ATOM     15  C   LIG    1       -2.030  -0.352  -0.911  0.00  0.00    +0.140 C 
ATOM     16  C   LIG    1       -3.427  -0.968  -1.000  0.00  0.00    +0.020 C 
BRANCH  15  17
ATOM     17  O   LIG    1       -1.293  -0.666  -2.095  0.00  0.00    -0.550 OA
ATOM     18  H   LIG    1       -1.110  -1.609  -2.206  0.00  0.00    +0.380 HD
ENDBRANCH  15  17
ENDBRANCH   8  10
BRANCH   1  23
ATOM     19  C   LIG    1       -0.735   7.391  -0.948  0.00  0.00    -0.020 C 
ATOM     20  C   LIG    1       -1.105   8.473  -1.991  0.00  0.00    +0.040 C 
ATOM     21  C   LIG    1       -0.175   8.132  -3.182  0.00  0.00    +0.020 C 
ATOM     22  C   LIG    1       -0.145   6.590  -3.209  0.00  0.00    +0.020 C 
ATOM     23  C   LIG    1       -0.501   6.119  -1.789  0.00  0.00    +0.270 C 
BRANCH  19  27
ATOM     24  C   LIG    1       -2.713   6.558   2.222  0.00  0.00    +0.290 C 
ATOM     25  N   LIG    1       -1.611   6.763   1.279  0.00  0.00    -0.730 N 
ATOM     26  H   LIG    1       -0.697   6.598   1.558  0.00  0.00    +0.400 HD
ATOM     27  C   LIG    1       -1.868   7.180   0.023  0.00  0.00    +0.530 C 
ATOM     28  O   LIG    1       -3.011   7.386  -0.326  0.00  0.00    -0.540 OA
ENDBRANCH  19  27
ENDBRANCH   1  23
TORSDOF 4
