REMARK  Name = ZINCtV00001bB3Du.0
REMARK                            x       y       z     vdW  Elec       q    Type
REMARK                         _______ _______ _______ _____ _____    ______ ____
ROOT
ATOM      1  O   LIG    1       -0.431   1.923   1.986  0.00  0.00    -0.480 OA
ATOM      2  C   LIG    1        0.421   1.407   1.288  0.00  0.00    +0.570 C 
ATOM      3  C   LIG    1        0.432  -0.052   1.123  0.00  0.00    -0.160 A 
ATOM      4  C   LIG    1       -0.511  -0.863   1.754  0.00  0.00    +0.110 A 
ATOM      5  C   LIG    1       -0.468  -2.229   1.574  0.00  0.00    -0.010 A 
ATOM      6  C   LIG    1        0.504  -2.806   0.770  0.00  0.00    +0.060 A 
ATOM      7  C   LIG    1        1.447  -2.022   0.136  0.00  0.00    -0.010 A 
ATOM      8  C   LIG    1        1.419  -0.643   0.306  0.00  0.00    +0.040 A 
ATOM      9  C   LIG    1        2.404   0.241  -0.350  0.00  0.00    -0.290 C 
ATOM     10  C   LIG    1        2.298   1.686  -0.114  0.00  0.00    +0.580 C 
ATOM     11  O   LIG    1        3.094   2.442  -0.639  0.00  0.00    -0.520 OA
ATOM     12  C   LIG    1        3.392  -0.274  -1.159  0.00  0.00    +0.430 C 
ATOM     13  N   LIG    1        1.332   2.181   0.676  0.00  0.00    -0.510 N 
ENDROOT
BRANCH  13  14
ATOM     14  C   LIG    1        1.271   3.567   0.871  0.00  0.00    +0.130 A 
ATOM     15  C   LIG    1        0.440   4.345   0.077  0.00  0.00    +0.040 A 
ATOM     16  C   LIG    1        0.381   5.712   0.271  0.00  0.00    +0.040 A 
ATOM     17  C   LIG    1        1.150   6.306   1.254  0.00  0.00    +0.040 A 
ATOM     18  C   LIG    1        1.980   5.533   2.049  0.00  0.00    -0.030 A 
ATOM     19 CL   LIG    1        2.942   6.282   3.283  0.00  0.00    -0.060 Cl
ATOM     20  C   LIG    1        2.038   4.165   1.862  0.00  0.00    +0.040 A 
ENDBRANCH  13  14
BRANCH  12  21
ATOM     21  N   LIG    1        4.223   0.563  -1.836  0.00  0.00    -0.610 N 
ATOM     22  H   LIG    1        4.065   1.520  -1.820  0.00  0.00    +0.430 HD
BRANCH  21  23
ATOM     23  C   LIG    1        5.303   0.045  -2.555  0.00  0.00    +0.180 A 
ATOM     24  C   LIG    1        5.534  -1.325  -2.575  0.00  0.00    -0.010 A 
ATOM     25  C   LIG    1        6.600  -1.834  -3.291  0.00  0.00    +0.010 A 
ATOM     26  C   LIG    1        7.444  -0.981  -3.979  0.00  0.00    +0.020 A 
ATOM     27  C   LIG    1        7.220   0.385  -3.958  0.00  0.00    +0.010 A 
ATOM     28 CL   LIG    1        8.282   1.452  -4.822  0.00  0.00    -0.040 Cl
ATOM     29 CL   LIG    1        6.885  -3.547  -3.321  0.00  0.00    -0.040 Cl
ATOM     30  C   LIG    1        6.152   0.900  -3.248  0.00  0.00    +0.010 A 
ENDBRANCH  21  23
ENDBRANCH  12  21
TORSDOF 3
