REMARK  Name = ZINCrD00000eePNh.0
REMARK                            x       y       z     vdW  Elec       q    Type
REMARK                         _______ _______ _______ _____ _____    ______ ____
ROOT
ATOM      1  C   LIG    1        3.650   2.173  -0.021  0.00  0.00    +0.570 C 
ATOM      2  N   LIG    1        3.628   3.517   0.089  0.00  0.00    -0.610 N 
ATOM      3  C   LIG    1        2.356   4.244   0.210  0.00  0.00    +0.300 C 
ATOM      4  C   LIG    1        2.451   5.182   1.424  0.00  0.00    +0.190 C 
ATOM      5  N   LIG    1        3.641   6.032   1.288  0.00  0.00    -0.490 N 
ATOM      6  C   LIG    1        4.872   5.231   1.296  0.00  0.00    +0.180 C 
ATOM      7  C   LIG    1        4.877   4.294   0.083  0.00  0.00    +0.280 C 
ATOM      8  O   LIG    1        2.606   1.553  -0.092  0.00  0.00    -0.510 OA
ENDROOT
BRANCH   1  12
ATOM      9  C   LIG    1        7.361   0.109  -0.117  0.00  0.00    +0.170 A 
ATOM     10  C   LIG    1        7.120   1.151  -1.007  0.00  0.00    -0.080 A 
ATOM     11  C   LIG    1        5.919   1.822  -0.979  0.00  0.00    +0.110 A 
ATOM     12  C   LIG    1        4.936   1.457  -0.054  0.00  0.00    -0.200 A 
ATOM     13  C   LIG    1        5.181   0.406   0.843  0.00  0.00    +0.200 A 
ATOM     14  C   LIG    1        6.393  -0.261   0.805  0.00  0.00    -0.040 A 
BRANCH   9  16
ATOM     15  C   LIG    1        9.500  -0.116  -1.125  0.00  0.00    +0.250 C 
ATOM     16  O   LIG    1        8.548  -0.547  -0.151  0.00  0.00    -0.310 OA
ENDBRANCH   9  16
BRANCH  13  17
ATOM     17  O   LIG    1        4.234   0.046   1.745  0.00  0.00    -0.480 OA
ATOM     18  H   LIG    1        4.293   0.517   2.588  0.00  0.00    +0.400 HD
ENDBRANCH  13  17
ENDBRANCH   1  12
BRANCH   5  19
ATOM     19  C   LIG    1        3.675   7.011   2.283  0.00  0.00    +0.110 A 
ATOM     20  C   LIG    1        4.781   7.119   3.116  0.00  0.00    +0.000 A 
ATOM     21  C   LIG    1        4.811   8.089   4.099  0.00  0.00    +0.050 A 
ATOM     22  C   LIG    1        3.741   8.951   4.255  0.00  0.00    +0.040 A 
ATOM     23  C   LIG    1        2.638   8.845   3.428  0.00  0.00    -0.150 A 
ATOM     24  C   LIG    1        2.603   7.882   2.439  0.00  0.00    +0.050 A 
BRANCH  23  25
ATOM     25  C   LIG    1        1.474   9.787   3.601  0.00  0.00    +0.510 C 
ATOM     26  F   LIG    1        0.319   9.053   3.890  0.00  0.00    -0.180 F 
ATOM     27  F   LIG    1        1.282  10.513   2.421  0.00  0.00    -0.170 F 
ATOM     28  F   LIG    1        1.741  10.670   4.653  0.00  0.00    -0.180 F 
ENDBRANCH  23  25
ENDBRANCH   5  19
TORSDOF 5
