REMARK  Name = ZINCpk00000ea4x3.0
REMARK                            x       y       z     vdW  Elec       q    Type
REMARK                         _______ _______ _______ _____ _____    ______ ____
ROOT
ATOM      1  C   LIG    1       -2.917   1.562  -2.442  0.00  0.00    +0.520 C 
ATOM      2  N   LIG    1       -4.205   1.220  -2.644  0.00  0.00    -0.730 N 
ATOM      3  H   LIG    1       -4.662   0.653  -2.005  0.00  0.00    +0.400 HD
ATOM      4  O   LIG    1       -2.345   2.272  -3.242  0.00  0.00    -0.530 OA
ENDROOT
BRANCH   1   8
ATOM      5  C   LIG    1       -0.729   1.579   1.267  0.00  0.00    +0.030 C 
ATOM      6  C   LIG    1       -0.013   1.086   0.008  0.00  0.00    +0.050 C 
ATOM      7  C   LIG    1       -0.753   1.593  -1.232  0.00  0.00    +0.050 C 
ATOM      8  C   LIG    1       -2.188   1.063  -1.221  0.00  0.00    -0.010 C 
ATOM      9  C   LIG    1       -2.904   1.556   0.038  0.00  0.00    +0.040 C 
ATOM     10  C   LIG    1       -2.164   1.050   1.278  0.00  0.00    +0.040 C 
BRANCH   5  11
ATOM     11  C   LIG    1        0.000   1.080   2.488  0.00  0.00    +0.460 C 
ATOM     12  O   LIG    1        0.991   0.399   2.364  0.00  0.00    -0.500 OA
BRANCH  11  14
ATOM     13  C   LIG    1        0.301   0.876   4.843  0.00  0.00    +0.250 C 
ATOM     14  O   LIG    1       -0.451   1.391   3.713  0.00  0.00    -0.360 OA
ENDBRANCH  11  14
ENDBRANCH   5  11
ENDBRANCH   1   8
BRANCH   2  15
ATOM     15  C   LIG    1       -4.913   1.706  -3.831  0.00  0.00    +0.250 C 
ATOM     16  C   LIG    1       -4.637   0.769  -5.010  0.00  0.00    +0.020 C 
ATOM     17  C   LIG    1       -5.428   1.249  -6.230  0.00  0.00    +0.050 C 
ATOM     18  C   LIG    1       -6.918   1.292  -5.881  0.00  0.00    +0.180 C 
ATOM     19  N   LIG    1       -7.130   2.202  -4.748  0.00  0.00    -0.470 N 
ATOM     20  C   LIG    1       -6.418   1.736  -3.552  0.00  0.00    +0.210 C 
BRANCH  19  21
ATOM     21  C   LIG    1       -8.488   2.366  -4.488  0.00  0.00    +0.270 A 
ATOM     22  C   LIG    1       -9.114   2.132  -3.302  0.00  0.00    -0.170 A 
ATOM     23  C   LIG    1      -10.470   2.424  -3.469  0.00  0.00    +0.240 A 
ATOM     24  N   LIG    1      -10.659   2.810  -4.705  0.00  0.00    -0.300 NA
ATOM     25  N   LIG    1       -9.425   2.782  -5.369  0.00  0.00    -0.380 N 
ATOM     26  C   LIG    1       -9.193   3.141  -6.770  0.00  0.00    +0.350 C 
ENDBRANCH  19  21
ENDBRANCH   2  15
TORSDOF 5
