REMARK  Name = ZINCrD0000073UvC.0
REMARK                            x       y       z     vdW  Elec       q    Type
REMARK                         _______ _______ _______ _____ _____    ______ ____
ROOT
ATOM      1  N   LIG    1       -6.391   4.986  -0.673  0.00  0.00    -0.710 N 
ATOM      2  H   LIG    1       -6.198   5.081   0.273  0.00  0.00    +0.410 HD
ATOM      3  C   LIG    1       -6.928   6.014  -1.358  0.00  0.00    +0.600 C 
ATOM      4  O   LIG    1       -7.170   5.895  -2.543  0.00  0.00    -0.510 OA
ENDROOT
BRANCH   3   5
ATOM      5  C   LIG    1       -7.224   7.293  -0.665  0.00  0.00    -0.020 A 
ATOM      6  N   LIG    1       -7.018   7.567   0.600  0.00  0.00    -0.330 NA
ATOM      7  O   LIG    1       -7.359   8.693   0.875  0.00  0.00    +0.130 OA
ATOM      8  C   LIG    1       -7.852   9.341  -0.196  0.00  0.00    +0.020 A 
ATOM      9  C   LIG    1       -7.780   8.464  -1.242  0.00  0.00    +0.030 A 
BRANCH   8  10
ATOM     10  C   LIG    1       -8.363  10.727  -0.235  0.00  0.00    -0.080 A 
ATOM     11  C   LIG    1       -8.371  11.516   0.921  0.00  0.00    +0.100 A 
ATOM     12  C   LIG    1       -8.860  12.808   0.832  0.00  0.00    -0.020 A 
ATOM     13  C   LIG    1       -9.322  13.273  -0.386  0.00  0.00    +0.280 A 
ATOM     14  N   LIG    1       -9.303  12.507  -1.460  0.00  0.00    -0.480 NA
ATOM     15  C   LIG    1       -8.842  11.274  -1.426  0.00  0.00    +0.300 A 
ENDBRANCH   8  10
ENDBRANCH   3   5
BRANCH   1  17
ATOM     16  C   LIG    1       -7.359   2.855  -1.385  0.00  0.00    +0.040 C 
ATOM     17  C   LIG    1       -6.099   3.723  -1.357  0.00  0.00    +0.290 C 
BRANCH  17  18
ATOM     18  C   LIG    1       -5.004   2.995  -0.621  0.00  0.00    -0.090 A 
ATOM     19  C   LIG    1       -4.989   2.988   0.761  0.00  0.00    +0.020 A 
ATOM     20  C   LIG    1       -3.987   2.321   1.443  0.00  0.00    +0.030 A 
ATOM     21  C   LIG    1       -2.997   1.661   0.736  0.00  0.00    +0.070 A 
ATOM     22  O   LIG    1       -2.003   1.000   1.396  0.00  0.00    -0.320 OA
ATOM     23  C   LIG    1       -0.696   1.562   1.280  0.00  0.00    +0.230 C 
ATOM     24  C   LIG    1       -0.013   1.086   0.008  0.00  0.00    -0.010 C 
ATOM     25  C   LIG    1       -0.720   1.576  -1.246  0.00  0.00    +0.230 C 
ATOM     26  O   LIG    1       -2.031   1.014  -1.340  0.00  0.00    -0.320 OA
ATOM     27  C   LIG    1       -3.011   1.669  -0.652  0.00  0.00    +0.070 A 
ATOM     28  C   LIG    1       -4.016   2.337  -1.332  0.00  0.00    +0.040 A 
ENDBRANCH  17  18
ENDBRANCH   1  17
TORSDOF 4
