REMARK  Name = ZINCrD00000hQ4j9.0
REMARK                            x       y       z     vdW  Elec       q    Type
REMARK                         _______ _______ _______ _____ _____    ______ ____
ROOT
ATOM      1  O   LIG    1       -3.271   4.240  -2.690  0.00  0.00    -0.330 OA
ENDROOT
BRANCH   1   3
ATOM      2  O   LIG    1       -2.737   5.656  -4.300  0.00  0.00    -0.500 OA
ATOM      3  C   LIG    1       -3.588   4.995  -3.754  0.00  0.00    +0.490 C 
BRANCH   3   4
ATOM      4  C   LIG    1       -5.004   5.016  -4.268  0.00  0.00    -0.010 C 
ATOM      5  C   LIG    1       -5.798   6.313  -4.096  0.00  0.00    +0.100 C 
ATOM      6  C   LIG    1       -5.301   5.897  -5.483  0.00  0.00    +0.050 C 
BRANCH   6   7
ATOM      7  C   LIG    1       -4.155   6.677  -6.075  0.00  0.00    -0.100 A 
ATOM      8  C   LIG    1       -3.836   7.927  -5.573  0.00  0.00    +0.140 A 
ATOM      9  C   LIG    1       -2.779   8.640  -6.114  0.00  0.00    -0.020 A 
ATOM     10  C   LIG    1       -2.050   8.109  -7.160  0.00  0.00    +0.080 A 
ATOM     11  C   LIG    1       -2.371   6.863  -7.666  0.00  0.00    -0.020 A 
ATOM     12  F   LIG    1       -4.553   8.450  -4.554  0.00  0.00    -0.130 F 
ATOM     13  C   LIG    1       -3.424   6.146  -7.123  0.00  0.00    +0.140 A 
ATOM     14  F   LIG    1       -3.737   4.928  -7.617  0.00  0.00    -0.130 F 
ENDBRANCH   6   7
ENDBRANCH   3   4
ENDBRANCH   1   3
BRANCH   1  15
ATOM     15  C   LIG    1       -1.888   4.268  -2.250  0.00  0.00    +0.210 C 
BRANCH  15  16
ATOM     16  C   LIG    1       -1.721   3.354  -1.035  0.00  0.00    +0.340 C 
BRANCH  16  17
ATOM     17  N   LIG    1       -1.974   1.966  -1.429  0.00  0.00    -0.550 N 
ATOM     18  C   LIG    1       -3.225   1.495  -1.342  0.00  0.00    +0.710 C 
ATOM     19  N   LIG    1       -3.561   0.237  -1.679  0.00  0.00    -0.730 N 
ATOM     20  H   LIG    1       -4.479  -0.064  -1.602  0.00  0.00    +0.430 HD
ATOM     21  C   LIG    1       -2.515  -0.679  -2.168  0.00  0.00    +0.310 C 
ATOM     22  C   LIG    1       -1.112  -0.125  -2.264  0.00  0.00    -0.140 A 
ATOM     23  C   LIG    1       -0.066  -0.902  -2.703  0.00  0.00    +0.060 A 
ATOM     24  C   LIG    1        1.208  -0.363  -2.772  0.00  0.00    -0.010 A 
ATOM     25  C   LIG    1        1.425   0.950  -2.395  0.00  0.00    +0.050 A 
ATOM     26  C   LIG    1        0.377   1.730  -1.948  0.00  0.00    -0.030 A 
ATOM     27  O   LIG    1       -4.098   2.240  -0.941  0.00  0.00    -0.560 OA
ATOM     28  C   LIG    1       -0.902   1.194  -1.877  0.00  0.00    +0.170 A 
ENDBRANCH  16  17
ENDBRANCH  15  16
ENDBRANCH   1  15
TORSDOF 6
