REMARK  Name = ZINCrH000004kfto.0
REMARK                            x       y       z     vdW  Elec       q    Type
REMARK                         _______ _______ _______ _____ _____    ______ ____
ROOT
ATOM      1  C   LIG    1       -1.239   3.132   0.046  0.00  0.00    +0.120 A 
ATOM      2  C   LIG    1       -1.210   1.753   0.208  0.00  0.00    +0.040 A 
ATOM      3  C   LIG    1       -0.004   1.082   0.193  0.00  0.00    +0.050 A 
ATOM      4  C   LIG    1        1.180   1.784   0.006  0.00  0.00    +0.150 A 
ATOM      5  C   LIG    1        1.150   3.163  -0.162  0.00  0.00    +0.020 A 
ATOM      6  C   LIG    1       -0.056   3.834  -0.142  0.00  0.00    +0.060 A 
ENDROOT
BRANCH   1   9
ATOM      7  C   LIG    1       -3.877   5.412  -0.008  0.00  0.00    -0.010 A 
ATOM      8  N   LIG    1       -2.601   5.084  -0.073  0.00  0.00    -0.260 NA
ATOM      9  N   LIG    1       -2.463   3.814   0.067  0.00  0.00    -0.230 N 
ATOM     10  C   LIG    1       -3.677   3.230   0.243  0.00  0.00    +0.180 A 
ATOM     11  C   LIG    1       -4.604   4.215   0.201  0.00  0.00    +0.000 A 
BRANCH   7  15
ATOM     12  C   LIG    1       -4.182   9.173  -0.445  0.00  0.00    +0.290 C 
ATOM     13  N   LIG    1       -3.623   7.824  -0.327  0.00  0.00    -0.720 N 
ATOM     14  H   LIG    1       -2.665   7.689  -0.393  0.00  0.00    +0.410 HD
ATOM     15  C   LIG    1       -4.440   6.771  -0.127  0.00  0.00    +0.600 C 
ATOM     16  O   LIG    1       -5.641   6.941  -0.045  0.00  0.00    -0.530 OA
ENDBRANCH   7  15
ENDBRANCH   1   9
BRANCH   4  17
ATOM     17  N   LIG    1        2.402   1.103  -0.014  0.00  0.00    -0.670 N 
ATOM     18  H   LIG    1        3.201   1.531   0.332  0.00  0.00    +0.420 HD
ATOM     19  C   LIG    1        2.470  -0.146  -0.514  0.00  0.00    +0.520 C 
ATOM     20  O   LIG    1        1.494  -0.645  -1.033  0.00  0.00    -0.500 OA
BRANCH  19  21
ATOM     21  C   LIG    1        3.757  -0.924  -0.427  0.00  0.00    +0.120 C 
BRANCH  21  22
ATOM     22  C   LIG    1        3.567  -2.282  -1.054  0.00  0.00    -0.060 A 
ATOM     23  C   LIG    1        3.248  -3.369  -0.263  0.00  0.00    +0.060 A 
ATOM     24  C   LIG    1        3.068  -4.613  -0.838  0.00  0.00    +0.040 A 
ATOM     25  C   LIG    1        3.219  -4.773  -2.204  0.00  0.00    -0.020 A 
ATOM     26  C   LIG    1        3.544  -3.686  -2.995  0.00  0.00    +0.050 A 
ATOM     27 CL   LIG    1        2.999  -6.337  -2.925  0.00  0.00    -0.050 Cl
ATOM     28  C   LIG    1        3.718  -2.440  -2.420  0.00  0.00    -0.010 A 
ATOM     29 CL   LIG    1        4.127  -1.075  -3.413  0.00  0.00    -0.050 Cl
ENDBRANCH  21  22
ENDBRANCH  19  21
ENDBRANCH   4  17
TORSDOF 5
