REMARK  Name = ZINCrD00000hQ4vp.0
REMARK                            x       y       z     vdW  Elec       q    Type
REMARK                         _______ _______ _______ _____ _____    ______ ____
ROOT
ATOM      1  C   LIG    1       -0.767   1.732  -1.649  0.00  0.00    +0.210 C 
ATOM      2  C   LIG    1       -0.298   0.842  -0.479  0.00  0.00    +0.060 C 
ATOM      3  C   LIG    1       -0.970   1.501   0.755  0.00  0.00    +0.040 C 
ATOM      4  C   LIG    1       -2.323   1.970   0.153  0.00  0.00    +0.270 C 
ATOM      5  N   LIG    1       -1.995   2.413  -1.215  0.00  0.00    -0.600 N 
ATOM      6  C   LIG    1       -2.704   3.297  -1.945  0.00  0.00    +0.590 C 
ATOM      7  O   LIG    1       -3.731   3.770  -1.498  0.00  0.00    -0.500 OA
ENDROOT
BRANCH   6   8
ATOM      8  C   LIG    1       -2.233   3.689  -3.290  0.00  0.00    -0.100 A 
ATOM      9  C   LIG    1       -0.993   3.249  -3.755  0.00  0.00    +0.050 A 
ATOM     10  C   LIG    1       -0.562   3.616  -5.014  0.00  0.00    -0.040 A 
ATOM     11  C   LIG    1       -1.352   4.427  -5.811  0.00  0.00    +0.080 A 
ATOM     12  C   LIG    1       -2.579   4.872  -5.354  0.00  0.00    +0.050 A 
ATOM     13 CL   LIG    1        0.977   3.064  -5.597  0.00  0.00    -0.050 Cl
ATOM     14  C   LIG    1       -3.025   4.508  -4.099  0.00  0.00    +0.020 A 
ATOM     15 CL   LIG    1       -4.566   5.068  -3.528  0.00  0.00    -0.020 Cl
ENDBRANCH   6   8
BRANCH   1  18
ATOM     16  N   LIG    1       -0.062   0.154  -3.418  0.00  0.00    -0.730 N 
ATOM     17  H   LIG    1        0.832   0.179  -3.042  0.00  0.00    +0.400 HD
ATOM     18  C   LIG    1       -1.050   0.880  -2.860  0.00  0.00    +0.500 C 
ATOM     19  O   LIG    1       -2.167   0.848  -3.331  0.00  0.00    -0.510 OA
BRANCH  16  20
ATOM     20  C   LIG    1       -0.337  -0.674  -4.595  0.00  0.00    +0.280 C 
BRANCH  20  21
ATOM     21  C   LIG    1        0.945  -1.389  -5.027  0.00  0.00    +0.170 C 
BRANCH  21  22
ATOM     22  N   LIG    1        0.701  -2.119  -6.278  0.00  0.00    -0.520 NA
BRANCH  22  24
ATOM     23  C   LIG    1        0.484  -4.227  -5.051  0.00  0.00    +0.000 C 
ATOM     24  C   LIG    1       -0.175  -3.276  -6.051  0.00  0.00    +0.200 C 
ENDBRANCH  22  24
BRANCH  22  25
ATOM     25  C   LIG    1        1.966  -2.531  -6.902  0.00  0.00    +0.170 C 
BRANCH  25  26
ATOM     26  C   LIG    1        1.703  -2.971  -8.344  0.00  0.00    +0.380 C 
ATOM     27  F   LIG    1        1.024  -1.956  -9.026  0.00  0.00    -0.190 F 
ATOM     28  F   LIG    1        0.924  -4.133  -8.341  0.00  0.00    -0.200 F 
ENDBRANCH  25  26
ENDBRANCH  22  25
ENDBRANCH  21  22
ENDBRANCH  20  21
ENDBRANCH  16  20
ENDBRANCH   1  18
TORSDOF 8
