REMARK  Name = ZINCrg00000J0fAO.0
REMARK                            x       y       z     vdW  Elec       q    Type
REMARK                         _______ _______ _______ _____ _____    ______ ____
ROOT
ATOM      1  C   LIG    1        2.768   1.512  -0.163  0.00  0.00    +0.600 C 
ATOM      2  N   LIG    1        2.961   0.180  -0.107  0.00  0.00    -0.720 N 
ATOM      3  H   LIG    1        2.199  -0.419  -0.076  0.00  0.00    +0.400 HD
ATOM      4  O   LIG    1        3.725   2.264  -0.201  0.00  0.00    -0.500 OA
ENDROOT
BRANCH   1   9
ATOM      5  C   LIG    1        2.023   6.967  -0.396  0.00  0.00    +0.160 C 
ATOM      6  C   LIG    1        1.187   5.715  -0.336  0.00  0.00    +0.220 A 
ATOM      7  N   LIG    1        1.771   4.537  -0.289  0.00  0.00    -0.450 NA
ATOM      8  C   LIG    1        1.049   3.417  -0.235  0.00  0.00    +0.330 A 
ATOM      9  C   LIG    1        1.407   2.057  -0.179  0.00  0.00    -0.300 A 
ATOM     10  C   LIG    1        0.210   1.319  -0.139  0.00  0.00    +0.330 A 
ATOM     11  N   LIG    1       -0.796   2.152  -0.174  0.00  0.00    -0.310 NA
ATOM     12  N   LIG    1       -0.316   3.465  -0.229  0.00  0.00    -0.310 N 
ATOM     13  C   LIG    1       -0.951   4.670  -0.277  0.00  0.00    +0.360 A 
ATOM     14  C   LIG    1       -0.210   5.806  -0.332  0.00  0.00    -0.050 A 
ENDBRANCH   1   9
BRANCH   2  15
ATOM     15  C   LIG    1        4.321  -0.364  -0.091  0.00  0.00    +0.280 C 
ATOM     16  C   LIG    1        4.306  -1.789  -0.650  0.00  0.00    +0.040 C 
ATOM     17  C   LIG    1        3.626  -2.705   0.375  0.00  0.00    +0.030 C 
ATOM     18  C   LIG    1        4.520  -2.802   1.612  0.00  0.00    +0.270 C 
ATOM     19  N   LIG    1        4.900  -1.472   2.072  0.00  0.00    -0.550 N 
ATOM     20  C   LIG    1        4.839  -0.374   1.319  0.00  0.00    +0.500 C 
ATOM     21  O   LIG    1        5.221   0.673   1.797  0.00  0.00    -0.500 OA
BRANCH  19  22
ATOM     22  C   LIG    1        5.358  -1.340   3.383  0.00  0.00    +0.300 A 
ATOM     23  C   LIG    1        6.651  -1.439   3.798  0.00  0.00    -0.100 A 
ATOM     24  C   LIG    1        6.673  -1.242   5.181  0.00  0.00    +0.080 A 
ATOM     25  N   LIG    1        5.446  -1.033   5.587  0.00  0.00    -0.280 NA
ATOM     26  C   LIG    1        7.899  -1.267   6.056  0.00  0.00    +0.160 C 
ATOM     27  N   LIG    1        4.598  -1.084   4.473  0.00  0.00    -0.370 N 
ATOM     28  C   LIG    1        3.146  -0.896   4.486  0.00  0.00    +0.350 C 
ENDBRANCH  19  22
ENDBRANCH   2  15
TORSDOF 3
