REMARK  Name = ZINCrD0000075G23.0
REMARK                            x       y       z     vdW  Elec       q    Type
REMARK                         _______ _______ _______ _____ _____    ______ ____
ROOT
ATOM      1  O   LIG    1        0.777   0.546   2.530  0.00  0.00    -0.580 OA
ATOM      2  C   LIG    1       -0.222   1.232   2.431  0.00  0.00    +0.710 C 
ATOM      3  N   LIG    1       -0.853   1.667   3.540  0.00  0.00    -0.730 N 
ATOM      4  H   LIG    1       -1.650   2.214   3.462  0.00  0.00    +0.400 HD
ATOM      5  N   LIG    1       -0.698   1.558   1.213  0.00  0.00    -0.740 N 
ATOM      6  H   LIG    1       -1.495   2.106   1.135  0.00  0.00    +0.400 HD
ENDROOT
BRANCH   3   7
ATOM      7  C   LIG    1       -0.335   1.313   4.864  0.00  0.00    +0.310 C 
ATOM      8  C   LIG    1       -0.942   0.007   5.334  0.00  0.00    -0.110 A 
ATOM      9  C   LIG    1       -0.646  -1.298   4.981  0.00  0.00    +0.040 A 
ATOM     10  C   LIG    1       -1.344  -2.347   5.549  0.00  0.00    +0.000 A 
ATOM     11  C   LIG    1       -2.338  -2.093   6.474  0.00  0.00    +0.010 A 
ATOM     12  C   LIG    1       -2.634  -0.791   6.829  0.00  0.00    +0.010 A 
ATOM     13  C   LIG    1       -1.938   0.261   6.260  0.00  0.00    -0.090 A 
ATOM     14  C   LIG    1       -2.069   1.755   6.474  0.00  0.00    +0.080 C 
ATOM     15  C   LIG    1       -0.774   2.354   5.905  0.00  0.00    -0.060 C 
ATOM     16  C   LIG    1       -1.048   3.697   5.240  0.00  0.00    +0.010 C 
ATOM     17  C   LIG    1       -1.438   4.722   6.310  0.00  0.00    +0.210 C 
ATOM     18  O   LIG    1       -0.404   4.796   7.294  0.00  0.00    -0.380 OA
ATOM     19  C   LIG    1       -0.173   3.571   7.994  0.00  0.00    +0.210 C 
ATOM     20  C   LIG    1        0.277   2.497   6.999  0.00  0.00    +0.020 C 
ENDBRANCH   3   7
BRANCH   5  21
ATOM     21  C   LIG    1       -0.013   1.086   0.008  0.00  0.00    +0.430 C 
BRANCH  21  22
ATOM     22  C   LIG    1       -0.742   1.585  -1.213  0.00  0.00    -0.050 A 
ATOM     23  N   LIG    1       -0.515   2.704  -1.822  0.00  0.00    -0.230 NA
ATOM     24  N   LIG    1       -1.230   2.948  -2.836  0.00  0.00    -0.260 NA
ATOM     25  C   LIG    1       -2.115   2.056  -3.146  0.00  0.00    +0.020 A 
ATOM     26  S   LIG    1       -2.012   0.770  -2.021  0.00  0.00    +0.200 S 
BRANCH  25  27
ATOM     27  C   LIG    1       -3.077   2.137  -4.303  0.00  0.00    +0.030 C 
ATOM     28  C   LIG    1       -2.875   3.270  -5.312  0.00  0.00    +0.070 C 
ATOM     29  C   LIG    1       -4.050   3.318  -4.332  0.00  0.00    +0.060 C 
ENDBRANCH  25  27
ENDBRANCH  21  22
ENDBRANCH   5  21
TORSDOF 4
