REMARK  Name = ZINCrH000004oKok.1
REMARK                            x       y       z     vdW  Elec       q    Type
REMARK                         _______ _______ _______ _____ _____    ______ ____
ROOT
ATOM      1  C   LIG    1        1.178   2.060   0.002  0.00  0.00    +0.060 A 
ATOM      2  C   LIG    1        1.154   3.447   0.009  0.00  0.00    +0.010 A 
ATOM      3  C   LIG    1       -0.055   4.117   0.024  0.00  0.00    +0.030 A 
ATOM      4  C   LIG    1       -1.241   3.406   0.031  0.00  0.00    -0.080 A 
ATOM      5  C   LIG    1       -1.222   2.023   0.019  0.00  0.00    +0.010 A 
ATOM      6  C   LIG    1       -0.016   1.347   0.009  0.00  0.00    +0.130 A 
ATOM      7  F   LIG    1        0.002  -0.004   0.002  0.00  0.00    -0.120 F 
ENDROOT
BRANCH   1  11
ATOM      8  C   LIG    1        5.338   1.339  -2.412  0.00  0.00    +0.050 C 
ATOM      9  C   LIG    1        4.483   0.921  -1.215  0.00  0.00    +0.160 C 
ATOM     10  C   LIG    1        3.183   1.730  -1.208  0.00  0.00    +0.170 C 
ATOM     11  N   LIG    1        2.400   1.380  -0.013  0.00  0.00    -0.500 N 
ATOM     12  C   LIG    1        3.169   1.650   1.210  0.00  0.00    +0.170 C 
ATOM     13  C   LIG    1        4.468   0.842   1.179  0.00  0.00    +0.200 C 
ATOM     14  C   LIG    1        4.141  -0.653   1.177  0.00  0.00    +0.020 C 
ATOM     15  O   LIG    1        5.201   1.172  -0.004  0.00  0.00    -0.370 OA
ENDBRANCH   1  11
BRANCH   4  16
ATOM     16  C   LIG    1       -2.557   4.140   0.046  0.00  0.00    +0.330 C 
BRANCH  16  17
ATOM     17  N   LIG    1       -2.995   4.385  -1.330  0.00  0.00    -0.720 N 
ATOM     18  H   LIG    1       -2.452   4.081  -2.074  0.00  0.00    +0.400 HD
ATOM     19  C   LIG    1       -4.155   5.031  -1.562  0.00  0.00    +0.560 C 
ATOM     20  O   LIG    1       -4.837   5.412  -0.630  0.00  0.00    -0.530 OA
BRANCH  19  21
ATOM     21  C   LIG    1       -4.597   5.278  -2.949  0.00  0.00    -0.140 A 
ATOM     22  C   LIG    1       -5.799   5.948  -3.192  0.00  0.00    +0.110 A 
ATOM     23  C   LIG    1       -6.208   6.177  -4.487  0.00  0.00    +0.010 A 
ATOM     24  C   LIG    1       -5.428   5.743  -5.552  0.00  0.00    +0.150 A 
ATOM     25  C   LIG    1       -4.230   5.076  -5.314  0.00  0.00    -0.070 A 
ATOM     26 CL   LIG    1       -3.259   4.537  -6.649  0.00  0.00    -0.050 Cl
ATOM     27  C   LIG    1       -3.812   4.847  -4.022  0.00  0.00    +0.080 A 
BRANCH  24  28
ATOM     28  O   LIG    1       -5.835   5.971  -6.827  0.00  0.00    -0.480 OA
ATOM     29  H   LIG    1       -5.522   6.809  -7.195  0.00  0.00    +0.400 HD
ENDBRANCH  24  28
ENDBRANCH  19  21
ENDBRANCH  16  17
ENDBRANCH   4  16
TORSDOF 5
