REMARK  Name = ZINCpe00000VVGPZ.0
REMARK                            x       y       z     vdW  Elec       q    Type
REMARK                         _______ _______ _______ _____ _____    ______ ____
ROOT
ATOM      1  N   LIG    1       -2.012   1.308  -3.707  0.00  0.00    -0.490 N 
ATOM      2  C   LIG    1       -0.677   1.914  -3.606  0.00  0.00    +0.200 C 
ATOM      3  C   LIG    1        0.059   1.323  -2.401  0.00  0.00    +0.200 C 
ATOM      4  N   LIG    1       -0.723   1.572  -1.182  0.00  0.00    -0.520 NA
ATOM      5  C   LIG    1       -2.058   0.966  -1.283  0.00  0.00    +0.190 C 
ATOM      6  C   LIG    1       -2.794   1.557  -2.488  0.00  0.00    +0.210 C 
ENDROOT
BRANCH   1  12
ATOM      7  C   LIG    1       -6.028   1.286  -6.539  0.00  0.00    +0.090 C 
ATOM      8  C   LIG    1       -4.636   1.777  -6.237  0.00  0.00    -0.060 A 
ATOM      9  C   LIG    1       -4.026   2.688  -7.079  0.00  0.00    -0.030 A 
ATOM     10  C   LIG    1       -2.749   3.142  -6.805  0.00  0.00    +0.030 A 
ATOM     11  C   LIG    1       -2.080   2.689  -5.685  0.00  0.00    -0.050 A 
ATOM     12  C   LIG    1       -2.688   1.770  -4.838  0.00  0.00    +0.120 A 
ATOM     13  C   LIG    1       -3.971   1.317  -5.117  0.00  0.00    -0.020 A 
ENDBRANCH   1  12
BRANCH   4  14
ATOM     14  C   LIG    1       -0.013   1.086   0.008  0.00  0.00    +0.210 C 
BRANCH  14  15
ATOM     15  C   LIG    1       -0.718   1.572   1.248  0.00  0.00    +0.520 C 
ATOM     16  N   LIG    1       -0.242   1.246   2.466  0.00  0.00    -0.730 N 
ATOM     17  H   LIG    1        0.555   0.699   2.544  0.00  0.00    +0.400 HD
ATOM     18  O   LIG    1       -1.714   2.256   1.150  0.00  0.00    -0.510 OA
BRANCH  16  19
ATOM     19  C   LIG    1       -0.927   1.718   3.671  0.00  0.00    +0.190 C 
ATOM     20  C   LIG    1       -0.955   3.248   3.659  0.00  0.00    +0.080 C 
ATOM     21  C   LIG    1       -0.964   3.757   5.123  0.00  0.00    -0.290 C 
ATOM     22  S   LIG    1        0.264   2.630   5.898  0.00  0.00    +2.380 S 
ATOM     23  O   LIG    1        1.579   3.040   5.551  0.00  0.00    -0.930 OA
ATOM     24  O   LIG    1       -0.080   2.414   7.260  0.00  0.00    -0.930 OA
ATOM     25  C   LIG    1       -2.365   1.196   3.660  0.00  0.00    +0.050 C 
ATOM     26  C   LIG    1       -0.204   1.161   4.907  0.00  0.00    -0.310 C 
ENDBRANCH  16  19
ENDBRANCH  14  15
ENDBRANCH   4  14
TORSDOF 4
