REMARK  Name = ZINCpk00000eaAm0.0
REMARK                            x       y       z     vdW  Elec       q    Type
REMARK                         _______ _______ _______ _____ _____    ______ ____
ROOT
ATOM      1  O   LIG    1        0.000   4.228   0.024  0.00  0.00    -0.340 OA
ENDROOT
BRANCH   1   2
ATOM      2  C   LIG    1        1.172   3.564   0.009  0.00  0.00    +0.500 C 
ATOM      3  O   LIG    1        2.219   4.180   0.003  0.00  0.00    -0.470 OA
BRANCH   2   9
ATOM      4  C   LIG    1        2.398   1.395  -0.012  0.00  0.00    -0.610 A 
ATOM      5  C   LIG    1        2.402   0.016  -0.020  0.00  0.00    +0.130 A 
ATOM      6  C   LIG    1        1.208  -0.683  -0.013  0.00  0.00    +0.040 A 
ATOM      7  C   LIG    1        0.002  -0.004   0.002  0.00  0.00    +0.060 A 
ATOM      8  C   LIG    1       -0.017   1.375   0.010  0.00  0.00    +0.080 A 
ATOM      9  C   LIG    1        1.185   2.087   0.002  0.00  0.00    -0.040 A 
BRANCH   4  11
ATOM     10  C   LIG    1        3.922   3.161  -1.609  0.00  0.00    -0.240 C 
ATOM     11  S   LIG    1        3.920   2.283  -0.022  0.00  0.00    +2.510 S 
ATOM     12  O   LIG    1        4.917   1.270  -0.010  0.00  0.00    -0.940 OA
ATOM     13  O   LIG    1        3.797   3.201   1.056  0.00  0.00    -0.910 OA
ENDBRANCH   4  11
ENDBRANCH   2   9
ENDBRANCH   1   2
BRANCH   1  14
ATOM     14  C   LIG    1        0.064   5.678   0.030  0.00  0.00    +0.380 C 
BRANCH  14  15
ATOM     15  C   LIG    1       -1.333   6.243   0.046  0.00  0.00    +0.240 A 
ATOM     16  N   LIG    1       -2.059   6.543  -0.998  0.00  0.00    -0.300 NA
ATOM     17  N   LIG    1       -3.204   6.999  -0.637  0.00  0.00    -0.030 NA
ATOM     18  N   LIG    1       -3.286   7.031   0.649  0.00  0.00    -0.060 NA
ATOM     19  N   LIG    1       -2.065   6.537   1.143  0.00  0.00    -0.310 N 
BRANCH  19  20
ATOM     20  C   LIG    1       -1.689   6.383   2.485  0.00  0.00    +0.110 A 
ATOM     21  C   LIG    1       -0.892   5.312   2.865  0.00  0.00    +0.020 A 
ATOM     22  C   LIG    1       -0.519   5.165   4.187  0.00  0.00    +0.040 A 
ATOM     23  C   LIG    1       -0.947   6.079   5.133  0.00  0.00    +0.040 A 
ATOM     24  C   LIG    1       -1.746   7.143   4.758  0.00  0.00    +0.040 A 
ATOM     25  C   LIG    1       -2.118   7.298   3.437  0.00  0.00    +0.050 A 
ENDBRANCH  19  20
ENDBRANCH  14  15
ENDBRANCH   1  14
TORSDOF 6
