REMARK  Name = ZINCkj00000dDsma.0
REMARK                            x       y       z     vdW  Elec       q    Type
REMARK                         _______ _______ _______ _____ _____    ______ ____
ROOT
ATOM      1  C   LIG    1       -0.016   2.502   2.263  0.00  0.00    +0.510 C 
ATOM      2  N   LIG    1       -0.704   1.998   1.218  0.00  0.00    -0.580 N 
ATOM      3  C   LIG    1       -2.171   1.899   1.246  0.00  0.00    +0.290 C 
ATOM      4  C   LIG    1       -2.724   2.818   0.157  0.00  0.00    +0.090 C 
ATOM      5  C   LIG    1       -1.991   2.609  -1.142  0.00  0.00    -0.120 A 
ATOM      6  C   LIG    1       -2.615   3.037  -2.310  0.00  0.00    +0.140 A 
ATOM      7  C   LIG    1       -1.994   2.888  -3.534  0.00  0.00    -0.020 A 
ATOM      8  C   LIG    1       -0.739   2.307  -3.602  0.00  0.00    +0.140 A 
ATOM      9  C   LIG    1       -0.120   1.877  -2.443  0.00  0.00    +0.000 A 
ATOM     10  F   LIG    1       -0.122   2.161  -4.795  0.00  0.00    -0.120 F 
ATOM     11  F   LIG    1       -3.840   3.604  -2.246  0.00  0.00    -0.120 F 
ATOM     12  C   LIG    1       -0.746   2.025  -1.213  0.00  0.00    -0.040 A 
ATOM     13  C   LIG    1       -0.019   1.526   0.010  0.00  0.00    +0.300 C 
ATOM     14  C   LIG    1        0.002  -0.004   0.002  0.00  0.00    +0.070 C 
ATOM     15  O   LIG    1        1.194   2.572   2.215  0.00  0.00    -0.510 OA
ENDROOT
BRANCH   1  16
ATOM     16  C   LIG    1       -0.751   2.978   3.489  0.00  0.00    +0.180 C 
BRANCH  16  17
ATOM     17  N   LIG    1        0.111   3.891   4.252  0.00  0.00    -0.620 N 
ATOM     18  H   LIG    1        0.951   3.407   4.530  0.00  0.00    +0.440 HD
ATOM     19  H   LIG    1       -0.381   4.210   5.073  0.00  0.00    +0.450 HD
ATOM     20  H   LIG    1        0.354   4.684   3.677  0.00  0.00    +0.440 HD
ENDBRANCH  16  17
BRANCH  16  21
ATOM     21  C   LIG    1       -1.120   1.777   4.361  0.00  0.00    +0.230 C 
BRANCH  21  23
ATOM     22  C   LIG    1       -2.317   1.165   6.346  0.00  0.00    +0.260 C 
ATOM     23  O   LIG    1       -1.916   2.215   5.464  0.00  0.00    -0.400 OA
ENDBRANCH  21  23
ENDBRANCH  16  21
ENDBRANCH   1  16
TORSDOF 4
