REMARK  Name = ZINCpk00000KfKB9.0
REMARK                            x       y       z     vdW  Elec       q    Type
REMARK                         _______ _______ _______ _____ _____    ______ ____
ROOT
ATOM      1  N   LIG    1       -0.255   2.805   1.972  0.00  0.00    -0.530 NA
ATOM      2  C   LIG    1       -0.943   2.537   0.702  0.00  0.00    +0.190 C 
ATOM      3  C   LIG    1       -0.948   3.808  -0.151  0.00  0.00    +0.190 C 
ATOM      4  N   LIG    1        0.437   4.243  -0.386  0.00  0.00    -0.520 NA
ATOM      5  C   LIG    1        1.124   4.511   0.885  0.00  0.00    +0.180 C 
ATOM      6  C   LIG    1        1.129   3.240   1.738  0.00  0.00    +0.180 C 
ENDROOT
BRANCH   4   7
ATOM      7  C   LIG    1        0.477   5.419  -1.264  0.00  0.00    +0.130 C 
ATOM      8  C   LIG    1       -0.368   5.153  -2.512  0.00  0.00    +0.060 C 
BRANCH   7   9
ATOM      9  C   LIG    1        1.902   5.693  -1.672  0.00  0.00    +0.520 C 
ATOM     10  N   LIG    1        2.286   6.948  -1.979  0.00  0.00    -0.710 N 
ATOM     11  H   LIG    1        1.645   7.675  -1.938  0.00  0.00    +0.400 HD
ATOM     12  O   LIG    1        2.704   4.784  -1.723  0.00  0.00    -0.510 OA
BRANCH  10  13
ATOM     13  C   LIG    1        3.671   7.214  -2.375  0.00  0.00    +0.220 C 
ATOM     14  C   LIG    1        4.353   8.445  -1.776  0.00  0.00    +0.010 C 
ATOM     15  C   LIG    1        3.933   8.443  -3.247  0.00  0.00    +0.010 C 
ENDBRANCH  10  13
ENDBRANCH   7   9
ENDBRANCH   4   7
BRANCH   1  16
ATOM     16  C   LIG    1       -0.296   1.629   2.851  0.00  0.00    +0.150 C 
BRANCH  16  17
ATOM     17  C   LIG    1       -1.706   1.470   3.425  0.00  0.00    +0.180 C 
ATOM     18  C   LIG    1       -2.135   2.777   4.094  0.00  0.00    +0.080 C 
BRANCH  17  23
ATOM     19  C   LIG    1       -1.724  -2.790   7.330  0.00  0.00    +0.090 C 
ATOM     20  C   LIG    1       -1.719  -1.679   6.312  0.00  0.00    -0.080 A 
ATOM     21  C   LIG    1       -2.860  -1.408   5.579  0.00  0.00    +0.000 A 
ATOM     22  C   LIG    1       -2.855  -0.389   4.645  0.00  0.00    +0.030 A 
ATOM     23  C   LIG    1       -1.710   0.359   4.444  0.00  0.00    -0.120 A 
ATOM     24  C   LIG    1       -0.569   0.085   5.173  0.00  0.00    +0.010 A 
ATOM     25  C   LIG    1       -0.575  -0.931   6.111  0.00  0.00    +0.000 A 
ENDBRANCH  17  23
BRANCH  17  26
ATOM     26  O   LIG    1       -2.616   1.153   2.371  0.00  0.00    -0.550 OA
ATOM     27  H   LIG    1       -2.405   0.334   1.901  0.00  0.00    +0.370 HD
ENDBRANCH  17  26
ENDBRANCH  16  17
ENDBRANCH   1  16
TORSDOF 7
