REMARK  Name = ZINCtV00001bB3tI.0
REMARK                            x       y       z     vdW  Elec       q    Type
REMARK                         _______ _______ _______ _____ _____    ______ ____
ROOT
ATOM      1  C   LIG    1        1.116  -6.004  -1.813  0.00  0.00    +0.270 C 
ATOM      2  C   LIG    1        0.199  -6.842  -1.218  0.00  0.00    -0.150 C 
ENDROOT
BRANCH   1   6
ATOM      3  C   LIG    1        0.914  -1.824  -1.133  0.00  0.00    +0.140 A 
ATOM      4  C   LIG    1        0.425  -2.707  -0.178  0.00  0.00    -0.040 A 
ATOM      5  C   LIG    1        0.488  -4.065  -0.394  0.00  0.00    +0.050 A 
ATOM      6  C   LIG    1        1.048  -4.560  -1.580  0.00  0.00    -0.120 A 
ATOM      7  C   LIG    1        1.541  -3.667  -2.543  0.00  0.00    +0.020 A 
ATOM      8  C   LIG    1        1.468  -2.308  -2.319  0.00  0.00    +0.090 A 
BRANCH   8   9
ATOM      9  O   LIG    1        1.940  -1.439  -3.252  0.00  0.00    -0.300 OA
ATOM     10  C   LIG    1        2.494  -2.004  -4.443  0.00  0.00    +0.240 C 
ENDBRANCH   8   9
BRANCH   3  11
ATOM     11  O   LIG    1        0.848  -0.486  -0.914  0.00  0.00    -0.300 OA
BRANCH  11  12
ATOM     12  C   LIG    1        0.264  -0.058   0.318  0.00  0.00    +0.190 C 
BRANCH  12  13
ATOM     13  C   LIG    1        0.277   1.470   0.386  0.00  0.00    +0.040 C 
BRANCH  13  14
ATOM     14  C   LIG    1       -0.348   1.928   1.705  0.00  0.00    +0.020 C 
BRANCH  14  16
ATOM     15  C   LIG    1       -0.961   3.914   3.091  0.00  0.00    +0.010 C 
ATOM     16  C   LIG    1       -0.336   3.457   1.772  0.00  0.00    +0.000 C 
ENDBRANCH  14  16
ENDBRANCH  13  14
ENDBRANCH  12  13
ENDBRANCH  11  12
ENDBRANCH   3  11
ENDBRANCH   1   6
BRANCH   2  17
ATOM     17  C   LIG    1        0.368  -8.301  -1.308  0.00  0.00    +0.580 C 
ATOM     18  N   LIG    1       -0.529  -9.121  -0.727  0.00  0.00    -0.660 N 
ATOM     19  H   LIG    1       -1.328  -8.753  -0.317  0.00  0.00    +0.420 HD
ATOM     20  O   LIG    1        1.319  -8.767  -1.908  0.00  0.00    -0.500 OA
BRANCH  18  21
ATOM     21  C   LIG    1       -0.309 -10.503  -0.714  0.00  0.00    +0.170 A 
ATOM     22  C   LIG    1        0.982 -11.002  -0.813  0.00  0.00    +0.060 A 
ATOM     23  C   LIG    1        1.197 -12.367  -0.795  0.00  0.00    +0.070 A 
ATOM     24  C   LIG    1        0.126 -13.236  -0.689  0.00  0.00    -0.040 A 
ATOM     25  C   LIG    1       -1.163 -12.742  -0.595  0.00  0.00    +0.070 A 
ATOM     26 CL   LIG    1        0.400 -14.950  -0.674  0.00  0.00    -0.050 Cl
ATOM     27  C   LIG    1       -1.384 -11.378  -0.607  0.00  0.00    -0.060 A 
ATOM     28 CL   LIG    1       -3.001 -10.758  -0.490  0.00  0.00    -0.050 Cl
ENDBRANCH  18  21
ENDBRANCH   2  17
BRANCH   2  29
ATOM     29  C   LIG    1       -0.920  -6.294  -0.512  0.00  0.00    +0.240 C 
ATOM     30  N   LIG    1       -1.808  -5.859   0.048  0.00  0.00    -0.400 NA
ENDBRANCH   2  29
TORSDOF 10
