REMARK  Name = ZINCvU0000000CfZ.0
REMARK                            x       y       z     vdW  Elec       q    Type
REMARK                         _______ _______ _______ _____ _____    ______ ____
ROOT
ATOM      1  N   LIG    1       -1.256   1.808  -0.404  0.00  0.00    -0.630 N 
ATOM      2  H   LIG    1       -1.296   2.766  -0.553  0.00  0.00    +0.420 HD
ATOM      3  C   LIG    1       -0.064   1.204  -0.223  0.00  0.00    +0.530 C 
ATOM      4  O   LIG    1       -0.013   0.007  -0.036  0.00  0.00    -0.480 OA
ENDROOT
BRANCH   1   6
ATOM      5  C   LIG    1       -3.679   1.574  -0.549  0.00  0.00    -0.190 A 
ATOM      6  C   LIG    1       -2.422   1.061  -0.377  0.00  0.00    +0.050 A 
ATOM      7  S   LIG    1       -2.488  -0.623  -0.133  0.00  0.00    +0.310 S 
ATOM      8  C   LIG    1       -4.239  -0.657  -0.252  0.00  0.00    -0.240 A 
ATOM      9  C   LIG    1       -5.093  -1.904  -0.127  0.00  0.00    +0.120 C 
ATOM     10  C   LIG    1       -6.482  -1.609  -0.699  0.00  0.00    -0.010 C 
ATOM     11  C   LIG    1       -7.431  -2.761  -0.360  0.00  0.00    +0.030 C 
ATOM     12  C   LIG    1       -7.010  -0.310  -0.083  0.00  0.00    +0.030 C 
ATOM     13  C   LIG    1       -6.207   0.870  -0.632  0.00  0.00    +0.100 C 
ATOM     14  C   LIG    1       -4.725   0.570  -0.475  0.00  0.00    -0.040 A 
BRANCH   5  15
ATOM     15  C   LIG    1       -3.942   2.994  -0.785  0.00  0.00    +0.540 C 
ATOM     16  O   LIG    1       -3.974   3.427  -1.922  0.00  0.00    -0.490 OA
BRANCH  15  17
ATOM     17  O   LIG    1       -4.150   3.824   0.258  0.00  0.00    -0.350 OA
BRANCH  17  19
ATOM     18  C   LIG    1       -4.616   5.999   1.248  0.00  0.00    +0.070 C 
ATOM     19  C   LIG    1       -4.406   5.220  -0.051  0.00  0.00    +0.200 C 
ENDBRANCH  17  19
ENDBRANCH  15  17
ENDBRANCH   5  15
ENDBRANCH   1   6
BRANCH   3  20
ATOM     20  C   LIG    1        1.205   2.016  -0.258  0.00  0.00    +0.000 C 
ATOM     21  C   LIG    1        1.468   2.612   1.127  0.00  0.00    +0.090 C 
BRANCH  20  22
ATOM     22  S   LIG    1        2.593   0.948  -0.731  0.00  0.00    -0.060 S 
BRANCH  22  23
ATOM     23  C   LIG    1        3.921   2.089  -0.928  0.00  0.00    -0.160 A 
ATOM     24  C   LIG    1        4.090   2.758  -2.134  0.00  0.00    +0.090 A 
ATOM     25  C   LIG    1        5.128   3.655  -2.286  0.00  0.00    +0.010 A 
ATOM     26  C   LIG    1        6.010   3.881  -1.238  0.00  0.00    +0.180 A 
ATOM     27  C   LIG    1        5.845   3.209  -0.034  0.00  0.00    -0.030 A 
ATOM     28  C   LIG    1        4.804   2.315   0.121  0.00  0.00    +0.100 A 
BRANCH  26  29
ATOM     29  N   LIG    1        7.068   4.787  -1.395  0.00  0.00    -0.680 N 
ATOM     30  H   LIG    1        7.912   4.631  -0.943  0.00  0.00    +0.420 HD
ATOM     31  C   LIG    1        6.913   5.875  -2.175  0.00  0.00    +0.510 C 
ATOM     32  O   LIG    1        5.831   6.120  -2.666  0.00  0.00    -0.520 OA
ATOM     33  C   LIG    1        8.083   6.787  -2.437  0.00  0.00    +0.110 C 
ENDBRANCH  26  29
ENDBRANCH  22  23
ENDBRANCH  20  22
ENDBRANCH   3  20
TORSDOF 8
