REMARK  Name = ZINCvU0000000E01.0
REMARK                            x       y       z     vdW  Elec       q    Type
REMARK                         _______ _______ _______ _____ _____    ______ ____
ROOT
ATOM      1  C   LIG    1        2.454   4.020  -0.021  0.00  0.00    -0.690 A 
ATOM      2  C   LIG    1        3.648   3.338   0.135  0.00  0.00    +0.190 A 
ATOM      3  C   LIG    1        3.651   1.965   0.304  0.00  0.00    +0.020 A 
ATOM      4  C   LIG    1        2.460   1.266   0.319  0.00  0.00    +0.070 A 
ATOM      5  C   LIG    1        1.251   1.949   0.162  0.00  0.00    -0.150 A 
ATOM      6 CL   LIG    1        2.465  -0.457   0.531  0.00  0.00    -0.010 Cl
ATOM      7  C   LIG    1        1.258   3.334  -0.014  0.00  0.00    +0.180 A 
ENDROOT
BRANCH   5   8
ATOM      8  C   LIG    1       -0.027   1.208   0.175  0.00  0.00    +0.560 C 
ATOM      9  N   LIG    1       -1.191   1.869   0.018  0.00  0.00    -0.670 N 
ATOM     10  H   LIG    1       -1.196   2.839  -0.024  0.00  0.00    +0.420 HD
ATOM     11  O   LIG    1       -0.029   0.002   0.323  0.00  0.00    -0.480 OA
BRANCH   9  12
ATOM     12  C   LIG    1       -2.391   1.158  -0.086  0.00  0.00    +0.160 A 
ATOM     13  C   LIG    1       -2.411  -0.085  -0.704  0.00  0.00    +0.100 A 
ATOM     14  C   LIG    1       -3.597  -0.787  -0.800  0.00  0.00    +0.070 A 
ATOM     15  C   LIG    1       -4.765  -0.248  -0.292  0.00  0.00    -0.000 A 
ATOM     16  C   LIG    1       -4.749   0.993   0.320  0.00  0.00    -0.020 A 
ATOM     17 CL   LIG    1       -6.255  -1.131  -0.422  0.00  0.00    -0.000 Cl
ATOM     18  C   LIG    1       -3.565   1.697   0.424  0.00  0.00    +0.100 A 
BRANCH  16  19
ATOM     19  N   LIG    1       -6.000   1.567   0.863  0.00  0.00    +0.030 N 
ATOM     20  O   LIG    1       -7.045   0.946   0.771  0.00  0.00    -0.130 OA
ATOM     21  O   LIG    1       -5.986   2.659   1.401  0.00  0.00    -0.160 OA
ENDBRANCH  16  19
ENDBRANCH   9  12
ENDBRANCH   5   8
BRANCH   1  22
ATOM     22  S   LIG    1        2.463   5.769  -0.236  0.00  0.00    +2.690 S 
ATOM     23  O   LIG    1        3.680   6.237   0.330  0.00  0.00    -0.940 OA
ATOM     24  O   LIG    1        1.185   6.231   0.180  0.00  0.00    -0.950 OA
BRANCH  22  26
ATOM     25  C   LIG    1        3.869   6.195  -2.506  0.00  0.00    +0.310 C 
ATOM     26  N   LIG    1        2.560   6.062  -1.863  0.00  0.00    -0.990 NA
BRANCH  26  27
ATOM     27  C   LIG    1        1.336   6.189  -2.659  0.00  0.00    +0.240 C 
ATOM     28  C   LIG    1        1.323   5.115  -3.748  0.00  0.00    +0.000 C 
ATOM     29  C   LIG    1        0.045   5.247  -4.579  0.00  0.00    +0.010 C 
ATOM     30  C   LIG    1       -0.000   6.633  -5.228  0.00  0.00    +0.010 C 
ATOM     31  C   LIG    1        0.013   7.707  -4.138  0.00  0.00    +0.020 C 
ATOM     32  C   LIG    1        1.291   7.574  -3.307  0.00  0.00    +0.010 C 
ENDBRANCH  26  27
ENDBRANCH  22  26
ENDBRANCH   1  22
TORSDOF 6
