REMARK  Name = ZINCpk00000y6uHg.0
REMARK                            x       y       z     vdW  Elec       q    Type
REMARK                         _______ _______ _______ _____ _____    ______ ____
ROOT
ATOM      1  N   LIG    1       -0.232  -2.985   0.324  0.00  0.00    -0.480 N 
ATOM      2  C   LIG    1       -0.956  -2.109  -0.606  0.00  0.00    +0.190 C 
ATOM      3  C   LIG    1       -1.666  -2.959  -1.662  0.00  0.00    +0.030 C 
ATOM      4  C   LIG    1       -0.629  -3.794  -2.420  0.00  0.00    +0.230 C 
ATOM      5  C   LIG    1        0.144  -4.661  -1.423  0.00  0.00    +0.040 C 
ATOM      6  C   LIG    1        0.801  -3.762  -0.374  0.00  0.00    +0.190 C 
ENDROOT
BRANCH   1  12
ATOM      7  C   LIG    1        0.857  -2.908   2.484  0.00  0.00    +0.120 A 
ATOM      8  C   LIG    1        1.407  -2.175   3.522  0.00  0.00    -0.060 A 
ATOM      9  C   LIG    1        1.418  -0.793   3.464  0.00  0.00    +0.020 A 
ATOM     10  C   LIG    1        0.881  -0.140   2.371  0.00  0.00    -0.010 A 
ATOM     11  C   LIG    1        0.330  -0.864   1.330  0.00  0.00    +0.000 A 
ATOM     12  C   LIG    1        0.321  -2.250   1.379  0.00  0.00    +0.080 A 
BRANCH   7  14
ATOM     13  C   LIG    1        1.418  -4.874   3.700  0.00  0.00    +0.220 C 
ATOM     14  O   LIG    1        0.846  -4.267   2.540  0.00  0.00    -0.310 OA
ENDBRANCH   7  14
ENDBRANCH   1  12
BRANCH   4  15
ATOM     15  N   LIG    1       -1.308  -4.653  -3.393  0.00  0.00    -0.720 N 
ATOM     16  H   LIG    1       -1.535  -5.566  -3.159  0.00  0.00    +0.400 HD
ATOM     17  C   LIG    1       -1.616  -4.174  -4.615  0.00  0.00    +0.510 C 
ATOM     18  O   LIG    1       -1.332  -3.032  -4.908  0.00  0.00    -0.530 OA
BRANCH  17  19
ATOM     19  C   LIG    1       -2.314  -5.058  -5.616  0.00  0.00    +0.160 C 
ATOM     20  C   LIG    1       -1.404  -5.282  -6.843  0.00  0.00    +0.060 C 
ATOM     21  C   LIG    1       -2.404  -5.253  -8.029  0.00  0.00    +0.160 C 
ATOM     22  C   LIG    1       -3.421  -4.185  -7.555  0.00  0.00    +0.170 C 
ATOM     23  N   LIG    1       -3.542  -4.399  -6.098  0.00  0.00    -0.500 NA
ATOM     24  C   LIG    1       -3.766  -3.128  -5.396  0.00  0.00    +0.200 C 
BRANCH  21  25
ATOM     25  O   LIG    1       -1.755  -4.843  -9.235  0.00  0.00    -0.380 OA
ATOM     26  C   LIG    1       -2.410  -5.285 -10.426  0.00  0.00    +0.200 C 
ENDBRANCH  21  25
ENDBRANCH  17  19
ENDBRANCH   4  15
TORSDOF 5
