REMARK  Name = ZINCrg000000thJz.0
REMARK                            x       y       z     vdW  Elec       q    Type
REMARK                         _______ _______ _______ _____ _____    ______ ____
ROOT
ATOM      1  O   LIG    1        3.413   1.777  -2.762  0.00  0.00    -0.520 OA
ATOM      2  C   LIG    1        3.886   2.347  -1.801  0.00  0.00    +0.500 C 
ATOM      3  N   LIG    1        4.916   3.201  -1.964  0.00  0.00    -0.720 N 
ATOM      4  H   LIG    1        5.294   3.656  -1.196  0.00  0.00    +0.410 HD
ENDROOT
BRANCH   3   5
ATOM      5  C   LIG    1        5.464   3.441  -3.302  0.00  0.00    +0.240 C 
ATOM      6  C   LIG    1        6.588   2.425  -3.611  0.00  0.00    +0.040 C 
ATOM      7  C   LIG    1        7.634   3.284  -4.363  0.00  0.00    +0.190 C 
ATOM      8  N   LIG    1        7.573   4.590  -3.657  0.00  0.00    -0.480 N 
ATOM      9  C   LIG    1        6.143   4.822  -3.361  0.00  0.00    +0.190 C 
BRANCH   8  10
ATOM     10  C   LIG    1        8.093   5.614  -4.452  0.00  0.00    +0.110 A 
ATOM     11  C   LIG    1        7.478   5.943  -5.653  0.00  0.00    -0.010 A 
ATOM     12  C   LIG    1        7.992   6.956  -6.438  0.00  0.00    +0.080 A 
ATOM     13  C   LIG    1        9.121   7.644  -6.030  0.00  0.00    -0.080 A 
ATOM     14  C   LIG    1        9.738   7.319  -4.832  0.00  0.00    +0.120 A 
ATOM     15  F   LIG    1       10.840   7.992  -4.436  0.00  0.00    -0.120 F 
ATOM     16 CL   LIG    1        9.765   8.917  -7.019  0.00  0.00    -0.040 Cl
ATOM     17  C   LIG    1        9.222   6.310  -4.040  0.00  0.00    +0.030 A 
ENDBRANCH   8  10
ENDBRANCH   3   5
BRANCH   2  18
ATOM     18  C   LIG    1        3.322   2.100  -0.426  0.00  0.00    +0.380 C 
BRANCH  18  19
ATOM     19  N   LIG    1        2.219   1.140  -0.515  0.00  0.00    -0.420 N 
ATOM     20  N   LIG    1        0.910   1.592  -0.715  0.00  0.00    -0.260 NA
ATOM     21  C   LIG    1       -0.091   0.782  -0.800  0.00  0.00    +0.570 A 
ATOM     22  N   LIG    1        0.069  -0.582  -0.699  0.00  0.00    -0.340 N 
ATOM     23  N   LIG    1       -0.827  -1.656  -0.755  0.00  0.00    -0.240 NA
ATOM     24  C   LIG    1       -0.157  -2.774  -0.601  0.00  0.00    +0.280 A 
ATOM     25  C   LIG    1        1.192  -2.474  -0.440  0.00  0.00    +0.010 A 
ATOM     26  C   LIG    1        1.323  -1.104  -0.502  0.00  0.00    +0.010 A 
ATOM     27  C   LIG    1        2.463  -0.186  -0.405  0.00  0.00    +0.570 A 
ATOM     28  O   LIG    1        3.593  -0.604  -0.231  0.00  0.00    -0.490 OA
ENDBRANCH  18  19
ENDBRANCH   2  18
TORSDOF 4
