REMARK  Name = ZINCqH0000007aAe.0
REMARK                            x       y       z     vdW  Elec       q    Type
REMARK                         _______ _______ _______ _____ _____    ______ ____
ROOT
ATOM      1  C   LIG    1       -0.997   1.758  -3.630  0.00  0.00    +0.220 C 
ENDROOT
BRANCH   1   2
ATOM      2  C   LIG    1       -0.268   1.258  -2.409  0.00  0.00    +0.520 C 
ATOM      3  N   LIG    1       -0.721   1.571  -1.179  0.00  0.00    -0.730 N 
ATOM      4  H   LIG    1       -1.516   2.118  -1.079  0.00  0.00    +0.400 HD
ATOM      5  O   LIG    1        0.726   0.575  -2.534  0.00  0.00    -0.510 OA
BRANCH   3   6
ATOM      6  C   LIG    1       -0.013   1.086   0.008  0.00  0.00    +0.320 C 
BRANCH   6   7
ATOM      7  C   LIG    1       -0.718   1.572   1.248  0.00  0.00    -0.100 A 
ATOM      8  C   LIG    1       -0.230   2.666   1.937  0.00  0.00    +0.080 A 
ATOM      9  C   LIG    1       -0.880   3.116   3.071  0.00  0.00    +0.030 A 
ATOM     10  C   LIG    1       -2.013   2.464   3.524  0.00  0.00    -0.020 A 
ATOM     11  C   LIG    1       -2.499   1.365   2.838  0.00  0.00    +0.050 A 
ATOM     12 CL   LIG    1       -2.825   3.025   4.952  0.00  0.00    -0.050 Cl
ATOM     13  C   LIG    1       -1.851   0.919   1.700  0.00  0.00    -0.010 A 
ATOM     14 CL   LIG    1       -2.460  -0.460   0.839  0.00  0.00    -0.050 Cl
ENDBRANCH   6   7
ENDBRANCH   3   6
ENDBRANCH   1   2
BRANCH   1  15
ATOM     15  N   LIG    1       -0.309   1.284  -4.838  0.00  0.00    -0.520 NA
ATOM     16  C   LIG    1       -0.395  -0.178  -4.954  0.00  0.00    +0.190 C 
BRANCH  15  17
ATOM     17  C   LIG    1       -0.845   1.939  -6.040  0.00  0.00    +0.230 C 
BRANCH  17  21
ATOM     18  C   LIG    1        1.658   1.040  -9.389  0.00  0.00    +0.100 A 
ATOM     19  C   LIG    1        1.913   2.157  -8.610  0.00  0.00    -0.030 A 
ATOM     20  C   LIG    1        1.099   2.447  -7.530  0.00  0.00    +0.040 A 
ATOM     21  C   LIG    1        0.036   1.620  -7.220  0.00  0.00    -0.080 A 
ATOM     22  C   LIG    1       -0.224   0.504  -7.994  0.00  0.00    -0.030 A 
ATOM     23  C   LIG    1        0.584   0.210  -9.080  0.00  0.00    +0.100 A 
BRANCH  18  25
ATOM     24  C   LIG    1        3.537   1.652 -10.712  0.00  0.00    +0.250 C 
ATOM     25  O   LIG    1        2.454   0.756 -10.454  0.00  0.00    -0.310 OA
ENDBRANCH  18  25
BRANCH  23  26
ATOM     26  O   LIG    1        0.330  -0.887  -9.842  0.00  0.00    -0.310 OA
ATOM     27  C   LIG    1       -0.788  -1.693  -9.465  0.00  0.00    +0.230 C 
ENDBRANCH  23  26
ENDBRANCH  17  21
ENDBRANCH  15  17
ENDBRANCH   1  15
TORSDOF 8
