REMARK  Name = ZINCtV000002wAXX.0
REMARK                            x       y       z     vdW  Elec       q    Type
REMARK                         _______ _______ _______ _____ _____    ______ ____
ROOT
ATOM      1  C   LIG    1       -0.051   1.535   0.106  0.00  0.00    -0.190 A 
ATOM      2  C   LIG    1        1.090   2.288   0.081  0.00  0.00    +0.040 A 
ATOM      3  S   LIG    1        0.717   3.949   0.114  0.00  0.00    +0.310 S 
ATOM      4  C   LIG    1       -1.012   3.645   0.164  0.00  0.00    -0.240 A 
ATOM      5  C   LIG    1       -2.081   4.720   0.211  0.00  0.00    +0.120 C 
ATOM      6  C   LIG    1       -3.402   4.085   0.643  0.00  0.00    -0.010 C 
ATOM      7  C   LIG    1       -4.543   5.086   0.453  0.00  0.00    +0.030 C 
ATOM      8  C   LIG    1       -3.666   2.839  -0.208  0.00  0.00    +0.030 C 
ATOM      9  C   LIG    1       -2.667   1.746   0.178  0.00  0.00    +0.100 C 
ATOM     10  C   LIG    1       -1.265   2.331   0.149  0.00  0.00    -0.040 A 
ENDROOT
BRANCH   2  11
ATOM     11  N   LIG    1        2.375   1.770   0.033  0.00  0.00    -0.630 N 
ATOM     12  H   LIG    1        2.510   0.810   0.016  0.00  0.00    +0.420 HD
ATOM     13  C   LIG    1        3.436   2.601   0.012  0.00  0.00    +0.500 C 
ATOM     14  O   LIG    1        3.267   3.802   0.034  0.00  0.00    -0.470 OA
BRANCH  13  15
ATOM     15  C   LIG    1        4.833   2.038  -0.040  0.00  0.00    +0.000 C 
ATOM     16  C   LIG    1        5.214   1.751  -1.494  0.00  0.00    +0.120 C 
BRANCH  15  17
ATOM     17  S   LIG    1        5.995   3.240   0.664  0.00  0.00    +0.010 S 
BRANCH  17  18
ATOM     18  C   LIG    1        5.573   3.245   2.374  0.00  0.00    -0.080 A 
ATOM     19  C   LIG    1        4.633   2.346   2.862  0.00  0.00    +0.010 A 
ATOM     20  C   LIG    1        4.308   2.350   4.206  0.00  0.00    -0.010 A 
ATOM     21  C   LIG    1        4.911   3.254   5.063  0.00  0.00    +0.050 A 
ATOM     22  C   LIG    1        5.843   4.154   4.579  0.00  0.00    +0.080 A 
ATOM     23 CL   LIG    1        3.138   1.223   4.818  0.00  0.00    -0.050 Cl
ATOM     24  C   LIG    1        6.177   4.153   3.239  0.00  0.00    -0.020 A 
ATOM     25 CL   LIG    1        7.347   5.283   2.633  0.00  0.00    -0.040 Cl
ENDBRANCH  17  18
ENDBRANCH  15  17
ENDBRANCH  13  15
ENDBRANCH   2  11
BRANCH   1  26
ATOM     26  C   LIG    1       -0.050   0.071   0.086  0.00  0.00    +0.530 C 
ATOM     27  O   LIG    1       -0.017  -0.552   1.130  0.00  0.00    -0.490 OA
BRANCH  26  28
ATOM     28  O   LIG    1       -0.085  -0.588  -1.091  0.00  0.00    -0.350 OA
BRANCH  28  30
ATOM     29  C   LIG    1       -0.125  -2.604  -2.457  0.00  0.00    +0.070 C 
ATOM     30  C   LIG    1       -0.082  -2.038  -1.035  0.00  0.00    +0.200 C 
ENDBRANCH  28  30
ENDBRANCH  26  28
ENDBRANCH   1  26
TORSDOF 7
