REMARK  Name = ZINCrD000006VqLW.0
REMARK                            x       y       z     vdW  Elec       q    Type
REMARK                         _______ _______ _______ _____ _____    ______ ____
ROOT
ATOM      1  O   LIG    1        7.158   0.412  -4.223  0.00  0.00    -0.510 OA
ATOM      2  C   LIG    1        6.108  -0.155  -4.440  0.00  0.00    +0.520 C 
ATOM      3  N   LIG    1        6.077  -1.225  -5.259  0.00  0.00    -0.670 N 
ATOM      4  H   LIG    1        5.250  -1.718  -5.381  0.00  0.00    +0.410 HD
ENDROOT
BRANCH   3   5
ATOM      5  C   LIG    1        7.233  -1.625  -5.929  0.00  0.00    +0.160 A 
ATOM      6  C   LIG    1        8.467  -1.492  -5.329  0.00  0.00    +0.030 A 
ATOM      7  C   LIG    1        9.624  -1.893  -5.989  0.00  0.00    +0.060 A 
ATOM      8  C   LIG    1        9.574  -2.415  -7.245  0.00  0.00    +0.030 A 
ATOM      9  C   LIG    1        8.337  -2.563  -7.897  0.00  0.00    +0.140 A 
ATOM     10  N   LIG    1        8.265  -3.074  -9.130  0.00  0.00    -0.470 NA
ATOM     11  C   LIG    1        7.115  -3.214  -9.744  0.00  0.00    +0.290 A 
ATOM     12  C   LIG    1        5.915  -2.841  -9.145  0.00  0.00    -0.030 A 
ATOM     13  C   LIG    1        5.918  -2.312  -7.885  0.00  0.00    +0.070 A 
ATOM     14  C   LIG    1        7.152  -2.163  -7.231  0.00  0.00    -0.110 A 
ENDBRANCH   3   5
BRANCH   2  15
ATOM     15  C   LIG    1        4.838   0.338  -3.796  0.00  0.00    +0.010 C 
ATOM     16  C   LIG    1        5.149   1.555  -2.922  0.00  0.00    +0.060 C 
ATOM     17  C   LIG    1        3.850   2.074  -2.296  0.00  0.00    +0.300 C 
ATOM     18  N   LIG    1        3.196   0.970  -1.581  0.00  0.00    -1.000 NA
ATOM     19  C   LIG    1        2.938  -0.283  -2.302  0.00  0.00    +0.300 C 
ATOM     20  C   LIG    1        4.241  -0.774  -2.930  0.00  0.00    +0.030 C 
BRANCH  18  21
ATOM     21  S   LIG    1        2.764   1.133   0.009  0.00  0.00    +2.720 S 
ATOM     22  O   LIG    1        2.692  -0.182   0.542  0.00  0.00    -0.950 OA
ATOM     23  O   LIG    1        3.600   2.147   0.550  0.00  0.00    -0.940 OA
BRANCH  21  24
ATOM     24  C   LIG    1        1.122   1.773   0.040  0.00  0.00    -0.800 A 
ATOM     25  C   LIG    1        0.010   1.037   0.051  0.00  0.00    +0.160 A 
ATOM     26  C   LIG    1       -1.169   1.762   0.069  0.00  0.00    -0.010 A 
ATOM     27  C   LIG    1       -1.014   3.087   0.085  0.00  0.00    +0.010 A 
ATOM     28  S   LIG    1        0.700   3.481   0.062  0.00  0.00    +0.220 S 
ENDBRANCH  21  24
ENDBRANCH  18  21
ENDBRANCH   2  15
TORSDOF 4
