REMARK  Name = ZINCpe00000gMZ05.0
REMARK                            x       y       z     vdW  Elec       q    Type
REMARK                         _______ _______ _______ _____ _____    ______ ____
ROOT
ATOM      1  N   LIG    1        5.291   7.295  -2.630  0.00  0.00    -0.530 NA
ATOM      2  C   LIG    1        4.385   6.654  -3.592  0.00  0.00    +0.170 C 
ATOM      3  C   LIG    1        2.946   7.103  -3.310  0.00  0.00    +0.300 C 
ATOM      4  N   LIG    1        2.642   6.835  -1.896  0.00  0.00    -0.620 N 
ATOM      5  C   LIG    1        3.578   7.334  -0.877  0.00  0.00    +0.280 C 
ATOM      6  C   LIG    1        1.533   6.156  -1.544  0.00  0.00    +0.500 C 
ATOM      7  O   LIG    1        0.770   5.756  -2.398  0.00  0.00    -0.530 OA
ATOM      8  C   LIG    1        4.994   6.871  -1.255  0.00  0.00    +0.170 C 
ENDROOT
BRANCH   1   9
ATOM      9  C   LIG    1        6.695   7.028  -2.971  0.00  0.00    +0.280 C 
BRANCH   9  16
ATOM     10  C   LIG    1        7.682   5.304  -0.405  0.00  0.00    +0.160 C 
ATOM     11  C   LIG    1        8.017   6.739  -0.721  0.00  0.00    +0.020 A 
ATOM     12  N   LIG    1        8.763   7.539  -0.015  0.00  0.00    -0.360 NA
ATOM     13  O   LIG    1        8.848   8.633  -0.524  0.00  0.00    +0.100 OA
ATOM     14  C   LIG    1        8.152   8.700  -1.667  0.00  0.00    -0.010 A 
ATOM     15  C   LIG    1        8.027   9.893  -2.579  0.00  0.00    +0.190 C 
ATOM     16  C   LIG    1        7.582   7.484  -1.841  0.00  0.00    -0.210 A 
ENDBRANCH   9  16
ENDBRANCH   1   9
BRANCH   6  17
ATOM     17  C   LIG    1        1.240   5.893  -0.089  0.00  0.00    +0.340 C 
BRANCH  17  18
ATOM     18  N   LIG    1       -0.013   5.143   0.029  0.00  0.00    -0.590 N 
ATOM     19  C   LIG    1       -1.285   5.858   0.156  0.00  0.00    +0.310 C 
BRANCH  18  20
ATOM     20  C   LIG    1        0.006   3.753   0.022  0.00  0.00    +0.360 A 
ATOM     21  C   LIG    1       -1.190   3.039   0.030  0.00  0.00    +0.170 A 
ATOM     22  N   LIG    1       -1.168   1.720   0.017  0.00  0.00    -0.400 NA
ATOM     23  C   LIG    1       -0.013   1.076   0.008  0.00  0.00    +0.150 A 
ATOM     24  C   LIG    1        1.176   1.781   0.000  0.00  0.00    +0.270 A 
ATOM     25  N   LIG    1        1.163   3.103   0.007  0.00  0.00    -0.500 NA
ENDBRANCH  18  20
ENDBRANCH  17  18
ENDBRANCH   6  17
TORSDOF 5
