REMARK  Name = ZINCrH000004jMMm.0
REMARK                            x       y       z     vdW  Elec       q    Type
REMARK                         _______ _______ _______ _____ _____    ______ ____
ROOT
ATOM      1  C   LIG    1       -1.337  -0.601   1.796  0.00  0.00    +0.480 C 
ATOM      2  N   LIG    1       -0.854  -1.859   1.844  0.00  0.00    -0.550 N 
ATOM      3  C   LIG    1       -1.056  -2.695   0.742  0.00  0.00    +0.160 A 
ATOM      4  C   LIG    1       -2.036  -2.338  -0.178  0.00  0.00    -0.030 A 
ATOM      5  C   LIG    1       -2.270  -3.120  -1.291  0.00  0.00    +0.050 A 
ATOM      6  C   LIG    1       -1.526  -4.266  -1.504  0.00  0.00    +0.000 A 
ATOM      7  C   LIG    1       -0.549  -4.631  -0.598  0.00  0.00    +0.070 A 
ATOM      8  C   LIG    1       -0.308  -3.850   0.526  0.00  0.00    -0.120 A 
ATOM      9  S   LIG    1        0.944  -4.354   1.662  0.00  0.00    -0.100 S 
ATOM     10  C   LIG    1        1.224  -2.846   2.637  0.00  0.00    +0.110 C 
ATOM     11  C   LIG    1       -0.148  -2.291   3.046  0.00  0.00    +0.280 C 
ATOM     12  O   LIG    1       -1.341   0.085   2.796  0.00  0.00    -0.460 OA
ENDROOT
BRANCH  11  13
ATOM     13  C   LIG    1        0.034  -1.118   3.975  0.00  0.00    -0.040 A 
ATOM     14  C   LIG    1        0.905  -0.099   3.639  0.00  0.00    +0.010 A 
ATOM     15  C   LIG    1        1.068   0.979   4.489  0.00  0.00    +0.000 A 
ATOM     16  C   LIG    1        0.368   1.033   5.680  0.00  0.00    +0.000 A 
ATOM     17  C   LIG    1       -0.499   0.011   6.018  0.00  0.00    +0.010 A 
ATOM     18  C   LIG    1       -0.666  -1.065   5.166  0.00  0.00    +0.000 A 
ENDBRANCH  11  13
BRANCH   1  19
ATOM     19  C   LIG    1       -1.871  -0.048   0.500  0.00  0.00    +0.340 C 
BRANCH  19  20
ATOM     20  N   LIG    1       -1.625   1.396   0.447  0.00  0.00    -0.610 N 
ATOM     21  C   LIG    1       -2.627   2.329   0.968  0.00  0.00    +0.280 C 
BRANCH  20  25
ATOM     22  C   LIG    1        1.910   4.448  -1.126  0.00  0.00    +0.360 C 
ATOM     23  N   LIG    1        1.148   3.237  -0.811  0.00  0.00    -0.370 N 
ATOM     24  C   LIG    1       -0.078   3.192  -0.225  0.00  0.00    +0.150 A 
ATOM     25  C   LIG    1       -0.428   1.886  -0.109  0.00  0.00    +0.060 A 
ATOM     26  C   LIG    1        0.610   1.113  -0.647  0.00  0.00    +0.180 A 
ATOM     27  N   LIG    1        1.551   1.920  -1.066  0.00  0.00    -0.270 NA
ENDBRANCH  20  25
ENDBRANCH  19  20
ENDBRANCH   1  19
TORSDOF 4
