REMARK  Name = ZINCkj000005fY87.0
REMARK                            x       y       z     vdW  Elec       q    Type
REMARK                         _______ _______ _______ _____ _____    ______ ____
ROOT
ATOM      1  N   LIG    1        2.468  -2.768  -0.138  0.00  0.00    -0.610 N 
ATOM      2  C   LIG    1        1.280  -2.142  -0.019  0.00  0.00    +0.570 C 
ATOM      3  O   LIG    1        0.259  -2.792   0.084  0.00  0.00    -0.510 OA
ENDROOT
BRANCH   2   4
ATOM      4  C   LIG    1        1.220  -0.658  -0.015  0.00  0.00    -0.010 A 
ATOM      5  C   LIG    1        1.377   0.055  -1.189  0.00  0.00    -0.060 A 
ATOM      6  C   LIG    1        1.313   1.462  -1.148  0.00  0.00    +0.520 A 
ATOM      7  N   LIG    1        1.103   2.094   0.022  0.00  0.00    -0.600 N 
ATOM      8  H   LIG    1        1.061   3.063   0.040  0.00  0.00    +0.420 HD
ATOM      9  C   LIG    1        0.949   1.398   1.177  0.00  0.00    +0.340 A 
ATOM     10  O   LIG    1        1.454   2.109  -2.173  0.00  0.00    -0.540 OA
ATOM     11  C   LIG    1        1.002   0.047   1.188  0.00  0.00    -0.070 A 
ENDBRANCH   2   4
BRANCH   1  13
ATOM     12  C   LIG    1        4.288  -1.937   1.269  0.00  0.00    +0.030 C 
ATOM     13  C   LIG    1        3.709  -1.989  -0.146  0.00  0.00    +0.270 C 
ENDBRANCH   1  13
BRANCH   1  14
ATOM     14  C   LIG    1        2.518  -4.227  -0.258  0.00  0.00    +0.310 C 
BRANCH  14  15
ATOM     15  C   LIG    1        2.453  -4.619  -1.736  0.00  0.00    +0.010 C 
BRANCH  15  16
ATOM     16  C   LIG    1        2.506  -6.143  -1.861  0.00  0.00    +0.260 C 
BRANCH  16  17
ATOM     17  N   LIG    1        2.443  -6.520  -3.280  0.00  0.00    -0.390 N 
ATOM     18  C   LIG    1        2.591  -7.990  -3.426  0.00  0.00    +0.270 C 
ATOM     19  C   LIG    1        1.956  -8.274  -4.812  0.00  0.00    +0.070 C 
ATOM     20  C   LIG    1        0.764  -7.291  -4.855  0.00  0.00    +0.060 C 
ATOM     21  C   LIG    1        1.114  -6.189  -3.838  0.00  0.00    +0.250 C 
ATOM     22  H   LIG    1        3.167  -6.044  -3.799  0.00  0.00    +0.430 HD
ENDBRANCH  16  17
ENDBRANCH  15  16
ENDBRANCH  14  15
ENDBRANCH   1  14
TORSDOF 6
