REMARK  Name = ZINCrD0000075lP9.0
REMARK                            x       y       z     vdW  Elec       q    Type
REMARK                         _______ _______ _______ _____ _____    ______ ____
ROOT
ATOM      1  C   LIG    1        3.219   3.120  -1.630  0.00  0.00    +0.520 C 
ATOM      2  N   LIG    1        2.451   4.159  -2.015  0.00  0.00    -0.670 N 
ATOM      3  H   LIG    1        1.789   4.524  -1.408  0.00  0.00    +0.410 HD
ATOM      4  O   LIG    1        3.979   2.602  -2.420  0.00  0.00    -0.500 OA
ENDROOT
BRANCH   2   5
ATOM      5  C   LIG    1        2.610   4.711  -3.293  0.00  0.00    +0.130 A 
ATOM      6  C   LIG    1        1.505   5.228  -3.966  0.00  0.00    +0.020 A 
ATOM      7  C   LIG    1        1.647   5.775  -5.222  0.00  0.00    +0.040 A 
ATOM      8  C   LIG    1        2.897   5.811  -5.824  0.00  0.00    +0.040 A 
ATOM      9  N   LIG    1        3.364   6.276  -7.039  0.00  0.00    -0.590 N 
ATOM     10  H   LIG    1        2.836   6.695  -7.736  0.00  0.00    +0.420 HD
ATOM     11  C   LIG    1        4.703   6.038  -7.076  0.00  0.00    +0.290 A 
ATOM     12  N   LIG    1        5.085   5.462  -5.973  0.00  0.00    -0.470 NA
ATOM     13  C   LIG    1        4.017   5.291  -5.153  0.00  0.00    +0.070 A 
ATOM     14  C   LIG    1        3.862   4.745  -3.876  0.00  0.00    +0.080 A 
BRANCH  11  15
ATOM     15  C   LIG    1        5.611   6.390  -8.226  0.00  0.00    +0.250 C 
ATOM     16  C   LIG    1        6.826   7.207  -7.721  0.00  0.00    +0.050 C 
ATOM     17  C   LIG    1        7.870   6.898  -8.828  0.00  0.00    +0.020 C 
ATOM     18  C   LIG    1        7.524   5.442  -9.208  0.00  0.00    +0.200 C 
ATOM     19  O   LIG    1        6.173   5.199  -8.800  0.00  0.00    -0.370 OA
ENDBRANCH  11  15
ENDBRANCH   2   5
BRANCH   1  20
ATOM     20  C   LIG    1        3.133   2.603  -0.217  0.00  0.00    +0.250 C 
BRANCH  20  21
ATOM     21  C   LIG    1        3.942   3.490   0.693  0.00  0.00    -0.170 A 
ATOM     22  C   LIG    1        5.248   3.157   1.001  0.00  0.00    +0.100 A 
ATOM     23  C   LIG    1        5.991   3.970   1.835  0.00  0.00    +0.000 A 
ATOM     24  C   LIG    1        5.429   5.120   2.363  0.00  0.00    +0.140 A 
ATOM     25  C   LIG    1        4.122   5.455   2.055  0.00  0.00    -0.040 A 
ATOM     26  F   LIG    1        6.156   5.915   3.179  0.00  0.00    -0.130 F 
ATOM     27  C   LIG    1        3.378   4.640   1.220  0.00  0.00    +0.140 A 
ATOM     28  F   LIG    1        2.102   4.965   0.920  0.00  0.00    -0.130 F 
ENDBRANCH  20  21
BRANCH  20  29
ATOM     29  N   LIG    1        3.663   1.234  -0.164  0.00  0.00    -0.820 NA
ATOM     30  H   LIG    1        3.558   0.841   0.759  0.00  0.00    +0.360 HD
ATOM     31  H   LIG    1        4.627   1.207  -0.460  0.00  0.00    +0.360 HD
ENDBRANCH  20  29
ENDBRANCH   1  20
TORSDOF 5
