REMARK  Name = ZINCrD00000F5Lp9.0
REMARK                            x       y       z     vdW  Elec       q    Type
REMARK                         _______ _______ _______ _____ _____    ______ ____
ROOT
ATOM      1  N   LIG    1        1.156   7.802  -2.870  0.00  0.00    -0.690 N 
ATOM      2  H   LIG    1        1.552   7.364  -2.101  0.00  0.00    +0.410 HD
ATOM      3  C   LIG    1        0.281   7.135  -3.648  0.00  0.00    +0.700 C 
ATOM      4  N   LIG    1        0.037   5.829  -3.422  0.00  0.00    -0.740 N 
ATOM      5  H   LIG    1        0.492   5.369  -2.699  0.00  0.00    +0.400 HD
ATOM      6  O   LIG    1       -0.290   7.712  -4.554  0.00  0.00    -0.570 OA
ENDROOT
BRANCH   1  10
ATOM      7  C   LIG    1        2.158  11.745  -3.770  0.00  0.00    -0.110 A 
ATOM      8  C   LIG    1        1.877  10.839  -4.800  0.00  0.00    +0.070 A 
ATOM      9  C   LIG    1        1.547   9.538  -4.498  0.00  0.00    +0.010 A 
ATOM     10  C   LIG    1        1.492   9.122  -3.171  0.00  0.00    +0.190 A 
ATOM     11  C   LIG    1        1.765  10.020  -2.144  0.00  0.00    -0.020 A 
ATOM     12  C   LIG    1        2.101  11.322  -2.436  0.00  0.00    +0.070 A 
BRANCH   7  14
ATOM     13  C   LIG    1        2.782  14.008  -3.091  0.00  0.00    -0.080 C 
ATOM     14  C   LIG    1        2.511  13.136  -4.087  0.00  0.00    +0.160 C 
BRANCH  13  15
ATOM     15  C   LIG    1        3.122  15.350  -3.398  0.00  0.00    +0.500 C 
ATOM     16  O   LIG    1        3.170  15.716  -4.557  0.00  0.00    -0.520 OA
BRANCH  15  17
ATOM     17  O   LIG    1        3.392  16.221  -2.403  0.00  0.00    -0.350 OA
BRANCH  17  19
ATOM     18  C   LIG    1        3.999  18.392  -1.531  0.00  0.00    +0.070 C 
ATOM     19  C   LIG    1        3.728  17.557  -2.784  0.00  0.00    +0.200 C 
ENDBRANCH  17  19
ENDBRANCH  15  17
ENDBRANCH  13  15
ENDBRANCH   7  14
ENDBRANCH   1  10
BRANCH   4  20
ATOM     20  C   LIG    1       -0.914   5.104  -4.268  0.00  0.00    +0.340 C 
BRANCH  20  21
ATOM     21  C   LIG    1       -1.004   3.671  -3.808  0.00  0.00    -0.110 A 
ATOM     22  C   LIG    1       -0.156   2.721  -4.345  0.00  0.00    +0.050 A 
ATOM     23  C   LIG    1       -0.231   1.406  -3.924  0.00  0.00    +0.040 A 
ATOM     24  C   LIG    1       -1.163   1.037  -2.968  0.00  0.00    +0.040 A 
ATOM     25  O   LIG    1       -1.440  -0.170  -2.393  0.00  0.00    -0.310 OA
ATOM     26  C   LIG    1       -2.742  -0.021  -1.796  0.00  0.00    +0.440 C 
ATOM     27  O   LIG    1       -2.830   1.388  -1.513  0.00  0.00    -0.310 OA
ATOM     28  C   LIG    1       -2.018   1.995  -2.427  0.00  0.00    +0.030 A 
ATOM     29  C   LIG    1       -1.934   3.311  -2.851  0.00  0.00    +0.060 A 
ENDBRANCH  20  21
ENDBRANCH   4  20
TORSDOF 7
