REMARK  Name = ZINCrD0000075lP9.1
REMARK                            x       y       z     vdW  Elec       q    Type
REMARK                         _______ _______ _______ _____ _____    ______ ____
ROOT
ATOM      1  C   LIG    1       -3.556   1.581  -0.465  0.00  0.00    +0.530 C 
ATOM      2  N   LIG    1       -2.429   1.024   0.020  0.00  0.00    -0.670 N 
ATOM      3  H   LIG    1       -2.447   0.118   0.367  0.00  0.00    +0.410 HD
ATOM      4  O   LIG    1       -3.516   2.676  -0.986  0.00  0.00    -0.500 OA
ENDROOT
BRANCH   2   5
ATOM      5  C   LIG    1       -1.233   1.752   0.022  0.00  0.00    +0.160 A 
ATOM      6  C   LIG    1       -0.020   1.092  -0.163  0.00  0.00    -0.010 A 
ATOM      7  C   LIG    1        1.155   1.788  -0.168  0.00  0.00    +0.100 A 
ATOM      8  C   LIG    1        1.148   3.173   0.019  0.00  0.00    +0.030 A 
ATOM      9  N   LIG    1        2.125   4.115   0.063  0.00  0.00    -0.460 NA
ATOM     10  C   LIG    1        1.595   5.286   0.265  0.00  0.00    +0.280 A 
ATOM     11  N   LIG    1        0.242   5.176   0.364  0.00  0.00    -0.590 N 
ATOM     12  H   LIG    1       -0.385   5.901   0.514  0.00  0.00    +0.420 HD
ATOM     13  C   LIG    1       -0.074   3.840   0.211  0.00  0.00    +0.070 A 
ATOM     14  C   LIG    1       -1.261   3.123   0.215  0.00  0.00    +0.030 A 
BRANCH  10  15
ATOM     15  C   LIG    1        2.366   6.576   0.373  0.00  0.00    +0.250 C 
ATOM     16  C   LIG    1        3.499   6.439   1.421  0.00  0.00    +0.050 C 
ATOM     17  C   LIG    1        4.493   7.524   0.925  0.00  0.00    +0.010 C 
ATOM     18  C   LIG    1        4.311   7.459  -0.607  0.00  0.00    +0.200 C 
ATOM     19  O   LIG    1        3.035   6.863  -0.866  0.00  0.00    -0.370 OA
ENDBRANCH  10  15
ENDBRANCH   2   5
BRANCH   1  20
ATOM     20  C   LIG    1       -4.867   0.845  -0.360  0.00  0.00    +0.240 C 
BRANCH  20  21
ATOM     21  C   LIG    1       -4.952  -0.188  -1.455  0.00  0.00    -0.170 A 
ATOM     22  C   LIG    1       -5.599   0.112  -2.639  0.00  0.00    +0.100 A 
ATOM     23  C   LIG    1       -5.673  -0.832  -3.645  0.00  0.00    +0.000 A 
ATOM     24  C   LIG    1       -5.109  -2.083  -3.465  0.00  0.00    +0.140 A 
ATOM     25  C   LIG    1       -4.465  -2.386  -2.277  0.00  0.00    -0.030 A 
ATOM     26  F   LIG    1       -5.186  -3.008  -4.447  0.00  0.00    -0.130 F 
ATOM     27  C   LIG    1       -4.386  -1.438  -1.272  0.00  0.00    +0.140 A 
ATOM     28  F   LIG    1       -3.758  -1.733  -0.113  0.00  0.00    -0.130 F 
ENDBRANCH  20  21
BRANCH  20  29
ATOM     29  N   LIG    1       -5.977   1.798  -0.499  0.00  0.00    -0.820 NA
ATOM     30  H   LIG    1       -6.866   1.339  -0.368  0.00  0.00    +0.360 HD
ATOM     31  H   LIG    1       -5.940   2.268  -1.391  0.00  0.00    +0.360 HD
ENDBRANCH  20  29
ENDBRANCH   1  20
TORSDOF 5
