REMARK  Name = ZINCb80000002tFY.0
REMARK                            x       y       z     vdW  Elec       q    Type
REMARK                         _______ _______ _______ _____ _____    ______ ____
ROOT
ATOM      1  C   LIG    1       -1.248  -2.104   0.003  0.00  0.00    +0.280 A 
ATOM      2  N   LIG    1       -0.156  -2.802  -0.011  0.00  0.00    -0.370 NA
ATOM      3  S   LIG    1       -0.628  -4.435  -0.015  0.00  0.00    +0.170 S 
ATOM      4  C   LIG    1       -2.365  -4.075   0.002  0.00  0.00    +0.440 A 
ATOM      5  O   LIG    1       -3.292  -4.862   0.007  0.00  0.00    -0.360 OA
ATOM      6  O   LIG    1       -2.421  -2.732   0.015  0.00  0.00    -0.260 OA
ENDROOT
BRANCH   1   7
ATOM      7  C   LIG    1       -1.191  -0.632   0.010  0.00  0.00    +0.560 C 
ATOM      8  O   LIG    1       -2.219   0.016   0.023  0.00  0.00    -0.450 OA
BRANCH   7   9
ATOM      9  O   LIG    1        0.002  -0.004   0.002  0.00  0.00    -0.320 OA
BRANCH   9  11
ATOM     10  C   LIG    1        1.418   1.977  -0.001  0.00  0.00    +0.080 C 
ATOM     11  C   LIG    1       -0.018   1.448   0.010  0.00  0.00    +0.220 C 
ENDBRANCH   9  11
ENDBRANCH   7   9
ENDBRANCH   1   7
TORSDOF 3
