REMARK  Name = ZINCrH000004n8JO.0
REMARK                            x       y       z     vdW  Elec       q    Type
REMARK                         _______ _______ _______ _____ _____    ______ ____
ROOT
ATOM      1  C   LIG    1       -2.618  12.932  -5.082  0.00  0.00    +0.110 A 
ATOM      2  C   LIG    1       -2.274  11.591  -5.000  0.00  0.00    -0.060 A 
ATOM      3  C   LIG    1       -1.716  11.095  -3.839  0.00  0.00    +0.060 A 
ATOM      4  C   LIG    1       -1.500  11.936  -2.754  0.00  0.00    +0.120 A 
ATOM      5  C   LIG    1       -1.841  13.277  -2.835  0.00  0.00    -0.080 A 
ATOM      6  C   LIG    1       -1.615  14.217  -1.681  0.00  0.00    +0.080 C 
ATOM      7  C   LIG    1       -1.486  13.438  -0.372  0.00  0.00    +0.020 C 
ATOM      8  C   LIG    1       -0.444  12.332  -0.552  0.00  0.00    +0.270 C 
ATOM      9  N   LIG    1       -0.936  11.408  -1.583  0.00  0.00    -0.550 N 
ATOM     10  C   LIG    1       -0.852  10.075  -1.403  0.00  0.00    +0.520 C 
ATOM     11  O   LIG    1       -1.206   9.320  -2.284  0.00  0.00    -0.500 OA
ATOM     12  C   LIG    1       -2.401  13.771  -4.001  0.00  0.00    +0.000 A 
ENDROOT
BRANCH   1  14
ATOM     13  C   LIG    1       -3.363  12.503  -7.300  0.00  0.00    +0.250 C 
ATOM     14  O   LIG    1       -3.168  13.424  -6.225  0.00  0.00    -0.320 OA
ENDBRANCH   1  14
BRANCH  10  15
ATOM     15  C   LIG    1       -0.318   9.521  -0.107  0.00  0.00    +0.220 C 
BRANCH  15  16
ATOM     16  N   LIG    1       -0.195   8.061  -0.212  0.00  0.00    -0.520 NA
ATOM     17  C   LIG    1        0.828   7.689  -1.198  0.00  0.00    +0.220 C 
ATOM     18  C   LIG    1        1.033   6.202  -1.198  0.00  0.00    -0.030 C 
ATOM     19  C   LIG    1        0.633   5.422  -0.218  0.00  0.00    -0.080 C 
ATOM     20  C   LIG    1       -0.085   5.947   0.994  0.00  0.00    +0.090 C 
ATOM     21  C   LIG    1        0.117   7.462   1.096  0.00  0.00    +0.170 C 
BRANCH  19  22
ATOM     22  C   LIG    1        0.893   3.970  -0.315  0.00  0.00    -0.050 A 
ATOM     23  C   LIG    1        2.204   3.492  -0.310  0.00  0.00    +0.010 A 
ATOM     24  C   LIG    1        2.440   2.135  -0.400  0.00  0.00    +0.000 A 
ATOM     25  C   LIG    1        1.381   1.250  -0.496  0.00  0.00    +0.000 A 
ATOM     26  C   LIG    1        0.079   1.719  -0.507  0.00  0.00    +0.000 A 
ATOM     27  C   LIG    1       -0.171   3.073  -0.412  0.00  0.00    +0.010 A 
ENDBRANCH  19  22
ENDBRANCH  15  16
ENDBRANCH  10  15
TORSDOF 4
