REMARK  Name = ZINCrD0000075aHA.0
REMARK                            x       y       z     vdW  Elec       q    Type
REMARK                         _______ _______ _______ _____ _____    ______ ____
ROOT
ATOM      1  C   LIG    1       -3.069   1.448   0.312  0.00  0.00    +0.570 C 
ATOM      2  N   LIG    1       -2.702   0.845  -0.836  0.00  0.00    -0.590 N 
ATOM      3  C   LIG    1       -1.311   0.370  -0.972  0.00  0.00    +0.250 C 
ATOM      4  C   LIG    1       -1.233  -1.017  -1.634  0.00  0.00    +0.020 C 
ATOM      5  C   LIG    1       -2.334  -1.904  -1.109  0.00  0.00    +0.020 C 
ATOM      6  C   LIG    1       -3.557  -1.783  -2.014  0.00  0.00    +0.010 C 
ATOM      7  C   LIG    1       -4.439  -0.651  -1.692  0.00  0.00    +0.030 C 
ATOM      8  C   LIG    1       -3.688   0.683  -1.880  0.00  0.00    +0.280 C 
ATOM      9  O   LIG    1       -4.234   1.743   0.499  0.00  0.00    -0.530 OA
ENDROOT
BRANCH   1  12
ATOM     10  C   LIG    1       -3.659   2.100   3.271  0.00  0.00    +0.330 C 
ATOM     11  N   LIG    1       -2.327   2.042   2.663  0.00  0.00    -0.450 N 
ATOM     12  C   LIG    1       -2.060   1.750   1.339  0.00  0.00    +0.030 A 
ATOM     13  C   LIG    1       -0.717   1.790   1.136  0.00  0.00    +0.020 A 
ATOM     14  C   LIG    1       -0.104   2.109   2.372  0.00  0.00    -0.120 A 
ATOM     15  C   LIG    1        1.228   2.280   2.769  0.00  0.00    +0.140 A 
ATOM     16  C   LIG    1        1.515   2.593   4.066  0.00  0.00    -0.210 A 
ATOM     17  C   LIG    1        0.498   2.745   4.999  0.00  0.00    +0.090 A 
ATOM     18  C   LIG    1       -0.820   2.582   4.633  0.00  0.00    +0.010 A 
ATOM     19  C   LIG    1       -1.138   2.263   3.316  0.00  0.00    +0.130 A 
BRANCH  16  20
ATOM     20  C   LIG    1        2.950   2.776   4.490  0.00  0.00    +0.510 C 
ATOM     21  F   LIG    1        3.776   1.968   3.701  0.00  0.00    -0.180 F 
ATOM     22  F   LIG    1        3.089   2.413   5.834  0.00  0.00    -0.180 F 
ATOM     23  F   LIG    1        3.317   4.116   4.328  0.00  0.00    -0.180 F 
ENDBRANCH  16  20
ENDBRANCH   1  12
BRANCH   6  24
ATOM     24  C   LIG    1       -4.368  -3.076  -1.911  0.00  0.00    +0.050 C 
BRANCH  24  25
ATOM     25  C   LIG    1       -5.514  -3.030  -2.889  0.00  0.00    +0.510 C 
ATOM     26  O   LIG    1       -5.667  -2.058  -3.598  0.00  0.00    -0.540 OA
ATOM     27  N   LIG    1       -6.369  -4.068  -2.975  0.00  0.00    -0.860 N 
ATOM     28  H   LIG    1       -7.106  -4.038  -3.604  0.00  0.00    +0.400 HD
ATOM     29  H   LIG    1       -6.246  -4.845  -2.408  0.00  0.00    +0.400 HD
ENDBRANCH  24  25
ENDBRANCH   6  24
TORSDOF 4
