REMARK  Name = ZINCwl0000000fUC.0
REMARK                            x       y       z     vdW  Elec       q    Type
REMARK                         _______ _______ _______ _____ _____    ______ ____
ROOT
ATOM      1  C   LIG    1       -4.804   2.438   0.062  0.00  0.00    +0.240 C 
ATOM      2  C   LIG    1       -3.297   2.447   0.047  0.00  0.00    +0.400 C 
ATOM      3  N   LIG    1       -2.536   1.366   0.034  0.00  0.00    -0.400 N 
ATOM      4  C   LIG    1       -1.227   1.758   0.017  0.00  0.00    +0.070 A 
ATOM      5  C   LIG    1       -0.013   1.076   0.008  0.00  0.00    +0.070 A 
ATOM      6  C   LIG    1        1.169   1.783   0.001  0.00  0.00    +0.090 A 
ATOM      7  C   LIG    1        1.160   3.171   0.008  0.00  0.00    +0.090 A 
ATOM      8  C   LIG    1       -0.031   3.862   0.023  0.00  0.00    +0.070 A 
ATOM      9  C   LIG    1       -1.236   3.164   0.030  0.00  0.00    +0.070 A 
ATOM     10  N   LIG    1       -2.550   3.539   0.045  0.00  0.00    -0.400 N 
ENDROOT
BRANCH   3  11
ATOM     11  C   LIG    1       -3.015  -0.018   0.032  0.00  0.00    +0.370 C 
BRANCH  11  12
ATOM     12  C   LIG    1       -3.193  -0.486  -1.389  0.00  0.00    +0.500 C 
ATOM     13  N   LIG    1       -3.629  -1.737  -1.638  0.00  0.00    -0.600 N 
ATOM     14  C   LIG    1       -3.811  -2.216  -3.017  0.00  0.00    +0.280 C 
ATOM     15  C   LIG    1       -3.088  -3.560  -3.161  0.00  0.00    +0.150 C 
ATOM     16  O   LIG    1       -3.521  -4.441  -2.121  0.00  0.00    -0.370 OA
ATOM     17  C   LIG    1       -3.208  -3.987  -0.802  0.00  0.00    +0.150 C 
ATOM     18  C   LIG    1       -3.660  -5.033   0.219  0.00  0.00    +0.080 C 
ATOM     19  C   LIG    1       -3.420  -4.175  -4.522  0.00  0.00    +0.070 C 
ATOM     20  C   LIG    1       -3.931  -2.666  -0.537  0.00  0.00    +0.250 C 
ATOM     21  O   LIG    1       -2.945   0.264  -2.310  0.00  0.00    -0.510 OA
ENDBRANCH  11  12
ENDBRANCH   3  11
BRANCH  10  22
ATOM     22  C   LIG    1       -3.047   4.917   0.057  0.00  0.00    +0.370 C 
BRANCH  22  23
ATOM     23  C   LIG    1       -3.231   5.396  -1.360  0.00  0.00    +0.500 C 
ATOM     24  N   LIG    1       -3.683   6.643  -1.596  0.00  0.00    -0.600 N 
ATOM     25  C   LIG    1       -3.871   7.133  -2.971  0.00  0.00    +0.280 C 
ATOM     26  C   LIG    1       -5.280   7.726  -3.085  0.00  0.00    +0.150 C 
ATOM     27  O   LIG    1       -5.475   8.681  -2.038  0.00  0.00    -0.370 OA
ATOM     28  C   LIG    1       -5.406   8.128  -0.722  0.00  0.00    +0.140 C 
ATOM     29  C   LIG    1       -5.690   9.223   0.308  0.00  0.00    +0.080 C 
ATOM     30  C   LIG    1       -5.436   8.416  -4.441  0.00  0.00    +0.070 C 
ATOM     31  C   LIG    1       -4.009   7.554  -0.487  0.00  0.00    +0.250 C 
ATOM     32  O   LIG    1       -2.973   4.659  -2.288  0.00  0.00    -0.510 OA
ENDBRANCH  22  23
ENDBRANCH  10  22
TORSDOF 4
