REMARK  Name = ZINCrH000004s48y.0
REMARK                            x       y       z     vdW  Elec       q    Type
REMARK                         _______ _______ _______ _____ _____    ______ ____
ROOT
ATOM      1  C   LIG    1        0.133  -2.671  -2.471  0.00  0.00    -0.660 A 
ATOM      2  C   LIG    1       -0.530  -1.612  -3.066  0.00  0.00    +0.130 A 
ATOM      3  C   LIG    1       -0.428  -1.407  -4.427  0.00  0.00    +0.030 A 
ATOM      4  C   LIG    1        0.336  -2.279  -5.205  0.00  0.00    -0.070 A 
ATOM      5  C   LIG    1        0.997  -3.348  -4.599  0.00  0.00    +0.070 A 
ATOM      6  C   LIG    1        0.892  -3.538  -3.237  0.00  0.00    +0.130 A 
ENDROOT
BRANCH   4   7
ATOM      7  C   LIG    1        0.444  -2.070  -6.664  0.00  0.00    +0.550 C 
ATOM      8  N   LIG    1       -0.196  -1.036  -7.246  0.00  0.00    -0.720 N 
ATOM      9  H   LIG    1       -0.727  -0.429  -6.707  0.00  0.00    +0.400 HD
ATOM     10  O   LIG    1        1.110  -2.830  -7.340  0.00  0.00    -0.520 OA
BRANCH   8  11
ATOM     11  C   LIG    1       -0.089  -0.829  -8.693  0.00  0.00    +0.320 C 
BRANCH  11  12
ATOM     12  C   LIG    1       -0.891   0.385  -9.087  0.00  0.00    -0.120 A 
ATOM     13  C   LIG    1       -2.219   0.249  -9.444  0.00  0.00    +0.020 A 
ATOM     14  C   LIG    1       -2.956   1.363  -9.801  0.00  0.00    +0.010 A 
ATOM     15  C   LIG    1       -2.362   2.611  -9.812  0.00  0.00    +0.020 A 
ATOM     16  C   LIG    1       -1.032   2.745  -9.460  0.00  0.00    +0.010 A 
ATOM     17  C   LIG    1       -0.296   1.632  -9.098  0.00  0.00    +0.020 A 
ENDBRANCH  11  12
ENDBRANCH   8  11
ENDBRANCH   4   7
BRANCH   1  18
ATOM     18  S   LIG    1        0.003  -2.921  -0.732  0.00  0.00    +2.690 S 
ATOM     19  O   LIG    1       -1.202  -2.288  -0.324  0.00  0.00    -0.940 OA
ATOM     20  O   LIG    1        0.273  -4.297  -0.503  0.00  0.00    -0.940 OA
BRANCH  18  21
ATOM     21  N   LIG    1        1.238  -2.077  -0.021  0.00  0.00    -1.050 N 
ATOM     22  H   LIG    1        1.903  -2.544   0.508  0.00  0.00    +0.430 HD
BRANCH  21  29
ATOM     23  C   LIG    1        3.822  -0.904  -0.224  0.00  0.00    +0.080 C 
ATOM     24  C   LIG    1        2.563  -0.078  -0.288  0.00  0.00    -0.100 A 
ATOM     25  C   LIG    1        2.643   1.291  -0.450  0.00  0.00    +0.030 A 
ATOM     26  C   LIG    1        1.489   2.050  -0.509  0.00  0.00    +0.000 A 
ATOM     27  C   LIG    1        0.251   1.442  -0.407  0.00  0.00    +0.030 A 
ATOM     28  C   LIG    1        0.164   0.073  -0.245  0.00  0.00    -0.010 A 
ATOM     29  C   LIG    1        1.322  -0.692  -0.185  0.00  0.00    +0.150 A 
ENDBRANCH  21  29
ENDBRANCH  18  21
ENDBRANCH   1  18
TORSDOF 6
