REMARK  Name = ZINCah0000001Cgm.0
REMARK                            x       y       z     vdW  Elec       q    Type
REMARK                         _______ _______ _______ _____ _____    ______ ____
ROOT
ATOM      1  C   LIG    1       -1.194   3.481   0.031  0.00  0.00    +0.570 A 
ATOM      2  N   LIG    1       -1.168   2.157   0.019  0.00  0.00    -0.570 NA
ATOM      3  C   LIG    1       -0.018   1.503   0.010  0.00  0.00    +0.220 A 
ATOM      4  C   LIG    1        1.167   2.220   0.003  0.00  0.00    -0.150 A 
ATOM      5  C   LIG    1        1.104   3.605   0.010  0.00  0.00    +0.220 A 
ATOM      6  C   LIG    1        2.368   4.426   0.002  0.00  0.00    +0.140 C 
ATOM      7  C   LIG    1        0.002  -0.004   0.002  0.00  0.00    +0.140 C 
ATOM      8  N   LIG    1       -0.079   4.197   0.024  0.00  0.00    -0.580 NA
ENDROOT
BRANCH   1  10
ATOM      9  C   LIG    1       -3.659   3.359   0.054  0.00  0.00    +0.310 C 
ATOM     10  N   LIG    1       -2.415   4.133   0.046  0.00  0.00    -0.700 N 
ATOM     11  H   LIG    1       -2.447   5.103   0.052  0.00  0.00    +0.420 HD
ENDBRANCH   1  10
TORSDOF 1
