REMARK  Name = ZINCtV00000L6jpJ.0
REMARK                            x       y       z     vdW  Elec       q    Type
REMARK                         _______ _______ _______ _____ _____    ______ ____
ROOT
ATOM      1  C   LIG    1       -1.303   2.118  -0.014  0.00  0.00    +0.510 C 
ATOM      2  O   LIG    1       -2.348   1.498  -0.017  0.00  0.00    -0.500 OA
ENDROOT
BRANCH   1   5
ATOM      3  C   LIG    1        1.210  -0.672  -0.069  0.00  0.00    -0.080 A 
ATOM      4  C   LIG    1        0.004  -0.002  -0.049  0.00  0.00    +0.080 A 
ATOM      5  C   LIG    1       -0.015   1.394  -0.030  0.00  0.00    -0.120 A 
ATOM      6  C   LIG    1        1.188   2.103  -0.032  0.00  0.00    +0.070 A 
ATOM      7  C   LIG    1        2.387   1.420  -0.052  0.00  0.00    -0.080 A 
ATOM      8  C   LIG    1        2.399   0.037  -0.071  0.00  0.00    +0.060 A 
BRANCH   3  10
ATOM      9  C   LIG    1       -0.201  -2.711  -0.082  0.00  0.00    +0.030 C 
ATOM     10  C   LIG    1        1.233  -2.179  -0.089  0.00  0.00    -0.030 C 
ATOM     11  C   LIG    1        1.974  -2.693   1.147  0.00  0.00    +0.040 C 
ATOM     12  C   LIG    1        1.950  -2.661  -1.351  0.00  0.00    +0.040 C 
ENDBRANCH   3  10
BRANCH   7  13
ATOM     13  C   LIG    1        3.686   2.183  -0.055  0.00  0.00    -0.030 C 
ATOM     14  C   LIG    1        4.503   1.803   1.181  0.00  0.00    +0.040 C 
ATOM     15  C   LIG    1        3.396   3.685  -0.033  0.00  0.00    +0.030 C 
ATOM     16  C   LIG    1        4.479   1.836  -1.317  0.00  0.00    +0.040 C 
ENDBRANCH   7  13
ENDBRANCH   1   5
BRANCH   1  17
ATOM     17  O   LIG    1       -1.318   3.465   0.004  0.00  0.00    -0.330 OA
BRANCH  17  18
ATOM     18  C   LIG    1       -2.619   4.109   0.019  0.00  0.00    +0.270 C 
BRANCH  18  19
ATOM     19  C   LIG    1       -2.438   5.605   0.038  0.00  0.00    +0.520 C 
ATOM     20  N   LIG    1       -3.517   6.414   0.054  0.00  0.00    -0.670 N 
ATOM     21  H   LIG    1       -4.407   6.036  -0.013  0.00  0.00    +0.420 HD
ATOM     22  O   LIG    1       -1.323   6.081   0.039  0.00  0.00    -0.490 OA
BRANCH  20  23
ATOM     23  C   LIG    1       -3.351   7.800   0.166  0.00  0.00    +0.160 A 
ATOM     24  C   LIG    1       -2.259   8.420  -0.427  0.00  0.00    +0.060 A 
ATOM     25  C   LIG    1       -2.101   9.788  -0.320  0.00  0.00    +0.070 A 
ATOM     26  C   LIG    1       -3.023  10.539   0.388  0.00  0.00    -0.040 A 
ATOM     27  C   LIG    1       -4.109   9.924   0.985  0.00  0.00    +0.070 A 
ATOM     28 CL   LIG    1       -2.817  12.258   0.526  0.00  0.00    -0.050 Cl
ATOM     29  C   LIG    1       -4.275   8.556   0.876  0.00  0.00    -0.050 A 
ATOM     30 CL   LIG    1       -5.637   7.784   1.626  0.00  0.00    -0.050 Cl
ENDBRANCH  20  23
ENDBRANCH  18  19
ENDBRANCH  17  18
ENDBRANCH   1  17
TORSDOF 7
