REMARK  Name = ZINCkj00000xOHBu.0
REMARK                            x       y       z     vdW  Elec       q    Type
REMARK                         _______ _______ _______ _____ _____    ______ ____
ROOT
ATOM      1  N   LIG    1       -3.056  -0.212  -1.326  0.00  0.00    -0.380 N 
ATOM      2  C   LIG    1       -2.979  -1.276  -2.334  0.00  0.00    +0.250 C 
ATOM      3  C   LIG    1       -3.233  -0.687  -3.724  0.00  0.00    +0.060 C 
ATOM      4  C   LIG    1       -4.625  -0.051  -3.756  0.00  0.00    +0.030 C 
ATOM      5  C   LIG    1       -4.719   1.006  -2.652  0.00  0.00    +0.140 C 
ATOM      6  C   LIG    1       -4.410   0.355  -1.302  0.00  0.00    +0.280 C 
ATOM      7  H   LIG    1       -2.394   0.515  -1.554  0.00  0.00    +0.430 HD
ENDROOT
BRANCH   5   8
ATOM      8  O   LIG    1       -3.774   2.048  -2.907  0.00  0.00    -0.540 OA
ATOM      9  H   LIG    1       -3.909   2.503  -3.749  0.00  0.00    +0.400 HD
ENDBRANCH   5   8
BRANCH   1  10
ATOM     10  C   LIG    1       -2.735  -0.767  -0.005  0.00  0.00    +0.350 C 
BRANCH  10  13
ATOM     11  C   LIG    1       -0.212   1.037   0.370  0.00  0.00    +0.190 C 
ATOM     12  C   LIG    1       -0.212  -0.457   0.172  0.00  0.00    +0.050 A 
ATOM     13  C   LIG    1       -1.301  -1.229   0.011  0.00  0.00    -0.260 A 
ATOM     14  C   LIG    1       -0.842  -2.558  -0.143  0.00  0.00    -0.040 A 
ATOM     15  C   LIG    1        0.500  -2.519  -0.059  0.00  0.00    +0.200 A 
ATOM     16  O   LIG    1        0.876  -1.244   0.132  0.00  0.00    -0.160 OA
ENDBRANCH  10  13
ENDBRANCH   1  10
BRANCH   5  17
ATOM     17  C   LIG    1       -6.131   1.593  -2.624  0.00  0.00    +0.060 C 
BRANCH  17  18
ATOM     18  C   LIG    1       -6.203   2.681  -1.583  0.00  0.00    +0.510 C 
ATOM     19  N   LIG    1       -7.386   3.258  -1.292  0.00  0.00    -0.620 N 
ATOM     20  C   LIG    1       -8.602   2.828  -1.988  0.00  0.00    +0.300 C 
ATOM     21  C   LIG    1       -7.456   4.315  -0.281  0.00  0.00    +0.300 C 
ATOM     22  O   LIG    1       -5.197   3.037  -1.008  0.00  0.00    -0.530 OA
ENDBRANCH  17  18
ENDBRANCH   5  17
TORSDOF 5
