REMARK  Name = ZINCkj00000xOHBu.1
REMARK                            x       y       z     vdW  Elec       q    Type
REMARK                         _______ _______ _______ _____ _____    ______ ____
ROOT
ATOM      1  N   LIG    1        1.575   3.639   1.641  0.00  0.00    -0.380 N 
ATOM      2  C   LIG    1        0.265   3.714   2.301  0.00  0.00    +0.250 C 
ATOM      3  C   LIG    1        0.431   4.294   3.708  0.00  0.00    +0.070 C 
ATOM      4  C   LIG    1        1.035   5.698   3.607  0.00  0.00    +0.030 C 
ATOM      5  C   LIG    1        2.365   5.618   2.852  0.00  0.00    +0.150 C 
ATOM      6  C   LIG    1        2.127   4.989   1.477  0.00  0.00    +0.280 C 
ATOM      7  H   LIG    1        2.202   3.086   2.206  0.00  0.00    +0.410 HD
ENDROOT
BRANCH   5   8
ATOM      8  O   LIG    1        2.900   6.933   2.689  0.00  0.00    -0.520 OA
ATOM      9  H   LIG    1        3.076   7.392   3.522  0.00  0.00    +0.400 HD
ENDBRANCH   5   8
BRANCH   1  10
ATOM     10  C   LIG    1        1.421   3.011   0.323  0.00  0.00    +0.360 C 
BRANCH  10  13
ATOM     11  C   LIG    1        3.224   0.634   1.253  0.00  0.00    +0.170 C 
ATOM     12  C   LIG    1        1.763   0.551   0.894  0.00  0.00    +0.040 A 
ATOM     13  C   LIG    1        0.990   1.577   0.496  0.00  0.00    -0.250 A 
ATOM     14  C   LIG    1       -0.304   1.054   0.272  0.00  0.00    -0.040 A 
ATOM     15  C   LIG    1       -0.245  -0.262   0.546  0.00  0.00    +0.210 A 
ATOM     16  O   LIG    1        1.009  -0.561   0.923  0.00  0.00    -0.160 OA
ENDBRANCH  10  13
ENDBRANCH   1  10
BRANCH   5  17
ATOM     17  C   LIG    1        3.352   4.758   3.644  0.00  0.00    +0.030 C 
BRANCH  17  18
ATOM     18  C   LIG    1        4.681   4.737   2.934  0.00  0.00    +0.500 C 
ATOM     19  N   LIG    1        5.672   3.940   3.381  0.00  0.00    -0.620 N 
ATOM     20  C   LIG    1        5.456   3.095   4.558  0.00  0.00    +0.280 C 
ATOM     21  C   LIG    1        6.964   3.920   2.691  0.00  0.00    +0.300 C 
ATOM     22  O   LIG    1        4.859   5.437   1.959  0.00  0.00    -0.510 OA
ENDBRANCH  17  18
ENDBRANCH   5  17
TORSDOF 5
