REMARK  Name = ZINCrH000004sRrA.0
REMARK                            x       y       z     vdW  Elec       q    Type
REMARK                         _______ _______ _______ _____ _____    ______ ____
ROOT
ATOM      1  C   LIG    1        5.154  -1.817  -1.659  0.00  0.00    +0.590 C 
ATOM      2  N   LIG    1        4.019  -1.137  -1.402  0.00  0.00    -0.710 N 
ATOM      3  H   LIG    1        3.399  -0.940  -2.122  0.00  0.00    +0.400 HD
ATOM      4  O   LIG    1        5.932  -2.064  -0.757  0.00  0.00    -0.510 OA
ENDROOT
BRANCH   1   7
ATOM      5  C   LIG    1        4.328  -4.543  -2.937  0.00  0.00    +0.210 C 
ATOM      6  C   LIG    1        5.104  -3.439  -3.608  0.00  0.00    +0.070 A 
ATOM      7  C   LIG    1        5.454  -2.259  -3.031  0.00  0.00    -0.170 A 
ATOM      8  C   LIG    1        6.192  -1.507  -4.071  0.00  0.00    -0.110 A 
ATOM      9  C   LIG    1        6.213  -2.338  -5.174  0.00  0.00    +0.300 A 
ATOM     10  O   LIG    1        5.559  -3.467  -4.867  0.00  0.00    -0.160 OA
BRANCH   9  11
ATOM     11  N   LIG    1        6.805  -2.050  -6.396  0.00  0.00    -0.380 N 
ATOM     12  C   LIG    1        7.467  -0.895  -6.709  0.00  0.00    +0.160 A 
ATOM     13  C   LIG    1        7.901  -0.990  -7.982  0.00  0.00    -0.020 A 
ATOM     14  C   LIG    1        7.487  -2.244  -8.478  0.00  0.00    -0.020 A 
ATOM     15  C   LIG    1        6.820  -2.871  -7.489  0.00  0.00    +0.170 A 
ENDBRANCH   9  11
BRANCH   8  16
ATOM     16  C   LIG    1        6.764  -0.200  -3.957  0.00  0.00    +0.280 C 
ATOM     17  N   LIG    1        7.218   0.838  -3.867  0.00  0.00    -0.390 NA
ENDBRANCH   8  16
ENDBRANCH   1   7
BRANCH   2  18
ATOM     18  C   LIG    1        3.721  -0.698  -0.037  0.00  0.00    +0.340 C 
BRANCH  18  19
ATOM     19  C   LIG    1        2.403   0.034  -0.021  0.00  0.00    -0.130 A 
ATOM     20  C   LIG    1        2.379   1.415  -0.013  0.00  0.00    +0.070 A 
ATOM     21  C   LIG    1        1.170   2.086   0.002  0.00  0.00    -0.010 A 
ATOM     22  C   LIG    1       -0.017   1.377   0.010  0.00  0.00    +0.060 A 
ATOM     23  C   LIG    1        0.002  -0.004   0.002  0.00  0.00    -0.050 A 
ATOM     24  C   LIG    1        1.213  -0.680  -0.013  0.00  0.00    +0.120 A 
BRANCH  24  25
ATOM     25  O   LIG    1        1.234  -2.039  -0.020  0.00  0.00    -0.320 OA
BRANCH  25  26
ATOM     26  C   LIG    1       -0.029  -2.707  -0.011  0.00  0.00    +0.590 C 
ATOM     27  F   LIG    1       -0.760  -2.337  -1.145  0.00  0.00    -0.200 F 
ATOM     28  F   LIG    1       -0.738  -2.348   1.140  0.00  0.00    -0.200 F 
ENDBRANCH  25  26
ENDBRANCH  24  25
ENDBRANCH  18  19
ENDBRANCH   2  18
TORSDOF 7
