REMARK  Name = ZINCrD000000fO0c.0
REMARK                            x       y       z     vdW  Elec       q    Type
REMARK                         _______ _______ _______ _____ _____    ______ ____
ROOT
ATOM      1  C   LIG    1        0.535  -1.073  -1.937  0.00  0.00    +0.600 C 
ATOM      2  N   LIG    1        0.972  -0.236  -0.974  0.00  0.00    -0.600 N 
ATOM      3  C   LIG    1        2.331   0.319  -1.026  0.00  0.00    +0.280 C 
ATOM      4  C   LIG    1        2.244   1.845  -0.924  0.00  0.00    +0.030 C 
ATOM      5  C   LIG    1        1.456   2.225   0.332  0.00  0.00    +0.060 C 
ATOM      6  C   LIG    1        0.035   1.665   0.234  0.00  0.00    -0.010 C 
ATOM      7  C   LIG    1        0.097   0.137   0.146  0.00  0.00    +0.300 C 
ATOM      8  O   LIG    1       -0.559  -1.596  -1.837  0.00  0.00    -0.520 OA
ENDROOT
BRANCH   1  13
ATOM      9  C   LIG    1        2.961  -2.170  -4.452  0.00  0.00    -0.250 A 
ATOM     10  C   LIG    1        2.180  -1.280  -5.173  0.00  0.00    +0.090 A 
ATOM     11  N   LIG    1        1.233  -0.794  -4.357  0.00  0.00    -0.510 N 
ATOM     12  H   LIG    1        0.553  -0.150  -4.609  0.00  0.00    +0.420 HD
ATOM     13  C   LIG    1        1.379  -1.352  -3.105  0.00  0.00    -0.040 A 
ATOM     14  C   LIG    1        2.364  -0.920  -6.624  0.00  0.00    +0.150 C 
ATOM     15  C   LIG    1        2.443  -2.202  -3.135  0.00  0.00    -0.070 A 
ATOM     16  C   LIG    1        2.966  -3.024  -1.985  0.00  0.00    +0.120 C 
BRANCH   9  18
ATOM     17  C   LIG    1        5.479  -2.300  -4.976  0.00  0.00    +0.070 C 
ATOM     18  C   LIG    1        4.110  -2.929  -4.956  0.00  0.00    +0.430 C 
ATOM     19  O   LIG    1        3.958  -4.064  -5.358  0.00  0.00    -0.450 OA
ENDBRANCH   9  18
ENDBRANCH   1  13
BRANCH   6  20
ATOM     20  C   LIG    1       -0.749   2.067   1.457  0.00  0.00    +0.520 C 
ATOM     21  N   LIG    1       -2.033   1.681   1.591  0.00  0.00    -0.670 N 
ATOM     22  H   LIG    1       -2.428   1.077   0.943  0.00  0.00    +0.410 HD
ATOM     23  O   LIG    1       -0.224   2.737   2.321  0.00  0.00    -0.510 OA
BRANCH  21  24
ATOM     24  C   LIG    1       -2.797   2.151   2.665  0.00  0.00    +0.140 A 
ATOM     25  C   LIG    1       -3.759   1.335   3.245  0.00  0.00    -0.010 A 
ATOM     26  C   LIG    1       -4.507   1.800   4.308  0.00  0.00    +0.030 A 
ATOM     27  C   LIG    1       -4.307   3.082   4.789  0.00  0.00    -0.010 A 
ATOM     28  C   LIG    1       -3.353   3.899   4.210  0.00  0.00    +0.030 A 
ATOM     29  C   LIG    1       -2.598   3.438   3.149  0.00  0.00    +0.010 A 
ENDBRANCH  21  24
ENDBRANCH   6  20
TORSDOF 4
