REMARK  Name = ZINCvU00000004tT.0
REMARK                            x       y       z     vdW  Elec       q    Type
REMARK                         _______ _______ _______ _____ _____    ______ ____
ROOT
ATOM      1  C   LIG    1        1.407   1.641   2.604  0.00  0.00    +0.130 C 
ATOM      2  C   LIG    1       -0.074   1.813   2.390  0.00  0.00    -0.230 A 
ATOM      3  C   LIG    1       -0.718   1.572   1.248  0.00  0.00    -0.080 A 
ATOM      4  C   LIG    1       -2.082   1.806   1.284  0.00  0.00    -0.140 A 
ATOM      5  C   LIG    1       -2.547   2.232   2.468  0.00  0.00    +0.050 A 
ATOM      6  C   LIG    1       -0.013   1.086   0.008  0.00  0.00    +0.100 C 
ATOM      7  S   LIG    1       -1.216   2.364   3.610  0.00  0.00    +0.220 S 
ENDROOT
BRANCH   5   8
ATOM      8  N   LIG    1       -3.882   2.530   2.750  0.00  0.00    -0.620 N 
ATOM      9  H   LIG    1       -4.557   2.430   2.060  0.00  0.00    +0.420 HD
ATOM     10  C   LIG    1       -4.233   2.956   3.979  0.00  0.00    +0.550 C 
ATOM     11  O   LIG    1       -3.387   3.081   4.843  0.00  0.00    -0.490 OA
BRANCH  10  12
ATOM     12  C   LIG    1       -5.644   3.271   4.277  0.00  0.00    -0.180 A 
ATOM     13  C   LIG    1       -6.619   3.129   3.287  0.00  0.00    +0.070 A 
ATOM     14  C   LIG    1       -7.936   3.424   3.571  0.00  0.00    +0.000 A 
ATOM     15  C   LIG    1       -8.294   3.861   4.835  0.00  0.00    +0.080 A 
ATOM     16  C   LIG    1       -7.337   4.005   5.822  0.00  0.00    -0.010 A 
ATOM     17  C   LIG    1       -6.013   3.708   5.553  0.00  0.00    +0.170 A 
ATOM     18  F   LIG    1       -5.079   3.844   6.519  0.00  0.00    -0.110 F 
ENDBRANCH  10  12
ENDBRANCH   5   8
BRANCH   4  19
ATOM     19  C   LIG    1       -2.975   1.595   0.089  0.00  0.00    +0.240 C 
BRANCH  19  20
ATOM     20  N   LIG    1       -3.480   0.216   0.093  0.00  0.00    -0.530 NA
ATOM     21  C   LIG    1       -2.388  -0.746  -0.117  0.00  0.00    +0.180 C 
ATOM     22  C   LIG    1       -2.942  -2.170  -0.027  0.00  0.00    +0.200 C 
ATOM     23  N   LIG    1       -3.996  -2.347  -1.035  0.00  0.00    -0.490 N 
ATOM     24  C   LIG    1       -5.088  -1.386  -0.826  0.00  0.00    +0.200 C 
ATOM     25  C   LIG    1       -4.535   0.038  -0.916  0.00  0.00    +0.180 C 
BRANCH  23  26
ATOM     26  C   LIG    1       -4.477  -3.660  -1.032  0.00  0.00    +0.080 A 
ATOM     27  C   LIG    1       -5.428  -4.055  -1.962  0.00  0.00    +0.020 A 
ATOM     28  C   LIG    1       -5.897  -5.356  -1.960  0.00  0.00    +0.030 A 
ATOM     29  C   LIG    1       -5.428  -6.260  -1.025  0.00  0.00    +0.010 A 
ATOM     30  C   LIG    1       -4.485  -5.870  -0.092  0.00  0.00    +0.010 A 
ATOM     31  C   LIG    1       -4.007  -4.572  -0.092  0.00  0.00    +0.050 A 
ATOM     32  F   LIG    1       -3.085  -4.191   0.819  0.00  0.00    -0.130 F 
ENDBRANCH  23  26
ENDBRANCH  19  20
ENDBRANCH   4  19
TORSDOF 5
