REMARK  Name = ZINCqH0000001vmA.0
REMARK                            x       y       z     vdW  Elec       q    Type
REMARK                         _______ _______ _______ _____ _____    ______ ____
ROOT
ATOM      1  C   LIG    1       -3.147  10.605  -2.933  0.00  0.00    +0.570 C 
ATOM      2  N   LIG    1       -2.312   9.948  -2.103  0.00  0.00    -0.720 N 
ATOM      3  H   LIG    1       -1.423  10.298  -1.933  0.00  0.00    +0.410 HD
ATOM      4  O   LIG    1       -4.261  10.167  -3.147  0.00  0.00    -0.540 OA
ENDROOT
BRANCH   1   8
ATOM      5  C   LIG    1       -1.888  14.207  -4.796  0.00  0.00    +0.160 A 
ATOM      6  C   LIG    1       -3.162  13.708  -5.043  0.00  0.00    -0.080 A 
ATOM      7  C   LIG    1       -3.574  12.540  -4.440  0.00  0.00    +0.130 A 
ATOM      8  C   LIG    1       -2.709  11.857  -3.580  0.00  0.00    -0.180 A 
ATOM      9  C   LIG    1       -1.432  12.366  -3.331  0.00  0.00    +0.090 A 
ATOM     10  C   LIG    1       -1.026  13.531  -3.942  0.00  0.00    -0.020 A 
BRANCH   5  11
ATOM     11  O   LIG    1       -1.486  15.359  -5.392  0.00  0.00    -0.310 OA
BRANCH  11  13
ATOM     12  C   LIG    1       -3.405  16.808  -5.624  0.00  0.00    +0.030 C 
ATOM     13  C   LIG    1       -2.375  15.940  -6.348  0.00  0.00    +0.150 C 
ATOM     14  C   LIG    1       -1.577  16.803  -7.327  0.00  0.00    +0.070 C 
ENDBRANCH  11  13
ENDBRANCH   5  11
ENDBRANCH   1   8
BRANCH   2  15
ATOM     15  C   LIG    1       -2.746   8.705  -1.460  0.00  0.00    +0.300 C 
BRANCH  15  16
ATOM     16  C   LIG    1       -1.636   8.175  -0.591  0.00  0.00    +0.510 C 
ATOM     17  N   LIG    1       -1.810   7.033   0.103  0.00  0.00    -0.720 N 
ATOM     18  H   LIG    1       -2.651   6.553   0.043  0.00  0.00    +0.400 HD
ATOM     19  O   LIG    1       -0.585   8.776  -0.516  0.00  0.00    -0.530 OA
BRANCH  17  20
ATOM     20  C   LIG    1       -0.731   6.517   0.949  0.00  0.00    +0.280 C 
ATOM     21  C   LIG    1       -0.793   7.189   2.322  0.00  0.00    +0.040 C 
BRANCH  20  22
ATOM     22  C   LIG    1       -0.887   5.027   1.111  0.00  0.00    -0.090 A 
ATOM     23  C   LIG    1        0.226   4.208   1.087  0.00  0.00    +0.050 A 
ATOM     24  C   LIG    1        0.083   2.842   1.235  0.00  0.00    +0.040 A 
ATOM     25  C   LIG    1       -1.176   2.293   1.408  0.00  0.00    -0.030 A 
ATOM     26  C   LIG    1       -2.290   3.113   1.426  0.00  0.00    +0.040 A 
ATOM     27 CL   LIG    1       -1.357   0.577   1.594  0.00  0.00    -0.060 Cl
ATOM     28  C   LIG    1       -2.145   4.480   1.283  0.00  0.00    +0.030 A 
ENDBRANCH  20  22
ENDBRANCH  17  20
ENDBRANCH  15  16
ENDBRANCH   2  15
TORSDOF 7
