REMARK  Name = ZINCqH0000000oK5.0
REMARK                            x       y       z     vdW  Elec       q    Type
REMARK                         _______ _______ _______ _____ _____    ______ ____
ROOT
ATOM      1  S   LIG    1       -4.314   0.681   1.644  0.00  0.00    +2.700 S 
ATOM      2  O   LIG    1       -5.043   1.704   0.979  0.00  0.00    -0.960 OA
ATOM      3  O   LIG    1       -4.536   0.326   3.002  0.00  0.00    -0.950 OA
ENDROOT
BRANCH   1  12
ATOM      4  C   LIG    1       -5.000  -6.735  -1.755  0.00  0.00    +0.110 C 
ATOM      5  C   LIG    1       -4.680  -5.458  -1.022  0.00  0.00    +0.510 C 
ATOM      6  N   LIG    1       -5.089  -4.274  -1.520  0.00  0.00    -0.560 N 
ATOM      7  C   LIG    1       -5.723  -4.199  -2.843  0.00  0.00    +0.270 C 
ATOM      8  C   LIG    1       -5.105  -3.012  -3.593  0.00  0.00    +0.020 C 
ATOM      9  C   LIG    1       -5.438  -1.724  -2.840  0.00  0.00    +0.090 C 
ATOM     10  C   LIG    1       -5.069  -1.853  -1.386  0.00  0.00    -0.140 A 
ATOM     11  C   LIG    1       -4.889  -0.704  -0.636  0.00  0.00    +0.140 A 
ATOM     12  C   LIG    1       -4.549  -0.789   0.701  0.00  0.00    -0.700 A 
ATOM     13  C   LIG    1       -4.397  -2.025   1.301  0.00  0.00    +0.140 A 
ATOM     14  C   LIG    1       -4.580  -3.177   0.561  0.00  0.00    +0.000 A 
ATOM     15  C   LIG    1       -4.915  -3.093  -0.785  0.00  0.00    +0.210 A 
ATOM     16  O   LIG    1       -4.054  -5.495   0.017  0.00  0.00    -0.510 OA
ENDBRANCH   1  12
BRANCH   1  17
ATOM     17  N   LIG    1       -2.715   1.091   1.523  0.00  0.00    -1.110 NA
ATOM     18  H   LIG    1       -2.149   1.074   2.310  0.00  0.00    +0.420 HD
BRANCH  17  19
ATOM     19  C   LIG    1       -2.154   1.480   0.226  0.00  0.00    +0.340 C 
BRANCH  19  20
ATOM     20  C   LIG    1       -0.819   2.147   0.435  0.00  0.00    -0.090 A 
ATOM     21  C   LIG    1       -0.725   3.525   0.414  0.00  0.00    +0.080 A 
ATOM     22  C   LIG    1        0.501   4.138   0.600  0.00  0.00    +0.030 A 
ATOM     23  C   LIG    1        1.632   3.371   0.814  0.00  0.00    -0.020 A 
ATOM     24  C   LIG    1        1.537   1.991   0.841  0.00  0.00    +0.050 A 
ATOM     25 CL   LIG    1        3.171   4.140   1.049  0.00  0.00    -0.050 Cl
ATOM     26  C   LIG    1        0.311   1.379   0.655  0.00  0.00    -0.010 A 
ATOM     27 CL   LIG    1        0.191  -0.353   0.689  0.00  0.00    -0.050 Cl
ENDBRANCH  19  20
ENDBRANCH  17  19
ENDBRANCH   1  17
TORSDOF 4
