REMARK  Name = ZINCah0000001hRI.0
REMARK                            x       y       z     vdW  Elec       q    Type
REMARK                         _______ _______ _______ _____ _____    ______ ____
ROOT
ATOM      1  O   LIG    1       -1.204   2.841   0.023  0.00  0.00    -0.490 OA
ATOM      2  C   LIG    1       -1.187   1.624   0.017  0.00  0.00    +0.620 C 
ATOM      3  N   LIG    1       -0.011   0.966   0.007  0.00  0.00    -0.590 N 
ATOM      4  H   LIG    1        0.002  -0.004   0.002  0.00  0.00    +0.420 HD
ENDROOT
BRANCH   2   5
ATOM      5  C   LIG    1       -2.446   0.874   0.018  0.00  0.00    -0.050 A 
ATOM      6  C   LIG    1       -3.701   1.413   0.027  0.00  0.00    +0.080 A 
ATOM      7  C   LIG    1       -4.603   0.338   0.026  0.00  0.00    +0.010 A 
ATOM      8  C   LIG    1       -3.868  -0.798   0.016  0.00  0.00    +0.000 A 
ATOM      9 BR   LIG    1       -4.559  -2.558   0.010  0.00  0.00    +0.070 Br
ATOM     10  O   LIG    1       -2.569  -0.470   0.006  0.00  0.00    -0.150 OA
ENDBRANCH   2   5
BRANCH   3  11
ATOM     11  O   LIG    1        1.205   1.690  -0.000  0.00  0.00    -0.310 OA
ATOM     12  H   LIG    1        1.995   1.133  -0.011  0.00  0.00    +0.390 HD
ENDBRANCH   3  11
TORSDOF 2
