REMARK  Name = ZINCnE000001Lu1e.0
REMARK                            x       y       z     vdW  Elec       q    Type
REMARK                         _______ _______ _______ _____ _____    ______ ____
ROOT
ATOM      1  C   LIG    1        2.137  -8.176   2.625  0.00  0.00    +0.110 A 
ATOM      2  C   LIG    1        0.984  -8.268   1.852  0.00  0.00    -0.040 A 
ATOM      3  C   LIG    1        0.605  -7.229   1.030  0.00  0.00    +0.080 A 
ATOM      4  C   LIG    1        1.375  -6.075   0.967  0.00  0.00    +0.020 A 
ATOM      5  O   LIG    1        1.260  -4.921   0.279  0.00  0.00    -0.180 OA
ATOM      6  C   LIG    1        2.280  -4.091   0.560  0.00  0.00    +0.050 A 
ATOM      7  C   LIG    1        3.105  -4.659   1.450  0.00  0.00    -0.180 A 
ATOM      8  C   LIG    1        4.362  -4.061   2.028  0.00  0.00    +0.130 C 
ATOM      9  C   LIG    1        2.540  -5.981   1.747  0.00  0.00    -0.080 A 
ATOM     10  C   LIG    1        2.916  -7.036   2.576  0.00  0.00    +0.020 A 
ENDROOT
BRANCH   1  12
ATOM     11  C   LIG    1        1.645 -10.357   3.435  0.00  0.00    +0.240 C 
ATOM     12  O   LIG    1        2.497  -9.210   3.432  0.00  0.00    -0.320 OA
ENDBRANCH   1  12
BRANCH   6  13
ATOM     13  C   LIG    1        2.465  -2.719  -0.035  0.00  0.00    +0.350 C 
ATOM     14  C   LIG    1        2.958  -2.850  -1.477  0.00  0.00    +0.040 C 
BRANCH  13  15
ATOM     15  N   LIG    1        1.186  -2.004  -0.019  0.00  0.00    -0.730 N 
ATOM     16  H   LIG    1        0.353  -2.500  -0.015  0.00  0.00    +0.400 HD
ATOM     17  C   LIG    1        1.168  -0.656  -0.012  0.00  0.00    +0.670 C 
ATOM     18  O   LIG    1        2.215  -0.032  -0.018  0.00  0.00    -0.610 OA
BRANCH  17  19
ATOM     19  N   LIG    1        0.002  -0.004   0.002  0.00  0.00    -0.680 NA
ATOM     20  C   LIG    1       -0.016   1.328   0.009  0.00  0.00    +0.360 A 
ATOM     21  N   LIG    1        1.045   2.158   0.004  0.00  0.00    -0.420 NA
ATOM     22  N   LIG    1        0.770   3.508   0.013  0.00  0.00    -0.280 NA
ATOM     23  C   LIG    1       -0.472   3.861   0.026  0.00  0.00    +0.160 A 
ATOM     24  S   LIG    1       -1.401   2.352   0.021  0.00  0.00    -0.090 S 
ENDBRANCH  17  19
ENDBRANCH  13  15
ENDBRANCH   6  13
TORSDOF 4
