REMARK  Name = ZINCqH0000000tlJ.0
REMARK                            x       y       z     vdW  Elec       q    Type
REMARK                         _______ _______ _______ _____ _____    ______ ____
ROOT
ATOM      1  N   LIG    1       -0.339   0.187  -0.079  0.00  0.00    -0.680 N 
ATOM      2  H   LIG    1       -0.120  -0.758  -0.074  0.00  0.00    +0.410 HD
ATOM      3  C   LIG    1       -1.628   0.580  -0.096  0.00  0.00    +0.710 C 
ATOM      4  N   LIG    1       -2.613  -0.336  -0.012  0.00  0.00    -0.640 N 
ATOM      5  H   LIG    1       -2.394  -1.278   0.061  0.00  0.00    +0.410 HD
ATOM      6  O   LIG    1       -1.903   1.761  -0.187  0.00  0.00    -0.540 OA
ENDROOT
BRANCH   1  10
ATOM      7  C   LIG    1        2.708   3.034  -0.066  0.00  0.00    +0.130 A 
ATOM      8  C   LIG    1        2.865   1.845   0.635  0.00  0.00    +0.000 A 
ATOM      9  C   LIG    1        1.856   0.903   0.631  0.00  0.00    +0.010 A 
ATOM     10  C   LIG    1        0.685   1.143  -0.074  0.00  0.00    +0.140 A 
ATOM     11  C   LIG    1        0.530   2.329  -0.780  0.00  0.00    +0.050 A 
ATOM     12  C   LIG    1        1.537   3.274  -0.771  0.00  0.00    +0.040 A 
BRANCH   7  15
ATOM     13  C   LIG    1        4.525   6.331   0.036  0.00  0.00    +0.110 C 
ATOM     14  C   LIG    1        3.428   5.303  -0.074  0.00  0.00    +0.510 C 
ATOM     15  N   LIG    1        3.732   3.990  -0.062  0.00  0.00    -0.680 N 
ATOM     16  H   LIG    1        4.660   3.707  -0.050  0.00  0.00    +0.410 HD
ATOM     17  O   LIG    1        2.273   5.657  -0.173  0.00  0.00    -0.520 OA
ENDBRANCH   7  15
ENDBRANCH   1  10
BRANCH   4  18
ATOM     18  C   LIG    1       -3.953   0.072  -0.029  0.00  0.00    +0.330 A 
ATOM     19  N   LIG    1       -4.999  -0.717   0.046  0.00  0.00    -0.320 NA
ATOM     20  N   LIG    1       -6.152   0.078  -0.005  0.00  0.00    -0.320 N 
ATOM     21  C   LIG    1       -5.761   1.374  -0.114  0.00  0.00    +0.100 A 
ATOM     22  C   LIG    1       -6.671   2.572  -0.200  0.00  0.00    +0.150 C 
ATOM     23  C   LIG    1       -4.409   1.398  -0.125  0.00  0.00    -0.070 A 
BRANCH  20  24
ATOM     24  C   LIG    1       -7.474  -0.383   0.048  0.00  0.00    +0.160 A 
ATOM     25  C   LIG    1       -8.447   0.367   0.695  0.00  0.00    +0.000 A 
ATOM     26  C   LIG    1       -9.751  -0.087   0.740  0.00  0.00    +0.030 A 
ATOM     27  C   LIG    1      -10.085  -1.293   0.151  0.00  0.00    +0.010 A 
ATOM     28  C   LIG    1       -9.117  -2.045  -0.489  0.00  0.00    +0.030 A 
ATOM     29  C   LIG    1       -7.813  -1.593  -0.543  0.00  0.00    +0.020 A 
ENDBRANCH  20  24
ENDBRANCH   4  18
TORSDOF 4
