REMARK  Name = ZINCrg000000sxmL.0
REMARK                            x       y       z     vdW  Elec       q    Type
REMARK                         _______ _______ _______ _____ _____    ______ ____
ROOT
ATOM      1  N   LIG    1       -0.769  -0.940   3.193  0.00  0.00    -0.990 NA
ATOM      2  C   LIG    1       -1.891  -0.482   2.362  0.00  0.00    +0.300 C 
ATOM      3  C   LIG    1       -1.434  -0.443   0.899  0.00  0.00    +0.280 C 
ATOM      4  N   LIG    1       -0.156   0.280   0.825  0.00  0.00    -0.610 N 
ATOM      5  C   LIG    1        0.968  -0.182   1.651  0.00  0.00    +0.260 C 
ATOM      6  C   LIG    1       -0.016   1.344   0.009  0.00  0.00    +0.600 C 
ATOM      7  O   LIG    1       -0.924   1.664  -0.733  0.00  0.00    -0.530 OA
ATOM      8  C   LIG    1        0.509  -0.217   3.119  0.00  0.00    +0.290 C 
ENDROOT
BRANCH   6   9
ATOM      9  C   LIG    1        1.240   2.115   0.013  0.00  0.00    -0.280 A 
ATOM     10  C   LIG    1        2.517   1.603  -0.107  0.00  0.00    +0.270 A 
ATOM     11  N   LIG    1        3.371   2.637  -0.059  0.00  0.00    -0.360 N 
ATOM     12  N   LIG    1        2.633   3.815   0.102  0.00  0.00    -0.290 NA
ATOM     13  C   LIG    1        4.830   2.547  -0.152  0.00  0.00    +0.360 C 
ATOM     14  C   LIG    1        1.364   3.516   0.146  0.00  0.00    +0.160 A 
BRANCH  14  15
ATOM     15  C   LIG    1        0.229   4.494   0.310  0.00  0.00    +0.040 C 
ATOM     16  C   LIG    1        0.564   5.984   0.232  0.00  0.00    +0.040 C 
ATOM     17  C   LIG    1        0.211   5.348   1.579  0.00  0.00    +0.040 C 
ENDBRANCH  14  15
ENDBRANCH   6   9
BRANCH   1  18
ATOM     18  S   LIG    1       -0.940  -2.248   4.194  0.00  0.00    +2.720 S 
ATOM     19  O   LIG    1       -2.330  -2.367   4.464  0.00  0.00    -0.940 OA
ATOM     20  O   LIG    1        0.040  -2.106   5.212  0.00  0.00    -0.940 OA
BRANCH  18  27
ATOM     21  C   LIG    1        2.067  -3.794   3.785  0.00  0.00    +0.190 C 
ATOM     22  C   LIG    1        0.789  -4.267   3.142  0.00  0.00    +0.110 A 
ATOM     23  N   LIG    1        0.643  -5.299   2.362  0.00  0.00    -0.360 NA
ATOM     24  O   LIG    1       -0.504  -5.426   2.001  0.00  0.00    +0.100 OA
ATOM     25  C   LIG    1       -1.290  -4.469   2.513  0.00  0.00    +0.120 A 
ATOM     26  C   LIG    1       -2.772  -4.305   2.292  0.00  0.00    +0.220 C 
ATOM     27  C   LIG    1       -0.490  -3.677   3.267  0.00  0.00    -0.800 A 
ENDBRANCH  18  27
ENDBRANCH   1  18
TORSDOF 4
