REMARK  Name = ZINCpe000000YaYI.0
REMARK                            x       y       z     vdW  Elec       q    Type
REMARK                         _______ _______ _______ _____ _____    ______ ____
ROOT
ATOM      1  C   LIG    1       -4.498   9.664   3.586  0.00  0.00    +0.130 C 
ATOM      2  C   LIG    1       -3.277   9.083   4.303  0.00  0.00    +0.040 C 
ATOM      3  C   LIG    1       -3.197   7.578   4.028  0.00  0.00    +0.290 C 
ATOM      4  N   LIG    1       -3.201   7.363   2.574  0.00  0.00    -0.610 N 
ATOM      5  C   LIG    1       -4.279   7.961   1.775  0.00  0.00    +0.280 C 
ATOM      6  C   LIG    1       -2.232   6.635   1.985  0.00  0.00    +0.520 C 
ATOM      7  O   LIG    1       -1.345   6.150   2.655  0.00  0.00    -0.520 OA
ATOM      8  C   LIG    1       -4.351   9.457   2.077  0.00  0.00    +0.040 C 
ENDROOT
BRANCH   1  13
ATOM      9  C   LIG    1       -6.075  14.169   5.100  0.00  0.00    +0.200 C 
ATOM     10  C   LIG    1       -5.254  13.048   4.518  0.00  0.00    +0.170 A 
ATOM     11  N   LIG    1       -4.080  13.158   3.971  0.00  0.00    -0.380 NA
ATOM     12  O   LIG    1       -3.686  12.072   3.600  0.00  0.00    +0.080 OA
ATOM     13  C   LIG    1       -4.600  11.138   3.883  0.00  0.00    +0.180 A 
ATOM     14  N   LIG    1       -5.604  11.750   4.463  0.00  0.00    -0.480 NA
ENDBRANCH   1  13
BRANCH   6  15
ATOM     15  C   LIG    1       -2.251   6.423   0.493  0.00  0.00    +0.000 C 
ATOM     16  C   LIG    1       -3.447   5.538   0.074  0.00  0.00    +0.090 C 
ATOM     17  C   LIG    1       -2.882   4.136   0.045  0.00  0.00    +0.510 C 
ATOM     18  N   LIG    1       -1.538   4.179   0.039  0.00  0.00    -0.530 N 
ATOM     19  O   LIG    1       -3.544   3.119   0.033  0.00  0.00    -0.520 OA
ATOM     20  C   LIG    1       -1.050   5.563   0.042  0.00  0.00    +0.310 C 
BRANCH  18  21
ATOM     21  C   LIG    1       -0.707   3.043   0.025  0.00  0.00    +0.010 A 
ATOM     22  C   LIG    1       -1.120   1.750   0.016  0.00  0.00    +0.230 A 
ATOM     23  N   LIG    1       -0.011   0.966   0.007  0.00  0.00    -0.470 N 
ATOM     24  H   LIG    1        0.002  -0.004   0.002  0.00  0.00    +0.450 HD
ATOM     25  N   LIG    1        1.110   1.806   0.001  0.00  0.00    -0.280 NA
ATOM     26  C   LIG    1        0.696   3.046   0.012  0.00  0.00    +0.230 A 
ENDBRANCH  18  21
ENDBRANCH   6  15
TORSDOF 3
