REMARK  Name = ZINCvU00000008v9.0
REMARK                            x       y       z     vdW  Elec       q    Type
REMARK                         _______ _______ _______ _____ _____    ______ ____
ROOT
ATOM      1  C   LIG    1       -5.956   6.190   0.159  0.00  0.00    +0.570 C 
ATOM      2  N   LIG    1       -4.812   5.477   0.188  0.00  0.00    -0.670 N 
ATOM      3  H   LIG    1       -4.844   4.512   0.287  0.00  0.00    +0.410 HD
ATOM      4  O   LIG    1       -5.914   7.404   0.124  0.00  0.00    -0.500 OA
ENDROOT
BRANCH   2   5
ATOM      5  C   LIG    1       -3.585   6.125   0.077  0.00  0.00    +0.190 A 
ATOM      6  C   LIG    1       -3.412   7.389   0.624  0.00  0.00    +0.040 A 
ATOM      7  C   LIG    1       -2.194   8.030   0.513  0.00  0.00    +0.090 A 
ATOM      8  C   LIG    1       -1.137   7.419  -0.143  0.00  0.00    -0.110 A 
ATOM      9  C   LIG    1       -1.288   6.161  -0.687  0.00  0.00    +0.110 A 
ATOM     10 BR   LIG    1        0.524   8.312  -0.285  0.00  0.00    -0.040 Br
ATOM     11  C   LIG    1       -2.517   5.502  -0.588  0.00  0.00    -0.170 A 
BRANCH  11  12
ATOM     12  C   LIG    1       -2.688   4.160  -1.173  0.00  0.00    +0.440 C 
ATOM     13  O   LIG    1       -2.215   3.189  -0.615  0.00  0.00    -0.410 OA
BRANCH  12  14
ATOM     14  C   LIG    1       -3.434   3.995  -2.437  0.00  0.00    -0.160 A 
ATOM     15  C   LIG    1       -4.070   5.091  -3.025  0.00  0.00    +0.090 A 
ATOM     16  C   LIG    1       -4.765   4.929  -4.205  0.00  0.00    +0.010 A 
ATOM     17  C   LIG    1       -4.834   3.685  -4.808  0.00  0.00    +0.070 A 
ATOM     18  C   LIG    1       -4.206   2.595  -4.233  0.00  0.00    +0.020 A 
ATOM     19  C   LIG    1       -3.511   2.740  -3.049  0.00  0.00    +0.010 A 
ATOM     20 CL   LIG    1       -2.730   1.369  -2.324  0.00  0.00    -0.030 Cl
ENDBRANCH  12  14
ENDBRANCH  11  12
ENDBRANCH   2   5
BRANCH   1  23
ATOM     21  C   LIG    1       -9.663   5.582   0.150  0.00  0.00    +0.140 A 
ATOM     22  C   LIG    1       -8.444   6.234   0.141  0.00  0.00    -0.020 A 
ATOM     23  C   LIG    1       -7.258   5.496   0.170  0.00  0.00    -0.070 A 
ATOM     24  C   LIG    1       -7.307   4.100   0.205  0.00  0.00    -0.060 A 
ATOM     25  C   LIG    1       -8.528   3.453   0.220  0.00  0.00    +0.150 A 
ATOM     26  C   LIG    1       -9.709   4.191   0.190  0.00  0.00    +0.060 A 
BRANCH  21  28
ATOM     27  C   LIG    1      -10.697   7.722   0.080  0.00  0.00    +0.250 C 
ATOM     28  O   LIG    1      -10.818   6.299   0.121  0.00  0.00    -0.300 OA
ENDBRANCH  21  28
BRANCH  25  29
ATOM     29  O   LIG    1       -8.577   2.094   0.259  0.00  0.00    -0.300 OA
ATOM     30  C   LIG    1       -7.328   1.401   0.288  0.00  0.00    +0.250 C 
ENDBRANCH  25  29
BRANCH  26  31
ATOM     31  O   LIG    1      -10.908   3.552   0.200  0.00  0.00    -0.310 OA
ATOM     32  C   LIG    1      -11.471   3.210  -1.069  0.00  0.00    +0.240 C 
ENDBRANCH  26  31
ENDBRANCH   1  23
TORSDOF 7
