REMARK  Name = ZINCqH0000005IiA.0
REMARK                            x       y       z     vdW  Elec       q    Type
REMARK                         _______ _______ _______ _____ _____    ______ ____
ROOT
ATOM      1  C   LIG    1        1.233  -0.522  -0.066  0.00  0.00    +0.150 A 
ATOM      2  N   LIG    1       -0.008  -0.099  -0.155  0.00  0.00    -0.280 NA
ATOM      3  N   LIG    1       -0.042   1.185  -0.095  0.00  0.00    -0.250 NA
ATOM      4  C   LIG    1        1.175   1.659   0.036  0.00  0.00    +0.230 A 
ATOM      5  N   LIG    1        2.029   0.581   0.059  0.00  0.00    -0.450 N 
ENDROOT
BRANCH   4   6
ATOM      6  C   LIG    1        1.556   3.084   0.138  0.00  0.00    -0.050 A 
ATOM      7  C   LIG    1        2.900   3.455   0.088  0.00  0.00    +0.040 A 
ATOM      8  C   LIG    1        3.249   4.787   0.179  0.00  0.00    +0.010 A 
ATOM      9  C   LIG    1        2.271   5.754   0.332  0.00  0.00    +0.070 A 
ATOM     10  C   LIG    1        0.936   5.394   0.388  0.00  0.00    +0.000 A 
ATOM     11  C   LIG    1        0.572   4.065   0.292  0.00  0.00    +0.140 A 
ATOM     12  F   LIG    1       -0.732   3.714   0.348  0.00  0.00    -0.110 F 
ENDBRANCH   4   6
BRANCH   1  13
ATOM     13  S   LIG    1        1.769  -2.200  -0.100  0.00  0.00    +0.080 S 
BRANCH  13  14
ATOM     14  C   LIG    1        0.174  -3.036  -0.283  0.00  0.00    +0.050 C 
ATOM     15  C   LIG    1       -0.443  -2.669  -1.634  0.00  0.00    +0.100 C 
BRANCH  14  16
ATOM     16  C   LIG    1        0.379  -4.528  -0.213  0.00  0.00    +0.490 C 
ATOM     17  O   LIG    1        1.472  -4.998  -0.419  0.00  0.00    -0.490 OA
BRANCH  16  19
ATOM     18  C   LIG    1       -0.385  -6.760   0.127  0.00  0.00    +0.280 C 
ATOM     19  O   LIG    1       -0.655  -5.334   0.077  0.00  0.00    -0.350 OA
ENDBRANCH  16  19
ENDBRANCH  14  16
ENDBRANCH  13  14
ENDBRANCH   1  13
BRANCH   5  20
ATOM     20  C   LIG    1        3.488   0.609   0.189  0.00  0.00    +0.360 C 
BRANCH  20  21
ATOM     21  C   LIG    1        4.116   0.540  -1.179  0.00  0.00    -0.130 A 
ATOM     22  C   LIG    1        4.293  -0.683  -1.797  0.00  0.00    +0.040 A 
ATOM     23  C   LIG    1        4.865  -0.746  -3.054  0.00  0.00    +0.010 A 
ATOM     24  C   LIG    1        5.270   0.413  -3.688  0.00  0.00    +0.030 A 
ATOM     25  C   LIG    1        5.098   1.637  -3.067  0.00  0.00    +0.010 A 
ATOM     26  C   LIG    1        4.521   1.700  -1.813  0.00  0.00    +0.020 A 
ENDBRANCH  20  21
ENDBRANCH   5  20
TORSDOF 7
