REMARK  Name = ZINCkj00000BhaMP.0
REMARK                            x       y       z     vdW  Elec       q    Type
REMARK                         _______ _______ _______ _____ _____    ______ ____
ROOT
ATOM      1  N   LIG    1        0.002  -0.004   0.002  0.00  0.00    -0.650 N 
ATOM      2  H   LIG    1        0.845  -0.477  -0.084  0.00  0.00    +0.420 HD
ATOM      3  C   LIG    1       -0.016   1.343   0.012  0.00  0.00    +0.600 C 
ATOM      4  O   LIG    1       -1.077   1.937   0.016  0.00  0.00    -0.500 OA
ENDROOT
BRANCH   3   5
ATOM      5  C   LIG    1        1.253   2.099   0.012  0.00  0.00    +0.020 A 
ATOM      6  N   LIG    1        2.475   1.592   0.002  0.00  0.00    -0.220 NA
ATOM      7  N   LIG    1        3.349   2.540   0.004  0.00  0.00    -0.340 N 
ATOM      8  H   LIG    1        4.311   2.409   0.000  0.00  0.00    +0.460 HD
ATOM      9  C   LIG    1        2.735   3.732   0.013  0.00  0.00    -0.040 A 
ATOM     10  C   LIG    1        3.323   5.119   0.010  0.00  0.00    +0.380 C 
ATOM     11  N   LIG    1        2.272   6.067  -0.399  0.00  0.00    -0.500 N 
ATOM     12  H   LIG    1        2.036   5.906  -1.366  0.00  0.00    +0.430 HD
ATOM     13  H   LIG    1        2.615   7.010  -0.293  0.00  0.00    +0.440 HD
ATOM     14  C   LIG    1        1.073   5.890   0.430  0.00  0.00    +0.280 C 
ATOM     15  C   LIG    1        0.362   4.584   0.042  0.00  0.00    +0.170 C 
ATOM     16  C   LIG    1        1.398   3.493   0.016  0.00  0.00    -0.140 A 
ENDBRANCH   3   5
BRANCH   1  23
ATOM     17  C   LIG    1       -0.086  -2.643  -1.055  0.00  0.00    +0.100 C 
ATOM     18  C   LIG    1       -1.281  -2.013  -0.387  0.00  0.00    -0.120 A 
ATOM     19  C   LIG    1       -2.462  -2.720  -0.275  0.00  0.00    +0.060 A 
ATOM     20  C   LIG    1       -3.559  -2.145   0.337  0.00  0.00    -0.020 A 
ATOM     21  C   LIG    1       -3.478  -0.854   0.840  0.00  0.00    +0.120 A 
ATOM     22  C   LIG    1       -2.293  -0.143   0.734  0.00  0.00    +0.000 A 
ATOM     23  C   LIG    1       -1.194  -0.720   0.115  0.00  0.00    +0.150 A 
BRANCH  21  24
ATOM     24  O   LIG    1       -4.559  -0.290   1.442  0.00  0.00    -0.500 OA
ATOM     25  H   LIG    1       -4.605  -0.447   2.395  0.00  0.00    +0.390 HD
ENDBRANCH  21  24
ENDBRANCH   1  23
TORSDOF 3
