REMARK  Name = ZINCrD000000D0Pp.0
REMARK                            x       y       z     vdW  Elec       q    Type
REMARK                         _______ _______ _______ _____ _____    ______ ____
ROOT
ATOM      1  C   LIG    1       -0.718   1.572   1.248  0.00  0.00    +0.090 A 
ATOM      2  N   LIG    1       -0.473   2.690   1.880  0.00  0.00    -0.250 NA
ATOM      3  N   LIG    1       -1.341   2.773   2.976  0.00  0.00    -0.300 N 
ATOM      4  C   LIG    1       -2.111   1.658   2.982  0.00  0.00    +0.060 A 
ATOM      5  C   LIG    1       -3.222   0.982   3.755  0.00  0.00    +0.120 C 
ATOM      6  C   LIG    1       -3.198  -0.489   3.285  0.00  0.00    +0.060 C 
ATOM      7  C   LIG    1       -2.575  -0.366   1.877  0.00  0.00    +0.120 C 
ATOM      8  C   LIG    1       -1.746   0.900   1.925  0.00  0.00    -0.230 A 
ENDROOT
BRANCH   3   9
ATOM      9  C   LIG    1       -1.398   3.821   3.905  0.00  0.00    +0.140 A 
ATOM     10  C   LIG    1       -2.617   4.200   4.451  0.00  0.00    +0.010 A 
ATOM     11  C   LIG    1       -2.670   5.230   5.370  0.00  0.00    +0.040 A 
ATOM     12  C   LIG    1       -1.512   5.890   5.738  0.00  0.00    +0.010 A 
ATOM     13  C   LIG    1       -0.298   5.518   5.192  0.00  0.00    +0.030 A 
ATOM     14  C   LIG    1       -0.238   4.486   4.277  0.00  0.00    +0.020 A 
ENDBRANCH   3   9
BRANCH   1  15
ATOM     15  C   LIG    1       -0.013   1.086   0.008  0.00  0.00    -0.210 C 
BRANCH  15  17
ATOM     16  O   LIG    1       -2.176   1.083  -1.500  0.00  0.00    -0.920 OA
ATOM     17  S   LIG    1       -0.890   1.687  -1.462  0.00  0.00    +2.420 S 
ATOM     18  O   LIG    1       -0.788   3.103  -1.502  0.00  0.00    -0.920 OA
BRANCH  17  19
ATOM     19  C   LIG    1        0.113   0.996  -2.806  0.00  0.00    -0.320 C 
BRANCH  19  20
ATOM     20  C   LIG    1       -0.486   1.406  -4.152  0.00  0.00    +0.230 C 
BRANCH  20  21
ATOM     21  O   LIG    1        0.304   0.862  -5.211  0.00  0.00    -0.310 OA
BRANCH  21  22
ATOM     22  C   LIG    1       -0.094   1.134  -6.481  0.00  0.00    +0.120 A 
ATOM     23  C   LIG    1       -1.226   1.905  -6.704  0.00  0.00    -0.080 A 
ATOM     24  C   LIG    1       -1.627   2.184  -7.997  0.00  0.00    +0.050 A 
ATOM     25  C   LIG    1       -0.906   1.689  -9.067  0.00  0.00    -0.030 A 
ATOM     26  C   LIG    1        0.220   0.916  -8.848  0.00  0.00    +0.050 A 
ATOM     27  C   LIG    1        0.627   0.637  -7.558  0.00  0.00    -0.020 A 
ENDBRANCH  21  22
ENDBRANCH  20  21
ENDBRANCH  19  20
ENDBRANCH  17  19
ENDBRANCH  15  17
ENDBRANCH   1  15
TORSDOF 7
