REMARK  Name = ZINCtV00000L6jK8.0
REMARK                            x       y       z     vdW  Elec       q    Type
REMARK                         _______ _______ _______ _____ _____    ______ ____
ROOT
ATOM      1  C   LIG    1       -2.252  10.268  -2.342  0.00  0.00    +0.150 C 
ATOM      2  C   LIG    1       -1.431   9.298  -1.532  0.00  0.00    -0.230 A 
ATOM      3  C   LIG    1       -1.691   7.997  -1.399  0.00  0.00    -0.070 A 
ATOM      4  C   LIG    1       -0.799   7.301  -0.601  0.00  0.00    -0.160 A 
ATOM      5  C   LIG    1        0.196   8.043  -0.093  0.00  0.00    +0.050 A 
ATOM      6  C   LIG    1       -2.871   7.335  -2.063  0.00  0.00    +0.100 C 
ATOM      7  S   LIG    1        0.020   9.709  -0.627  0.00  0.00    +0.240 S 
ENDROOT
BRANCH   5   8
ATOM      8  N   LIG    1        1.216   7.565   0.733  0.00  0.00    -0.640 N 
ATOM      9  H   LIG    1        1.195   6.648   1.048  0.00  0.00    +0.410 HD
ATOM     10  C   LIG    1        2.229   8.379   1.092  0.00  0.00    +0.550 C 
ATOM     11  O   LIG    1        2.255   9.528   0.696  0.00  0.00    -0.500 OA
BRANCH  10  12
ATOM     12  C   LIG    1        3.308   7.873   1.966  0.00  0.00    -0.140 A 
ATOM     13  C   LIG    1        3.279   6.556   2.427  0.00  0.00    +0.040 A 
ATOM     14  C   LIG    1        4.291   6.089   3.239  0.00  0.00    +0.010 A 
ATOM     15  C   LIG    1        5.330   6.927   3.605  0.00  0.00    +0.050 A 
ATOM     16  C   LIG    1        5.363   8.235   3.156  0.00  0.00    +0.010 A 
ATOM     17  C   LIG    1        4.359   8.713   2.340  0.00  0.00    +0.090 A 
ENDBRANCH  10  12
ENDBRANCH   5   8
BRANCH   4  18
ATOM     18  C   LIG    1       -0.933   5.825  -0.329  0.00  0.00    +0.400 C 
BRANCH  18  19
ATOM     19  C   LIG    1       -1.449   5.617   1.071  0.00  0.00    -0.190 A 
ATOM     20  C   LIG    1       -2.715   5.346   1.393  0.00  0.00    +0.020 A 
ATOM     21  C   LIG    1       -2.954   5.195   2.748  0.00  0.00    +0.010 A 
ATOM     22  C   LIG    1       -1.881   5.342   3.527  0.00  0.00    -0.030 A 
ATOM     23  S   LIG    1       -0.471   5.685   2.532  0.00  0.00    +0.080 S 
ENDBRANCH  18  19
BRANCH  18  24
ATOM     24  N   LIG    1        0.376   5.182  -0.468  0.00  0.00    -0.730 N 
ATOM     25  H   LIG    1        1.185   5.718  -0.446  0.00  0.00    +0.400 HD
BRANCH  24  26
ATOM     26  C   LIG    1        0.460   3.804  -0.632  0.00  0.00    +0.400 A 
ATOM     27  C   LIG    1       -0.703   3.042  -0.663  0.00  0.00    -0.100 A 
ATOM     28  C   LIG    1       -0.605   1.672  -0.832  0.00  0.00    +0.100 A 
ATOM     29  C   LIG    1        0.658   1.108  -0.954  0.00  0.00    -0.100 A 
ATOM     30  C   LIG    1        1.770   1.925  -0.915  0.00  0.00    +0.310 A 
ATOM     31  N   LIG    1        1.647   3.229  -0.757  0.00  0.00    -0.540 NA
ENDBRANCH  24  26
ENDBRANCH  18  24
ENDBRANCH   4  18
TORSDOF 6
