REMARK  Name = ZINCtV000002uDmk.0
REMARK                            x       y       z     vdW  Elec       q    Type
REMARK                         _______ _______ _______ _____ _____    ______ ____
ROOT
ATOM      1  N   LIG    1       -0.524   1.433  -3.689  0.00  0.00    -0.610 N 
ATOM      2  C   LIG    1       -0.047   1.107  -2.471  0.00  0.00    +0.520 C 
ATOM      3  O   LIG    1        0.949   0.422  -2.373  0.00  0.00    -0.530 OA
ENDROOT
BRANCH   1   4
ATOM      4  C   LIG    1       -1.728   2.259  -3.808  0.00  0.00    +0.270 C 
BRANCH   4   5
ATOM      5  C   LIG    1       -1.330   3.736  -3.850  0.00  0.00    +0.000 C 
BRANCH   5   6
ATOM      6  C   LIG    1       -2.587   4.599  -3.974  0.00  0.00    +0.000 C 
BRANCH   6   8
ATOM      7  C   LIG    1       -3.446   6.939  -4.141  0.00  0.00    +0.000 C 
ATOM      8  C   LIG    1       -2.189   6.076  -4.017  0.00  0.00    +0.000 C 
ENDBRANCH   6   8
ENDBRANCH   5   6
ENDBRANCH   4   5
ENDBRANCH   1   4
BRANCH   2   9
ATOM      9  C   LIG    1       -0.753   1.593  -1.232  0.00  0.00    +0.060 C 
BRANCH   9  10
ATOM     10  C   LIG    1       -0.013   1.086   0.008  0.00  0.00    +0.040 C 
BRANCH  10  11
ATOM     11  C   LIG    1       -0.729   1.579   1.267  0.00  0.00    +0.290 C 
BRANCH  11  12
ATOM     12  N   LIG    1       -0.020   1.094   2.454  0.00  0.00    -0.480 N 
ATOM     13  C   LIG    1       -0.341  -0.038   3.152  0.00  0.00    +0.230 A 
ATOM     14  C   LIG    1        0.508  -0.197   4.180  0.00  0.00    -0.050 A 
ATOM     15  C   LIG    1        1.442   0.931   4.143  0.00  0.00    -0.100 A 
ATOM     16  C   LIG    1        2.525   1.319   4.934  0.00  0.00    +0.070 A 
ATOM     17  C   LIG    1        3.218   2.469   4.623  0.00  0.00    -0.060 A 
ATOM     18  C   LIG    1        2.844   3.239   3.529  0.00  0.00    +0.050 A 
ATOM     19  C   LIG    1        1.778   2.869   2.740  0.00  0.00    +0.020 A 
ATOM     20 CL   LIG    1        4.566   2.956   5.603  0.00  0.00    -0.070 Cl
ATOM     21  C   LIG    1        1.064   1.713   3.036  0.00  0.00    +0.100 A 
ENDBRANCH  11  12
ENDBRANCH  10  11
ENDBRANCH   9  10
ENDBRANCH   2   9
BRANCH   1  22
ATOM     22  C   LIG    1        0.162   0.960  -4.895  0.00  0.00    +0.340 C 
BRANCH  22  23
ATOM     23  C   LIG    1       -0.407  -0.373  -5.306  0.00  0.00    -0.110 A 
ATOM     24  C   LIG    1        0.147  -1.542  -4.819  0.00  0.00    +0.060 A 
ATOM     25  C   LIG    1       -0.377  -2.764  -5.193  0.00  0.00    +0.020 A 
ATOM     26  C   LIG    1       -1.451  -2.819  -6.063  0.00  0.00    -0.030 A 
ATOM     27  C   LIG    1       -2.003  -1.649  -6.555  0.00  0.00    +0.020 A 
ATOM     28 CL   LIG    1       -2.106  -4.355  -6.539  0.00  0.00    -0.070 Cl
ATOM     29  C   LIG    1       -1.481  -0.427  -6.176  0.00  0.00    +0.040 A 
ENDBRANCH  22  23
ENDBRANCH   1  22
TORSDOF 10
