REMARK  Name = ZINCvU0000000AFg.0
REMARK                            x       y       z     vdW  Elec       q    Type
REMARK                         _______ _______ _______ _____ _____    ______ ____
ROOT
ATOM      1  C   LIG    1        1.044   6.298  -0.060  0.00  0.00    +0.070 A 
ATOM      2  C   LIG    1        2.040   5.707   0.753  0.00  0.00    -0.060 A 
ATOM      3  C   LIG    1        2.944   6.461   1.508  0.00  0.00    +0.050 A 
ATOM      4  C   LIG    1        3.878   5.820   2.269  0.00  0.00    +0.050 A 
ATOM      5  C   LIG    1        3.943   4.430   2.305  0.00  0.00    +0.050 A 
ATOM      6  C   LIG    1        3.075   3.667   1.580  0.00  0.00    +0.050 A 
ATOM      7  C   LIG    1        2.103   4.291   0.794  0.00  0.00    -0.050 A 
ATOM      8  C   LIG    1        1.171   3.567   0.009  0.00  0.00    +0.150 A 
ATOM      9  N   LIG    1        0.286   4.235  -0.711  0.00  0.00    -0.240 NA
ATOM     10  N   LIG    1        0.226   5.514  -0.744  0.00  0.00    -0.270 NA
ENDROOT
BRANCH   8  11
ATOM     11  C   LIG    1        1.184   2.087   0.002  0.00  0.00    -0.050 A 
ATOM     12  C   LIG    1        1.317   1.381   1.198  0.00  0.00    +0.030 A 
ATOM     13  C   LIG    1        1.328   0.002   1.185  0.00  0.00    +0.010 A 
ATOM     14  C   LIG    1        1.207  -0.682  -0.012  0.00  0.00    +0.030 A 
ATOM     15  C   LIG    1        1.075   0.011  -1.202  0.00  0.00    +0.010 A 
ATOM     16  C   LIG    1        1.063   1.391  -1.201  0.00  0.00    +0.050 A 
ENDBRANCH   8  11
BRANCH   1  17
ATOM     17  S   LIG    1        0.895   8.051  -0.161  0.00  0.00    +0.040 S 
BRANCH  17  18
ATOM     18  C   LIG    1       -0.499   8.182  -1.308  0.00  0.00    +0.080 C 
BRANCH  18  20
ATOM     19  O   LIG    1       -0.162  10.498  -1.001  0.00  0.00    -0.430 OA
ATOM     20  C   LIG    1       -0.815   9.636  -1.550  0.00  0.00    +0.420 C 
BRANCH  20  21
ATOM     21  C   LIG    1       -1.913  10.008  -2.451  0.00  0.00    -0.160 A 
ATOM     22  C   LIG    1       -2.668   9.015  -3.085  0.00  0.00    +0.090 A 
ATOM     23  C   LIG    1       -3.699   9.365  -3.930  0.00  0.00    +0.020 A 
ATOM     24  C   LIG    1       -3.988  10.705  -4.152  0.00  0.00    +0.100 A 
ATOM     25  O   LIG    1       -5.006  11.055  -4.987  0.00  0.00    -0.320 OA
ATOM     26  C   LIG    1       -6.141  11.664  -4.369  0.00  0.00    +0.230 C 
ATOM     27  C   LIG    1       -5.923  13.159  -4.193  0.00  0.00    -0.010 C 
ATOM     28  C   LIG    1       -4.787  13.470  -3.231  0.00  0.00    +0.230 C 
ATOM     29  O   LIG    1       -3.540  13.010  -3.755  0.00  0.00    -0.320 OA
ATOM     30  C   LIG    1       -3.242  11.698  -3.525  0.00  0.00    +0.050 A 
ATOM     31  C   LIG    1       -2.212  11.360  -2.673  0.00  0.00    +0.100 A 
ENDBRANCH  20  21
ENDBRANCH  18  20
ENDBRANCH  17  18
ENDBRANCH   1  17
TORSDOF 5
