REMARK  Name = ZINCrH000004n7DR.0
REMARK                            x       y       z     vdW  Elec       q    Type
REMARK                         _______ _______ _______ _____ _____    ______ ____
ROOT
ATOM      1  C   LIG    1        1.857   4.714   1.438  0.00  0.00    +0.510 C 
ATOM      2  N   LIG    1        2.657   5.771   1.680  0.00  0.00    -0.680 N 
ATOM      3  H   LIG    1        3.149   6.184   0.953  0.00  0.00    +0.410 HD
ATOM      4  O   LIG    1        1.308   4.146   2.358  0.00  0.00    -0.500 OA
ENDROOT
BRANCH   2   5
ATOM      5  C   LIG    1        2.778   6.273   2.981  0.00  0.00    +0.160 A 
ATOM      6  C   LIG    1        2.744   5.408   4.066  0.00  0.00    +0.010 A 
ATOM      7  C   LIG    1        2.863   5.903   5.351  0.00  0.00    +0.050 A 
ATOM      8  C   LIG    1        3.017   7.260   5.560  0.00  0.00    +0.010 A 
ATOM      9  C   LIG    1        3.052   8.131   4.478  0.00  0.00    +0.160 A 
ATOM     10  C   LIG    1        2.939   7.636   3.187  0.00  0.00    -0.040 A 
BRANCH   9  11
ATOM     11  N   LIG    1        3.208   9.505   4.690  0.00  0.00    -0.670 N 
ATOM     12  H   LIG    1        2.758  10.139   4.110  0.00  0.00    +0.410 HD
ATOM     13  C   LIG    1        3.983   9.948   5.700  0.00  0.00    +0.540 C 
ATOM     14  O   LIG    1        4.478   9.157   6.475  0.00  0.00    -0.520 OA
BRANCH  13  15
ATOM     15  C   LIG    1        4.235  11.424   5.865  0.00  0.00    -0.070 C 
ATOM     16  C   LIG    1        5.652  11.933   5.597  0.00  0.00    +0.060 C 
ATOM     17  C   LIG    1        5.123  11.863   7.031  0.00  0.00    +0.080 C 
ENDBRANCH  13  15
ENDBRANCH   9  11
ENDBRANCH   2   5
BRANCH   1  18
ATOM     18  C   LIG    1        1.645   4.237   0.024  0.00  0.00    +0.140 C 
BRANCH  18  26
ATOM     19  C   LIG    1       -3.036   3.818   0.009  0.00  0.00    +0.100 A 
ATOM     20  C   LIG    1       -3.455   2.490   0.011  0.00  0.00    -0.050 A 
ATOM     21  C   LIG    1       -2.536   1.465   0.018  0.00  0.00    +0.030 A 
ATOM     22  C   LIG    1       -1.175   1.751   0.025  0.00  0.00    +0.070 A 
ATOM     23  N   LIG    1       -0.042   0.965   0.033  0.00  0.00    -0.590 N 
ATOM     24  H   LIG    1       -0.036  -0.005   0.036  0.00  0.00    +0.420 HD
ATOM     25  C   LIG    1        1.073   1.757   0.031  0.00  0.00    +0.250 A 
ATOM     26  C   LIG    1        0.716   3.051   0.028  0.00  0.00    -0.170 A 
ATOM     27  C   LIG    1       -0.749   3.091   0.027  0.00  0.00    -0.050 A 
ATOM     28  C   LIG    1       -1.690   4.123   0.025  0.00  0.00    +0.020 A 
BRANCH  19  30
ATOM     29  C   LIG    1       -5.333   4.433  -0.004  0.00  0.00    +0.230 C 
ATOM     30  O   LIG    1       -3.957   4.818   0.002  0.00  0.00    -0.320 OA
ENDBRANCH  19  30
ENDBRANCH  18  26
ENDBRANCH   1  18
TORSDOF 6
