REMARK  Name = ZINCtj00000vxIdb.1
REMARK                            x       y       z     vdW  Elec       q    Type
REMARK                         _______ _______ _______ _____ _____    ______ ____
ROOT
ATOM      1  C   LIG    1       -2.835   6.110  -3.392  0.00  0.00    +0.160 A 
ATOM      2  C   LIG    1       -4.209   6.211  -3.219  0.00  0.00    +0.060 A 
ATOM      3  C   LIG    1       -4.772   5.921  -1.992  0.00  0.00    +0.050 A 
ATOM      4  C   LIG    1       -3.970   5.529  -0.936  0.00  0.00    +0.020 A 
ATOM      5  C   LIG    1       -2.601   5.428  -1.105  0.00  0.00    -0.140 A 
ATOM      6  C   LIG    1       -2.031   5.722  -2.328  0.00  0.00    +0.000 A 
ENDROOT
BRANCH   1   8
ATOM      7  C   LIG    1       -2.921   6.100  -5.769  0.00  0.00    +0.530 C 
ATOM      8  N   LIG    1       -2.261   6.403  -4.634  0.00  0.00    -0.680 N 
ATOM      9  H   LIG    1       -1.389   6.825  -4.677  0.00  0.00    +0.420 HD
ATOM     10  O   LIG    1       -4.045   5.650  -5.716  0.00  0.00    -0.510 OA
BRANCH   7  19
ATOM     11  C   LIG    1       -3.920   4.890 -11.143  0.00  0.00    +0.350 C 
ATOM     12  N   LIG    1       -2.945   5.926 -10.791  0.00  0.00    -0.360 N 
ATOM     13  N   LIG    1       -2.148   6.652 -11.690  0.00  0.00    -0.270 NA
ATOM     14  C   LIG    1       -1.403   7.487 -11.004  0.00  0.00    +0.200 A 
ATOM     15  C   LIG    1       -1.699   7.322  -9.655  0.00  0.00    +0.040 A 
ATOM     16  N   LIG    1       -1.169   7.987  -8.526  0.00  0.00    -0.740 N 
ATOM     17  H   LIG    1       -0.370   8.534  -8.582  0.00  0.00    +0.410 HD
ATOM     18  C   LIG    1       -1.901   7.801  -7.258  0.00  0.00    +0.290 C 
ATOM     19  C   LIG    1       -2.260   6.320  -7.106  0.00  0.00    -0.010 C 
ATOM     20  C   LIG    1       -3.220   5.896  -8.224  0.00  0.00    +0.160 C 
ATOM     21  C   LIG    1       -2.652   6.352  -9.543  0.00  0.00    +0.000 A 
ENDBRANCH   7  19
ENDBRANCH   1   8
BRANCH   5  22
ATOM     22  C   LIG    1       -1.730   5.001   0.049  0.00  0.00    +0.330 C 
BRANCH  22  23
ATOM     23  N   LIG    1       -1.592   3.539   0.043  0.00  0.00    -0.380 N 
ATOM     24  C   LIG    1       -0.870   3.121  -1.164  0.00  0.00    +0.240 C 
ATOM     25  C   LIG    1       -0.795   1.593  -1.215  0.00  0.00    +0.070 C 
ATOM     26  C   LIG    1       -0.056   1.083   0.025  0.00  0.00    +0.060 C 
ATOM     27  C   LIG    1       -0.774   1.587   1.280  0.00  0.00    -0.010 C 
ATOM     28  C   LIG    1       -0.852   3.114   1.238  0.00  0.00    +0.290 C 
ATOM     29  H   LIG    1       -2.508   3.115   0.050  0.00  0.00    +0.420 HD
BRANCH  27  30
ATOM     30  C   LIG    1       -0.010   1.154   2.505  0.00  0.00    +0.530 C 
ATOM     31  O   LIG    1        0.427   1.985   3.272  0.00  0.00    -0.530 OA
ATOM     32  N   LIG    1        0.188  -0.157   2.748  0.00  0.00    -0.840 N 
ATOM     33  H   LIG    1        0.680  -0.435   3.536  0.00  0.00    +0.420 HD
ATOM     34  H   LIG    1       -0.162  -0.822   2.134  0.00  0.00    +0.410 HD
ENDBRANCH  27  30
ENDBRANCH  22  23
ENDBRANCH   5  22
TORSDOF 5
