REMARK  Name = ZINCtj00000vxIdb.0
REMARK                            x       y       z     vdW  Elec       q    Type
REMARK                         _______ _______ _______ _____ _____    ______ ____
ROOT
ATOM      1  C   LIG    1       -0.052   3.842   0.018  0.00  0.00    +0.160 A 
ATOM      2  C   LIG    1       -1.234   3.134  -0.154  0.00  0.00    +0.060 A 
ATOM      3  C   LIG    1       -1.214   1.753  -0.171  0.00  0.00    +0.050 A 
ATOM      4  C   LIG    1       -0.020   1.076  -0.007  0.00  0.00    +0.010 A 
ATOM      5  C   LIG    1        1.159   1.778   0.164  0.00  0.00    -0.140 A 
ATOM      6  C   LIG    1        1.146   3.159   0.177  0.00  0.00    +0.020 A 
ENDROOT
BRANCH   1   8
ATOM      7  C   LIG    1       -1.131   5.898   0.537  0.00  0.00    +0.530 C 
ATOM      8  N   LIG    1       -0.069   5.242   0.031  0.00  0.00    -0.680 N 
ATOM      9  H   LIG    1        0.684   5.739  -0.325  0.00  0.00    +0.420 HD
ATOM     10  O   LIG    1       -2.030   5.280   1.068  0.00  0.00    -0.500 OA
BRANCH   7  19
ATOM     11  C   LIG    1       -4.886   9.942   1.481  0.00  0.00    +0.360 C 
ATOM     12  N   LIG    1       -3.463  10.270   1.374  0.00  0.00    -0.360 N 
ATOM     13  N   LIG    1       -2.904  11.557   1.427  0.00  0.00    -0.270 NA
ATOM     14  C   LIG    1       -1.602  11.450   1.298  0.00  0.00    +0.200 A 
ATOM     15  C   LIG    1       -1.290  10.101   1.160  0.00  0.00    +0.040 A 
ATOM     16  N   LIG    1       -0.033   9.478   0.996  0.00  0.00    -0.740 N 
ATOM     17  H   LIG    1        0.766   9.983   0.777  0.00  0.00    +0.410 HD
ATOM     18  C   LIG    1       -0.004   8.013   1.176  0.00  0.00    +0.290 C 
ATOM     19  C   LIG    1       -1.203   7.401   0.445  0.00  0.00    -0.010 C 
ATOM     20  C   LIG    1       -2.510   7.888   1.081  0.00  0.00    +0.160 C 
ATOM     21  C   LIG    1       -2.453   9.389   1.206  0.00  0.00    +0.010 A 
ENDBRANCH   7  19
ENDBRANCH   1   8
BRANCH   5  22
ATOM     22  C   LIG    1        2.459   1.036   0.336  0.00  0.00    +0.330 C 
BRANCH  22  23
ATOM     23  N   LIG    1        3.072   0.809  -0.980  0.00  0.00    -0.380 N 
ATOM     24  C   LIG    1        2.214  -0.082  -1.770  0.00  0.00    +0.240 C 
ATOM     25  C   LIG    1        2.806  -0.256  -3.170  0.00  0.00    +0.050 C 
ATOM     26  C   LIG    1        4.207  -0.865  -3.054  0.00  0.00    +0.070 C 
ATOM     27  C   LIG    1        5.071   0.035  -2.166  0.00  0.00    +0.010 C 
ATOM     28  C   LIG    1        4.394   0.197  -0.803  0.00  0.00    +0.290 C 
ATOM     29  H   LIG    1        3.172   1.691  -1.460  0.00  0.00    +0.430 HD
BRANCH  27  30
ATOM     30  C   LIG    1        5.227   1.385  -2.817  0.00  0.00    +0.520 C 
ATOM     31  O   LIG    1        4.839   2.382  -2.246  0.00  0.00    -0.560 OA
ATOM     32  N   LIG    1        5.798   1.484  -4.034  0.00  0.00    -0.830 N 
ATOM     33  H   LIG    1        5.898   2.353  -4.453  0.00  0.00    +0.420 HD
ATOM     34  H   LIG    1        6.108   0.686  -4.491  0.00  0.00    +0.410 HD
ENDBRANCH  27  30
ENDBRANCH  22  23
ENDBRANCH   5  22
TORSDOF 5
