REMARK  Name = ZINCqH0000036izD.0
REMARK                            x       y       z     vdW  Elec       q    Type
REMARK                         _______ _______ _______ _____ _____    ______ ____
ROOT
ATOM      1  C   LIG    1        0.070  -0.174   0.016  0.00  0.00    +0.340 C 
ENDROOT
BRANCH   1   6
ATOM      2  C   LIG    1        1.034  -1.882   3.246  0.00  0.00    +0.130 A 
ATOM      3  C   LIG    1       -0.209  -2.118   3.814  0.00  0.00    -0.070 A 
ATOM      4  C   LIG    1       -1.356  -1.723   3.151  0.00  0.00    +0.060 A 
ATOM      5  C   LIG    1       -1.264  -1.095   1.923  0.00  0.00    -0.030 A 
ATOM      6  C   LIG    1       -0.026  -0.859   1.355  0.00  0.00    -0.050 A 
ATOM      7  C   LIG    1        1.123  -1.256   2.011  0.00  0.00    -0.010 A 
BRANCH   2   9
ATOM      8  C   LIG    1        1.995  -2.912   5.161  0.00  0.00    +0.250 C 
ATOM      9  O   LIG    1        2.163  -2.269   3.896  0.00  0.00    -0.320 OA
ENDBRANCH   2   9
ENDBRANCH   1   6
BRANCH   1  10
ATOM     10  C   LIG    1       -0.087   1.313   0.200  0.00  0.00    -0.090 A 
ATOM     11  C   LIG    1       -1.347   1.862   0.346  0.00  0.00    +0.020 A 
ATOM     12  C   LIG    1       -1.492   3.226   0.519  0.00  0.00    +0.000 A 
ATOM     13  C   LIG    1       -0.376   4.042   0.538  0.00  0.00    +0.000 A 
ATOM     14  C   LIG    1        0.884   3.494   0.387  0.00  0.00    +0.000 A 
ATOM     15  C   LIG    1        1.028   2.129   0.218  0.00  0.00    +0.020 A 
ENDBRANCH   1  10
BRANCH   1  16
ATOM     16  N   LIG    1       -0.989  -0.672  -0.864  0.00  0.00    -0.720 N 
ATOM     17  H   LIG    1       -1.803  -1.039  -0.485  0.00  0.00    +0.400 HD
ATOM     18  C   LIG    1       -0.834  -0.620  -2.202  0.00  0.00    +0.550 C 
ATOM     19  O   LIG    1        0.183  -0.162  -2.677  0.00  0.00    -0.530 OA
BRANCH  18  20
ATOM     20  C   LIG    1       -1.924  -1.133  -3.108  0.00  0.00    -0.060 C 
ATOM     21  C   LIG    1       -1.517  -1.608  -4.505  0.00  0.00    +0.090 C 
ATOM     22  C   LIG    1       -1.925  -2.624  -3.438  0.00  0.00    -0.100 C 
ATOM     23  C   LIG    1       -3.280  -3.322  -3.593  0.00  0.00    +0.040 C 
ATOM     24  C   LIG    1       -3.655  -3.959  -2.250  0.00  0.00    +0.210 C 
ATOM     25  O   LIG    1       -2.590  -4.804  -1.813  0.00  0.00    -0.380 OA
ATOM     26  C   LIG    1       -1.368  -4.119  -1.529  0.00  0.00    +0.220 C 
ATOM     27  C   LIG    1       -0.825  -3.494  -2.819  0.00  0.00    +0.040 C 
ENDBRANCH  18  20
ENDBRANCH   1  16
TORSDOF 5
