REMARK  Name = ZINCqH000003981G.0
REMARK                            x       y       z     vdW  Elec       q    Type
REMARK                         _______ _______ _______ _____ _____    ______ ____
ROOT
ATOM      1  N   LIG    1       -6.088   1.505   0.040  0.00  0.00    -0.670 N 
ATOM      2  H   LIG    1       -6.108   2.472   0.112  0.00  0.00    +0.420 HD
ATOM      3  C   LIG    1       -7.240   0.813  -0.060  0.00  0.00    +0.590 C 
ATOM      4  O   LIG    1       -7.221  -0.403  -0.068  0.00  0.00    -0.500 OA
ENDROOT
BRANCH   3   5
ATOM      5  C   LIG    1       -8.518   1.527  -0.161  0.00  0.00    -0.190 A 
ATOM      6  C   LIG    1       -9.075   1.905  -1.349  0.00  0.00    +0.040 A 
ATOM      7  S   LIG    1      -10.555   2.707  -1.093  0.00  0.00    +0.220 S 
ATOM      8  C   LIG    1      -10.435   2.548   0.651  0.00  0.00    -0.200 A 
ATOM      9  C   LIG    1      -11.460   3.064   1.642  0.00  0.00    +0.120 C 
ATOM     10  C   LIG    1      -11.224   2.385   2.994  0.00  0.00    +0.030 C 
ATOM     11  C   LIG    1       -9.742   2.506   3.361  0.00  0.00    +0.020 C 
ATOM     12  C   LIG    1       -8.919   1.610   2.432  0.00  0.00    +0.110 C 
ATOM     13  C   LIG    1       -9.312   1.906   0.994  0.00  0.00    -0.050 A 
BRANCH   6  14
ATOM     14  N   LIG    1       -8.510   1.666  -2.598  0.00  0.00    -0.380 N 
ATOM     15  C   LIG    1       -7.323   1.029  -2.827  0.00  0.00    +0.160 A 
ATOM     16  C   LIG    1       -7.119   0.988  -4.159  0.00  0.00    -0.030 A 
ATOM     17  C   LIG    1       -8.212   1.629  -4.776  0.00  0.00    -0.020 A 
ATOM     18  C   LIG    1       -9.048   2.035  -3.799  0.00  0.00    +0.150 A 
ENDBRANCH   6  14
ENDBRANCH   3   5
BRANCH   1  23
ATOM     19  C   LIG    1       -3.535  -1.086   0.637  0.00  0.00    -0.120 A 
ATOM     20  C   LIG    1       -2.424  -0.497   0.031  0.00  0.00    +0.030 A 
ATOM     21  C   LIG    1       -2.541   0.739  -0.572  0.00  0.00    +0.030 A 
ATOM     22  C   LIG    1       -3.752   1.404  -0.568  0.00  0.00    +0.020 A 
ATOM     23  C   LIG    1       -4.863   0.829   0.038  0.00  0.00    +0.130 A 
ATOM     24  C   LIG    1       -4.758  -0.415   0.641  0.00  0.00    +0.090 A 
BRANCH  19  28
ATOM     25  N   LIG    1       -2.232  -3.059   1.272  0.00  0.00    -0.850 N 
ATOM     26  H   LIG    1       -2.152  -3.928   1.696  0.00  0.00    +0.410 HD
ATOM     27  H   LIG    1       -1.459  -2.653   0.848  0.00  0.00    +0.400 HD
ATOM     28  C   LIG    1       -3.414  -2.413   1.277  0.00  0.00    +0.560 C 
ATOM     29  O   LIG    1       -4.382  -2.921   1.809  0.00  0.00    -0.530 OA
ENDBRANCH  19  28
ENDBRANCH   1  23
TORSDOF 4
