REMARK  Name = ZINCpk00000y6yG3.0
REMARK                            x       y       z     vdW  Elec       q    Type
REMARK                         _______ _______ _______ _____ _____    ______ ____
ROOT
ATOM      1  C   LIG    1        1.310  -2.116   0.060  0.00  0.00    +0.580 C 
ATOM      2  N   LIG    1        2.503  -2.740   0.007  0.00  0.00    -0.700 N 
ATOM      3  H   LIG    1        3.321  -2.220  -0.022  0.00  0.00    +0.420 HD
ATOM      4  O   LIG    1        0.285  -2.768   0.097  0.00  0.00    -0.520 OA
ENDROOT
BRANCH   2   5
ATOM      5  C   LIG    1        2.564  -4.204  -0.005  0.00  0.00    +0.230 C 
ATOM      6  C   LIG    1        3.917  -4.663   0.544  0.00  0.00    +0.050 C 
ATOM      7  C   LIG    1        3.970  -6.193   0.563  0.00  0.00    +0.060 C 
ATOM      8  C   LIG    1        3.823  -6.722  -0.867  0.00  0.00    +0.220 C 
ATOM      9  N   LIG    1        2.595  -6.168  -1.453  0.00  0.00    -0.610 N 
ATOM     10  C   LIG    1        1.664  -6.979  -1.992  0.00  0.00    +0.510 C 
ATOM     11  O   LIG    1        1.880  -8.169  -2.090  0.00  0.00    -0.520 OA
ATOM     12  C   LIG    1        0.355  -6.409  -2.474  0.00  0.00    +0.110 C 
ATOM     13  C   LIG    1        2.402  -4.711  -1.441  0.00  0.00    +0.290 C 
BRANCH   8  14
ATOM     14  C   LIG    1        3.737  -8.249  -0.845  0.00  0.00    +0.470 C 
ATOM     15  F   LIG    1        2.549  -8.640  -0.219  0.00  0.00    -0.170 F 
ATOM     16  F   LIG    1        4.828  -8.768  -0.141  0.00  0.00    -0.190 F 
ATOM     17  F   LIG    1        3.755  -8.736  -2.157  0.00  0.00    -0.160 F 
ENDBRANCH   8  14
ENDBRANCH   2   5
BRANCH   1  20
ATOM     18  C   LIG    1        2.312   1.412   0.043  0.00  0.00    +0.570 A 
ATOM     19  N   LIG    1        2.364   0.090   0.032  0.00  0.00    -0.560 NA
ATOM     20  C   LIG    1        1.247  -0.633   0.072  0.00  0.00    +0.170 A 
ATOM     21  C   LIG    1        0.018   0.024   0.126  0.00  0.00    -0.070 A 
ATOM     22  C   LIG    1        0.010   1.412   0.135  0.00  0.00    +0.220 A 
ATOM     23  C   LIG    1       -1.293   2.166   0.187  0.00  0.00    +0.160 C 
ATOM     24  N   LIG    1        1.159   2.064   0.093  0.00  0.00    -0.550 NA
BRANCH  18  26
ATOM     25  C   LIG    1        3.457   3.597   0.011  0.00  0.00    +0.300 C 
ATOM     26  N   LIG    1        3.493   2.133  -0.001  0.00  0.00    -0.700 N 
ATOM     27  H   LIG    1        4.343   1.669  -0.038  0.00  0.00    +0.420 HD
ENDBRANCH  18  26
ENDBRANCH   1  20
TORSDOF 4
