REMARK  Name = ZINCfA000000bkWV.1
REMARK                            x       y       z     vdW  Elec       q    Type
REMARK                         _______ _______ _______ _____ _____    ______ ____
ROOT
ATOM      1  C   LIG    1       -1.558   7.467  -3.459  0.00  0.00    +0.030 C 
ATOM      2  C   LIG    1       -0.338   8.091  -2.779  0.00  0.00    +0.010 C 
ATOM      3  C   LIG    1        0.929   7.703  -3.547  0.00  0.00    +0.040 C 
ATOM      4  C   LIG    1        1.106   6.183  -3.486  0.00  0.00    +0.050 C 
ATOM      5  C   LIG    1        1.155   5.739  -2.022  0.00  0.00    +0.250 C 
ATOM      6  N   LIG    1       -0.094   6.115  -1.351  0.00  0.00    -0.380 N 
ATOM      7  H   LIG    1       -0.875   5.706  -1.842  0.00  0.00    +0.420 HD
ATOM      8  C   LIG    1       -0.235   7.577  -1.342  0.00  0.00    +0.260 C 
ENDROOT
BRANCH   6   9
ATOM      9  C   LIG    1       -0.074   5.619   0.032  0.00  0.00    +0.330 C 
BRANCH   9  10
ATOM     10  C   LIG    1       -0.054   4.112   0.024  0.00  0.00    -0.180 A 
ATOM     11  C   LIG    1        1.153   3.438   0.009  0.00  0.00    +0.070 A 
ATOM     12  C   LIG    1        1.173   2.056   0.002  0.00  0.00    +0.000 A 
ATOM     13  C   LIG    1       -0.016   1.347   0.009  0.00  0.00    +0.140 A 
ATOM     14  C   LIG    1       -1.224   2.023   0.019  0.00  0.00    +0.000 A 
ATOM     15  F   LIG    1        0.002  -0.004   0.002  0.00  0.00    -0.120 F 
ATOM     16  C   LIG    1       -1.242   3.405   0.032  0.00  0.00    +0.080 A 
ENDBRANCH   9  10
ENDBRANCH   6   9
TORSDOF 2
