REMARK  Name = ZINCfA000000bkWV.0
REMARK                            x       y       z     vdW  Elec       q    Type
REMARK                         _______ _______ _______ _____ _____    ______ ____
ROOT
ATOM      1  C   LIG    1       -2.866   1.409  -2.460  0.00  0.00    +0.070 C 
ATOM      2  C   LIG    1       -2.130   0.900  -1.219  0.00  0.00    -0.020 C 
ATOM      3  C   LIG    1       -2.890   1.333   0.039  0.00  0.00    +0.030 C 
ATOM      4  C   LIG    1       -2.105   0.887   1.276  0.00  0.00    +0.060 C 
ATOM      5  C   LIG    1       -0.696   1.477   1.217  0.00  0.00    +0.250 C 
ATOM      6  N   LIG    1       -0.012   1.005   0.008  0.00  0.00    -0.380 N 
ATOM      7  H   LIG    1        0.002  -0.004   0.002  0.00  0.00    +0.420 HD
ATOM      8  C   LIG    1       -0.719   1.490  -1.184  0.00  0.00    +0.250 C 
ENDROOT
BRANCH   6   9
ATOM      9  C   LIG    1        1.367   1.512  -0.003  0.00  0.00    +0.330 C 
BRANCH   9  10
ATOM     10  C   LIG    1        2.131   0.914   1.151  0.00  0.00    -0.180 A 
ATOM     11  C   LIG    1        2.154   1.560   2.373  0.00  0.00    +0.070 A 
ATOM     12  C   LIG    1        2.849   1.010   3.433  0.00  0.00    +0.000 A 
ATOM     13  C   LIG    1        3.533  -0.183   3.267  0.00  0.00    +0.140 A 
ATOM     14  C   LIG    1        3.514  -0.826   2.041  0.00  0.00    +0.000 A 
ATOM     15  F   LIG    1        4.218  -0.718   4.301  0.00  0.00    -0.120 F 
ATOM     16  C   LIG    1        2.813  -0.277   0.984  0.00  0.00    +0.080 A 
ENDBRANCH   9  10
ENDBRANCH   6   9
TORSDOF 2
