REMARK  Name = ZINCtj00001yywFB.0
REMARK                            x       y       z     vdW  Elec       q    Type
REMARK                         _______ _______ _______ _____ _____    ______ ____
ROOT
ATOM      1  C   LIG    1       -0.991   5.234   0.486  0.00  0.00    +0.440 A 
ATOM      2  N   LIG    1        0.297   5.018   0.317  0.00  0.00    -0.510 NA
ATOM      3  C   LIG    1        0.556   3.713   0.409  0.00  0.00    +0.340 A 
ATOM      4  C   LIG    1       -0.648   3.062   0.653  0.00  0.00    -0.130 A 
ATOM      5  C   LIG    1       -0.657   1.663   0.789  0.00  0.00    +0.600 A 
ATOM      6  N   LIG    1        0.503   0.983   0.691  0.00  0.00    -0.650 N 
ATOM      7  H   LIG    1        0.501   0.017   0.788  0.00  0.00    +0.440 HD
ATOM      8  C   LIG    1        1.663   1.621   0.456  0.00  0.00    +0.710 A 
ATOM      9  O   LIG    1        2.689   0.975   0.369  0.00  0.00    -0.520 OA
ATOM     10  O   LIG    1       -1.702   1.071   0.997  0.00  0.00    -0.500 OA
ATOM     11  N   LIG    1        1.715   2.959   0.313  0.00  0.00    -0.510 N 
ATOM     12  C   LIG    1        2.998   3.618   0.058  0.00  0.00    +0.350 C 
ATOM     13  N   LIG    1       -1.623   4.050   0.699  0.00  0.00    -0.390 N 
ENDROOT
BRANCH   1  17
ATOM     14  N   LIG    1       -2.141   9.038  -0.668  0.00  0.00    -0.390 N 
ATOM     15  C   LIG    1       -1.332   8.898   0.550  0.00  0.00    +0.290 C 
ATOM     16  C   LIG    1       -0.610   7.549   0.530  0.00  0.00    +0.270 C 
ATOM     17  N   LIG    1       -1.602   6.467   0.453  0.00  0.00    -0.450 N 
ATOM     18  C   LIG    1       -2.437   6.608  -0.749  0.00  0.00    +0.230 C 
ATOM     19  C   LIG    1       -3.143   7.965  -0.718  0.00  0.00    +0.280 C 
ATOM     20  H   LIG    1       -1.543   8.978  -1.478  0.00  0.00    +0.420 HD
BRANCH  14  21
ATOM     21  C   LIG    1       -2.820  10.341  -0.657  0.00  0.00    +0.250 C 
BRANCH  21  23
ATOM     22  C   LIG    1       -4.466  11.794  -1.849  0.00  0.00    +0.060 C 
ATOM     23  C   LIG    1       -3.759  10.437  -1.861  0.00  0.00    +0.030 C 
ENDBRANCH  21  23
ENDBRANCH  14  21
ENDBRANCH   1  17
BRANCH  13  24
ATOM     24  C   LIG    1       -3.056   3.853   0.931  0.00  0.00    +0.380 C 
BRANCH  24  25
ATOM     25  C   LIG    1       -3.324   3.808   2.413  0.00  0.00    -0.130 A 
ATOM     26  C   LIG    1       -3.131   2.632   3.114  0.00  0.00    +0.050 A 
ATOM     27  C   LIG    1       -3.371   2.592   4.475  0.00  0.00    +0.000 A 
ATOM     28  C   LIG    1       -3.814   3.724   5.133  0.00  0.00    +0.030 A 
ATOM     29  C   LIG    1       -4.012   4.898   4.430  0.00  0.00    -0.010 A 
ATOM     30  C   LIG    1       -3.767   4.940   3.071  0.00  0.00    -0.060 A 
ATOM     31  C   LIG    1       -3.983   6.220   2.305  0.00  0.00    +0.090 C 
ENDBRANCH  24  25
ENDBRANCH  13  24
TORSDOF 5
