REMARK  Name = ZINCvU0000000FWo.0
REMARK                            x       y       z     vdW  Elec       q    Type
REMARK                         _______ _______ _______ _____ _____    ______ ____
ROOT
ATOM      1  C   LIG    1        4.031   0.936  -3.314  0.00  0.00    -0.290 A 
ATOM      2  C   LIG    1        4.062   1.172  -1.955  0.00  0.00    +0.300 A 
ATOM      3  N   LIG    1        2.861   0.849  -1.453  0.00  0.00    -0.350 N 
ATOM      4  N   LIG    1        2.029   0.392  -2.479  0.00  0.00    -0.270 NA
ATOM      5  C   LIG    1        2.687   0.432  -3.615  0.00  0.00    +0.180 A 
ENDROOT
BRANCH   5   6
ATOM      6  C   LIG    1        2.172   0.037  -4.949  0.00  0.00    -0.040 A 
ATOM      7  C   LIG    1        2.577   0.729  -6.088  0.00  0.00    +0.090 A 
ATOM      8  C   LIG    1        2.098   0.354  -7.327  0.00  0.00    -0.010 A 
ATOM      9  C   LIG    1        1.209  -0.700  -7.437  0.00  0.00    +0.020 A 
ATOM     10  C   LIG    1        0.799  -1.387  -6.309  0.00  0.00    -0.010 A 
ATOM     11  C   LIG    1        1.276  -1.024  -5.066  0.00  0.00    +0.030 A 
ENDBRANCH   5   6
BRANCH   1  14
ATOM     12  N   LIG    1        6.316   1.621  -3.842  0.00  0.00    -0.670 N 
ATOM     13  H   LIG    1        6.424   1.893  -2.917  0.00  0.00    +0.410 HD
ATOM     14  C   LIG    1        5.129   1.149  -4.272  0.00  0.00    +0.590 C 
ATOM     15  O   LIG    1        4.965   0.898  -5.451  0.00  0.00    -0.510 OA
BRANCH  12  21
ATOM     16  C   LIG    1       10.867   0.165  -9.370  0.00  0.00    +0.230 C 
ATOM     17  C   LIG    1       10.106   0.689  -8.180  0.00  0.00    +0.250 A 
ATOM     18  N   LIG    1        9.023   0.157  -7.699  0.00  0.00    -0.480 NA
ATOM     19  C   LIG    1        8.612   0.890  -6.628  0.00  0.00    +0.050 A 
ATOM     20  C   LIG    1        7.540   0.786  -5.742  0.00  0.00    +0.090 A 
ATOM     21  C   LIG    1        7.394   1.719  -4.731  0.00  0.00    +0.150 A 
ATOM     22  C   LIG    1        8.317   2.752  -4.590  0.00  0.00    +0.020 A 
ATOM     23  C   LIG    1        9.383   2.858  -5.458  0.00  0.00    +0.070 A 
ATOM     24  C   LIG    1        9.539   1.933  -6.479  0.00  0.00    -0.010 A 
ATOM     25  O   LIG    1       10.451   1.771  -7.465  0.00  0.00    -0.210 OA
ENDBRANCH  12  21
ENDBRANCH   1  14
BRANCH   3  26
ATOM     26  C   LIG    1        2.480   0.952  -0.042  0.00  0.00    +0.380 C 
BRANCH  26  27
ATOM     27  C   LIG    1        1.238   1.797   0.083  0.00  0.00    -0.120 A 
ATOM     28  C   LIG    1       -0.009   1.203   0.029  0.00  0.00    +0.050 A 
ATOM     29  C   LIG    1       -1.149   1.978   0.137  0.00  0.00    +0.010 A 
ATOM     30  C   LIG    1       -1.041   3.346   0.310  0.00  0.00    +0.010 A 
ATOM     31  C   LIG    1        0.206   3.939   0.363  0.00  0.00    +0.000 A 
ATOM     32  C   LIG    1        1.346   3.165   0.250  0.00  0.00    +0.020 A 
ENDBRANCH  26  27
ENDBRANCH   3  26
TORSDOF 5
