REMARK  Name = ZINCvU0000000DT9.0
REMARK                            x       y       z     vdW  Elec       q    Type
REMARK                         _______ _______ _______ _____ _____    ______ ____
ROOT
ATOM      1  C   LIG    1       -4.786  -0.667   0.343  0.00  0.00    -0.070 A 
ATOM      2  C   LIG    1       -4.848   0.711   0.247  0.00  0.00    +0.030 A 
ATOM      3  C   LIG    1       -3.688   1.451   0.141  0.00  0.00    +0.080 A 
ATOM      4  C   LIG    1       -2.451   0.806   0.130  0.00  0.00    -0.130 A 
ATOM      5  C   LIG    1       -2.396  -0.586   0.222  0.00  0.00    +0.040 A 
ATOM      6  C   LIG    1       -3.563  -1.314   0.333  0.00  0.00    +0.030 A 
ENDROOT
BRANCH   4   7
ATOM      7  C   LIG    1       -1.204   1.592   0.017  0.00  0.00    +0.560 C 
ATOM      8  N   LIG    1       -0.011   0.966   0.007  0.00  0.00    -0.670 N 
ATOM      9  H   LIG    1        0.028  -0.003   0.007  0.00  0.00    +0.410 HD
ATOM     10  O   LIG    1       -1.256   2.804  -0.067  0.00  0.00    -0.510 OA
BRANCH   8  11
ATOM     11  C   LIG    1        1.171   1.714  -0.007  0.00  0.00    +0.150 A 
ATOM     12  C   LIG    1        1.228   2.912  -0.708  0.00  0.00    +0.040 A 
ATOM     13  C   LIG    1        2.395   3.650  -0.718  0.00  0.00    +0.050 A 
ATOM     14  C   LIG    1        3.510   3.192  -0.038  0.00  0.00    -0.050 A 
ATOM     15  C   LIG    1        3.458   1.996   0.657  0.00  0.00    +0.050 A 
ATOM     16 CL   LIG    1        4.978   4.119  -0.057  0.00  0.00    -0.070 Cl
ATOM     17  C   LIG    1        2.292   1.256   0.673  0.00  0.00    +0.010 A 
ENDBRANCH   8  11
ENDBRANCH   4   7
BRANCH   1  18
ATOM     18  C   LIG    1       -6.057  -1.469   0.459  0.00  0.00    +0.320 C 
BRANCH  18  19
ATOM     19  N   LIG    1       -6.532  -1.828  -0.879  0.00  0.00    -1.110 NA
ATOM     20  H   LIG    1       -6.173  -1.376  -1.659  0.00  0.00    +0.420 HD
BRANCH  19  21
ATOM     21  S   LIG    1       -7.682  -3.006  -1.062  0.00  0.00    +2.700 S 
ATOM     22  O   LIG    1       -7.250  -4.113  -0.282  0.00  0.00    -0.950 OA
ATOM     23  O   LIG    1       -7.949  -3.093  -2.455  0.00  0.00    -0.950 OA
BRANCH  21  27
ATOM     24  C   LIG    1      -11.479  -1.484   0.876  0.00  0.00    -0.010 A 
ATOM     25  C   LIG    1      -11.234  -1.228  -0.460  0.00  0.00    -0.010 A 
ATOM     26  C   LIG    1      -10.075  -1.692  -1.052  0.00  0.00    +0.130 A 
ATOM     27  C   LIG    1       -9.160  -2.413  -0.307  0.00  0.00    -0.680 A 
ATOM     28  C   LIG    1       -9.407  -2.674   1.027  0.00  0.00    +0.120 A 
ATOM     29  C   LIG    1      -10.564  -2.204   1.620  0.00  0.00    +0.000 A 
BRANCH  24  31
ATOM     30  C   LIG    1      -13.956  -1.573   0.802  0.00  0.00    +0.040 C 
ATOM     31  C   LIG    1      -12.744  -0.978   1.521  0.00  0.00    -0.040 C 
ATOM     32  C   LIG    1      -12.791   0.549   1.422  0.00  0.00    +0.040 C 
ATOM     33  C   LIG    1      -12.768  -1.395   2.992  0.00  0.00    +0.030 C 
ENDBRANCH  24  31
ENDBRANCH  21  27
ENDBRANCH  19  21
ENDBRANCH  18  19
ENDBRANCH   1  18
TORSDOF 7
