REMARK  Name = ZINCbw0000000HkV.0
REMARK                            x       y       z     vdW  Elec       q    Type
REMARK                         _______ _______ _______ _____ _____    ______ ____
ROOT
ATOM      1  C   LIG    1        2.797  -1.918   4.684  0.00  0.00    +0.090 C 
ATOM      2  C   LIG    1        2.068  -1.419   3.462  0.00  0.00    -0.080 A 
ATOM      3  C   LIG    1        0.747  -1.770   3.255  0.00  0.00    +0.010 A 
ATOM      4  C   LIG    1        0.079  -1.312   2.135  0.00  0.00    +0.030 A 
ATOM      5  C   LIG    1        0.731  -0.503   1.223  0.00  0.00    -0.100 A 
ATOM      6  C   LIG    1        2.053  -0.157   1.428  0.00  0.00    +0.020 A 
ATOM      7  C   LIG    1        2.721  -0.612   2.550  0.00  0.00    +0.000 A 
ENDROOT
BRANCH   5   8
ATOM      8  C   LIG    1        0.002  -0.004   0.002  0.00  0.00    +0.170 C 
ATOM      9  C   LIG    1       -0.019   1.526   0.010  0.00  0.00    +0.080 C 
BRANCH   8  10
ATOM     10  C   LIG    1        0.691  -0.479  -1.209  0.00  0.00    +0.210 C 
ATOM     11  N   LIG    1        1.223  -0.845  -2.144  0.00  0.00    -0.430 NA
ENDBRANCH   8  10
ENDBRANCH   5   8
TORSDOF 2
