REMARK  Name = ZINCpk000000otrG.0
REMARK                            x       y       z     vdW  Elec       q    Type
REMARK                         _______ _______ _______ _____ _____    ______ ____
ROOT
ATOM      1  C   LIG    1        0.162   0.960  -4.895  0.00  0.00    +0.320 C 
ENDROOT
BRANCH   1   2
ATOM      2  N   LIG    1       -0.547   1.445  -6.082  0.00  0.00    -0.740 N 
ATOM      3  H   LIG    1       -1.342   1.992  -5.982  0.00  0.00    +0.410 HD
ATOM      4  C   LIG    1       -0.093   1.133  -7.312  0.00  0.00    +0.710 C 
ATOM      5  N   LIG    1       -0.745   1.579  -8.403  0.00  0.00    -0.740 N 
ATOM      6  H   LIG    1       -1.541   2.126  -8.304  0.00  0.00    +0.400 HD
ATOM      7  O   LIG    1        0.903   0.448  -7.436  0.00  0.00    -0.590 OA
BRANCH   5   8
ATOM      8  C   LIG    1       -0.253   1.239  -9.741  0.00  0.00    +0.340 C 
BRANCH   8   9
ATOM      9  C   LIG    1       -1.153   1.856 -10.780  0.00  0.00    -0.120 A 
ATOM     10  C   LIG    1       -2.241   1.150 -11.259  0.00  0.00    +0.070 A 
ATOM     11  C   LIG    1       -3.070   1.717 -12.207  0.00  0.00    -0.020 A 
ATOM     12  C   LIG    1       -2.805   2.989 -12.687  0.00  0.00    +0.110 A 
ATOM     13  C   LIG    1       -1.713   3.693 -12.210  0.00  0.00    -0.020 A 
ATOM     14  F   LIG    1       -3.612   3.542 -13.618  0.00  0.00    -0.140 F 
ATOM     15  C   LIG    1       -0.888   3.126 -11.257  0.00  0.00    +0.070 A 
ENDBRANCH   8   9
ENDBRANCH   5   8
ENDBRANCH   1   2
BRANCH   1  18
ATOM     16  N   LIG    1       -0.067   1.120  -2.437  0.00  0.00    -0.710 N 
ATOM     17  H   LIG    1        0.730   0.573  -2.358  0.00  0.00    +0.410 HD
ATOM     18  C   LIG    1       -0.543   1.446  -3.655  0.00  0.00    +0.520 C 
ATOM     19  O   LIG    1       -1.540   2.130  -3.753  0.00  0.00    -0.530 OA
BRANCH  16  20
ATOM     20  C   LIG    1       -0.753   1.593  -1.232  0.00  0.00    +0.190 C 
ATOM     21  C   LIG    1       -2.188   1.063  -1.221  0.00  0.00    +0.070 C 
BRANCH  20  22
ATOM     22  C   LIG    1       -0.773   3.099  -1.223  0.00  0.00    +0.470 C 
ATOM     23  O   LIG    1       -1.725   3.688  -0.769  0.00  0.00    -0.490 OA
BRANCH  22  24
ATOM     24  O   LIG    1        0.267   3.788  -1.721  0.00  0.00    -0.350 OA
ATOM     25  C   LIG    1        0.178   5.236  -1.680  0.00  0.00    +0.260 C 
ENDBRANCH  22  24
ENDBRANCH  20  22
BRANCH  20  26
ATOM     26  C   LIG    1       -0.013   1.086   0.008  0.00  0.00    +0.050 C 
BRANCH  26  28
ATOM     27  C   LIG    1        0.011   1.072   2.506  0.00  0.00    +0.030 C 
ATOM     28  C   LIG    1       -0.729   1.579   1.267  0.00  0.00    +0.010 C 
ENDBRANCH  26  28
ENDBRANCH  20  26
ENDBRANCH  16  20
ENDBRANCH   1  18
TORSDOF 9
