REMARK  Name = ZINCvU0000000Ipm.0
REMARK                            x       y       z     vdW  Elec       q    Type
REMARK                         _______ _______ _______ _____ _____    ______ ____
ROOT
ATOM      1  C   LIG    1        3.302   3.308  -0.122  0.00  0.00    +0.300 C 
ENDROOT
BRANCH   1   3
ATOM      2  C   LIG    1        5.171   2.433  -1.530  0.00  0.00    +0.050 C 
ATOM      3  C   LIG    1        3.825   3.160  -1.552  0.00  0.00    -0.020 C 
ATOM      4  C   LIG    1        2.824   2.353  -2.380  0.00  0.00    +0.040 C 
ENDBRANCH   1   3
BRANCH   1   5
ATOM      5  C   LIG    1        4.217   4.217   0.657  0.00  0.00    +0.440 C 
ATOM      6  O   LIG    1        3.788   5.239   1.137  0.00  0.00    -0.480 OA
BRANCH   5   7
ATOM      7  O   LIG    1        5.510   3.892   0.816  0.00  0.00    -0.320 OA
BRANCH   7   8
ATOM      8  C   LIG    1        6.332   4.815   1.577  0.00  0.00    +0.270 C 
BRANCH   8   9
ATOM      9  C   LIG    1        7.742   4.287   1.651  0.00  0.00    +0.520 C 
ATOM     10  N   LIG    1        8.688   4.983   2.313  0.00  0.00    -0.670 N 
ATOM     11  H   LIG    1        8.446   5.781   2.808  0.00  0.00    +0.420 HD
ATOM     12  O   LIG    1        8.025   3.237   1.115  0.00  0.00    -0.490 OA
BRANCH  10  13
ATOM     13  C   LIG    1       10.021   4.553   2.285  0.00  0.00    +0.150 A 
ATOM     14  C   LIG    1       10.535   3.956   1.142  0.00  0.00    +0.060 A 
ATOM     15  C   LIG    1       11.850   3.534   1.115  0.00  0.00    +0.030 A 
ATOM     16  C   LIG    1       12.655   3.704   2.228  0.00  0.00    +0.100 A 
ATOM     17  C   LIG    1       12.145   4.300   3.371  0.00  0.00    -0.060 A 
ATOM     18 CL   LIG    1       13.157   4.513   4.765  0.00  0.00    -0.040 Cl
ATOM     19  F   LIG    1       13.941   3.289   2.201  0.00  0.00    -0.120 F 
ATOM     20  C   LIG    1       10.831   4.729   3.399  0.00  0.00    +0.040 A 
ENDBRANCH  10  13
ENDBRANCH   8   9
ENDBRANCH   7   8
ENDBRANCH   5   7
ENDBRANCH   1   5
BRANCH   1  21
ATOM     21  N   LIG    1        1.954   3.881  -0.152  0.00  0.00    -0.710 N 
ATOM     22  H   LIG    1        1.651   4.367  -0.935  0.00  0.00    +0.410 HD
BRANCH  21  23
ATOM     23  C   LIG    1        1.105   3.728   0.948  0.00  0.00    +0.260 A 
ATOM     24  C   LIG    1        1.497   2.946   2.026  0.00  0.00    -0.050 A 
ATOM     25  C   LIG    1        0.655   2.797   3.111  0.00  0.00    +0.130 A 
ATOM     26  C   LIG    1       -0.579   3.421   3.123  0.00  0.00    -0.230 A 
ATOM     27  C   LIG    1       -0.971   4.205   2.053  0.00  0.00    +0.140 A 
ATOM     28  C   LIG    1       -0.134   4.359   0.964  0.00  0.00    -0.110 A 
ATOM     29 CL   LIG    1       -0.630   5.337  -0.382  0.00  0.00    -0.050 Cl
BRANCH  26  30
ATOM     30  C   LIG    1       -1.496   3.251   4.306  0.00  0.00    +0.520 C 
ATOM     31  F   LIG    1       -1.275   2.000   4.892  0.00  0.00    -0.180 F 
ATOM     32  F   LIG    1       -2.827   3.337   3.881  0.00  0.00    -0.180 F 
ATOM     33  F   LIG    1       -1.240   4.257   5.243  0.00  0.00    -0.180 F 
ENDBRANCH  26  30
ENDBRANCH  21  23
ENDBRANCH   1  21
TORSDOF 9
