REMARK  Name = ZINCpe000000WsYc.0
REMARK                            x       y       z     vdW  Elec       q    Type
REMARK                         _______ _______ _______ _____ _____    ______ ____
ROOT
ATOM      1  C   LIG    1       -0.010   1.385  -0.004  0.00  0.00    +0.150 A 
ATOM      2  C   LIG    1        1.184   2.087  -0.022  0.00  0.00    -0.070 A 
ATOM      3  C   LIG    1        2.387   1.404  -0.044  0.00  0.00    +0.140 A 
ATOM      4  C   LIG    1        2.402   0.022  -0.048  0.00  0.00    -0.700 A 
ATOM      5  C   LIG    1        1.214  -0.685  -0.030  0.00  0.00    +0.170 A 
ATOM      6  C   LIG    1        0.004  -0.008  -0.008  0.00  0.00    +0.110 A 
ENDROOT
BRANCH   6   7
ATOM      7  N   LIG    1       -1.201  -0.723   0.009  0.00  0.00    -0.670 N 
ATOM      8  H   LIG    1       -2.012  -0.314  -0.329  0.00  0.00    +0.420 HD
ATOM      9  C   LIG    1       -1.232  -1.980   0.496  0.00  0.00    +0.510 C 
ATOM     10  O   LIG    1       -0.242  -2.455   1.010  0.00  0.00    -0.510 OA
ATOM     11  C   LIG    1       -2.497  -2.793   0.401  0.00  0.00    +0.110 C 
ENDBRANCH   6   7
BRANCH   4  12
ATOM     12  S   LIG    1        3.938  -0.840  -0.075  0.00  0.00    +2.690 S 
ATOM     13  O   LIG    1        3.686  -2.128   0.469  0.00  0.00    -0.940 OA
ATOM     14  O   LIG    1        4.909   0.052   0.456  0.00  0.00    -0.950 OA
BRANCH  12  15
ATOM     15  N   LIG    1        4.340  -1.075  -1.665  0.00  0.00    -1.000 NA
ATOM     16  C   LIG    1        5.138  -0.073  -2.375  0.00  0.00    +0.290 C 
BRANCH  15  17
ATOM     17  C   LIG    1        3.896  -2.286  -2.361  0.00  0.00    +0.290 C 
BRANCH  17  18
ATOM     18  C   LIG    1        2.595  -1.995  -3.111  0.00  0.00    +0.270 C 
BRANCH  18  19
ATOM     19  N   LIG    1        2.152  -3.206  -3.807  0.00  0.00    -0.620 N 
ATOM     20  C   LIG    1        2.534  -3.559  -5.180  0.00  0.00    +0.250 C 
ATOM     21  C   LIG    1        2.215  -5.066  -5.319  0.00  0.00    +0.040 C 
ATOM     22  C   LIG    1        1.098  -5.249  -4.266  0.00  0.00    +0.040 C 
ATOM     23  C   LIG    1        1.338  -4.133  -3.273  0.00  0.00    +0.510 C 
ATOM     24  O   LIG    1        0.865  -4.082  -2.157  0.00  0.00    -0.520 OA
ENDBRANCH  18  19
ENDBRANCH  17  18
ENDBRANCH  15  17
ENDBRANCH  12  15
ENDBRANCH   4  12
BRANCH   1  26
ATOM     25  C   LIG    1       -1.131   3.482   0.015  0.00  0.00    +0.250 C 
ATOM     26  O   LIG    1       -1.193   2.055   0.012  0.00  0.00    -0.310 OA
ENDBRANCH   1  26
TORSDOF 7
