REMARK  Name = ZINCkj00000xntSd.1
REMARK                            x       y       z     vdW  Elec       q    Type
REMARK                         _______ _______ _______ _____ _____    ______ ____
ROOT
ATOM      1  C   LIG    1       -0.731   3.886   1.281  0.00  0.00    +0.330 C 
ATOM      2  N   LIG    1       -0.050   2.587   1.373  0.00  0.00    -0.380 N 
ATOM      3  C   LIG    1       -1.025   1.550   1.733  0.00  0.00    +0.270 C 
ATOM      4  C   LIG    1       -0.322   0.227   1.905  0.00  0.00    +0.090 C 
ATOM      5  C   LIG    1        0.402  -0.172   0.620  0.00  0.00    +0.160 C 
ATOM      6  O   LIG    1       -0.553  -0.413  -0.414  0.00  0.00    -0.370 OA
ATOM      7  C   LIG    1        0.020  -0.861  -1.645  0.00  0.00    +0.230 C 
ATOM      8  C   LIG    1        0.953   0.225  -2.194  0.00  0.00    +0.280 C 
ATOM      9  N   LIG    1        1.898   0.608  -1.133  0.00  0.00    -0.600 N 
ATOM     10  C   LIG    1        3.225   0.640  -1.363  0.00  0.00    +0.580 C 
ATOM     11  O   LIG    1        3.983   1.031  -0.497  0.00  0.00    -0.490 OA
ATOM     12  C   LIG    1        1.347   0.955   0.188  0.00  0.00    +0.230 C 
ATOM     13  C   LIG    1        0.561   2.263   0.079  0.00  0.00    +0.250 C 
ATOM     14  H   LIG    1        0.668   2.634   2.081  0.00  0.00    +0.430 HD
ENDROOT
BRANCH  10  15
ATOM     15  C   LIG    1        3.761   0.199  -2.672  0.00  0.00    +0.100 A 
ATOM     16  N   LIG    1        3.111   0.507  -3.787  0.00  0.00    -0.450 NA
ATOM     17  C   LIG    1        3.553   0.136  -4.969  0.00  0.00    +0.290 A 
ATOM     18  C   LIG    1        4.723  -0.597  -5.094  0.00  0.00    +0.030 A 
ATOM     19  C   LIG    1        5.434  -0.940  -3.956  0.00  0.00    +0.110 A 
ATOM     20  C   LIG    1        4.948  -0.530  -2.723  0.00  0.00    -0.100 A 
ATOM     21 BR   LIG    1        5.878  -0.961  -1.133  0.00  0.00    +0.000 Br
ENDBRANCH  10  15
TORSDOF 1
