REMARK  Name = ZINCkj00000xntSd.0
REMARK                            x       y       z     vdW  Elec       q    Type
REMARK                         _______ _______ _______ _____ _____    ______ ____
ROOT
ATOM      1  C   LIG    1       -1.829   3.297  -0.571  0.00  0.00    +0.310 C 
ATOM      2  N   LIG    1       -1.767   1.838  -0.728  0.00  0.00    -0.370 N 
ATOM      3  C   LIG    1       -3.094   1.262  -0.474  0.00  0.00    +0.270 C 
ATOM      4  C   LIG    1       -3.571   1.681   0.918  0.00  0.00    +0.090 C 
ATOM      5  C   LIG    1       -2.584   1.177   1.970  0.00  0.00    +0.150 C 
ATOM      6  O   LIG    1       -2.564  -0.251   1.977  0.00  0.00    -0.370 OA
ATOM      7  C   LIG    1       -1.721  -0.818   2.983  0.00  0.00    +0.240 C 
ATOM      8  C   LIG    1       -0.271  -0.390   2.729  0.00  0.00    +0.270 C 
ATOM      9  N   LIG    1       -0.235   1.075   2.594  0.00  0.00    -0.600 N 
ATOM     10  C   LIG    1        0.636   1.818   3.306  0.00  0.00    +0.570 C 
ATOM     11  O   LIG    1        1.292   1.304   4.190  0.00  0.00    -0.470 OA
ATOM     12  C   LIG    1       -1.180   1.695   1.649  0.00  0.00    +0.240 C 
ATOM     13  C   LIG    1       -0.798   1.286   0.225  0.00  0.00    +0.250 C 
ATOM     14  H   LIG    1       -1.479   1.613  -1.669  0.00  0.00    +0.430 HD
ENDROOT
BRANCH  10  15
ATOM     15  C   LIG    1        0.791   3.261   3.012  0.00  0.00    +0.100 A 
ATOM     16  N   LIG    1        0.180   3.788   1.958  0.00  0.00    -0.470 NA
ATOM     17  C   LIG    1        0.292   5.064   1.662  0.00  0.00    +0.270 A 
ATOM     18  C   LIG    1        1.059   5.913   2.445  0.00  0.00    +0.030 A 
ATOM     19  C   LIG    1        1.715   5.405   3.555  0.00  0.00    +0.120 A 
ATOM     20  C   LIG    1        1.575   4.056   3.848  0.00  0.00    -0.090 A 
ATOM     21 BR   LIG    1        2.439   3.306   5.353  0.00  0.00    +0.030 Br
ENDBRANCH  10  15
TORSDOF 1
