REMARK  Name = ZINCrH00000No4zR.0
REMARK                            x       y       z     vdW  Elec       q    Type
REMARK                         _______ _______ _______ _____ _____    ______ ____
ROOT
ATOM      1  C   LIG    1        1.084   3.647  -0.023  0.00  0.00    +0.250 C 
ENDROOT
BRANCH   1   4
ATOM      2  C   LIG    1        2.921   0.365  -0.383  0.00  0.00    +0.110 A 
ATOM      3  C   LIG    1        2.665   1.720  -0.250  0.00  0.00    +0.000 A 
ATOM      4  C   LIG    1        1.361   2.172  -0.166  0.00  0.00    -0.120 A 
ATOM      5  C   LIG    1        0.310   1.276  -0.214  0.00  0.00    +0.000 A 
ATOM      6  C   LIG    1        0.559  -0.078  -0.346  0.00  0.00    -0.020 A 
ATOM      7  C   LIG    1        1.863  -0.538  -0.431  0.00  0.00    +0.120 A 
BRANCH   2   9
ATOM      8  C   LIG    1        5.237   0.902  -0.408  0.00  0.00    +0.250 C 
ATOM      9  O   LIG    1        4.202  -0.082  -0.465  0.00  0.00    -0.300 OA
ENDBRANCH   2   9
BRANCH   7  10
ATOM     10  O   LIG    1        2.109  -1.869  -0.561  0.00  0.00    -0.300 OA
BRANCH  10  11
ATOM     11  C   LIG    1        0.975  -2.738  -0.604  0.00  0.00    +0.190 C 
BRANCH  11  12
ATOM     12  C   LIG    1        1.446  -4.186  -0.752  0.00  0.00    -0.010 C 
ATOM     13  C   LIG    1        0.233  -5.102  -0.923  0.00  0.00    +0.040 C 
ATOM     14  C   LIG    1        2.225  -4.599   0.498  0.00  0.00    +0.020 C 
ENDBRANCH  11  12
ENDBRANCH  10  11
ENDBRANCH   7  10
ENDBRANCH   1   4
BRANCH   1  15
ATOM     15  N   LIG    1       -0.077   4.010  -0.847  0.00  0.00    -0.500 N 
ATOM     16  H   LIG    1       -0.307   4.981  -0.695  0.00  0.00    +0.440 HD
ATOM     17  H   LIG    1       -0.864   3.433  -0.591  0.00  0.00    +0.410 HD
BRANCH  15  18
ATOM     18  C   LIG    1        0.244   3.799  -2.265  0.00  0.00    +0.320 C 
BRANCH  18  19
ATOM     19  C   LIG    1       -0.899   4.289  -3.116  0.00  0.00    -0.210 A 
ATOM     20  C   LIG    1       -1.820   3.393  -3.637  0.00  0.00    +0.100 A 
ATOM     21  C   LIG    1       -2.856   3.888  -4.415  0.00  0.00    -0.030 A 
ATOM     22  C   LIG    1       -2.934   5.249  -4.643  0.00  0.00    +0.300 A 
ATOM     23  N   LIG    1       -2.040   6.072  -4.132  0.00  0.00    -0.480 NA
ATOM     24  C   LIG    1       -1.045   5.637  -3.384  0.00  0.00    +0.170 A 
ATOM     25  C   LIG    1       -0.053   6.620  -2.818  0.00  0.00    +0.130 C 
ENDBRANCH  18  19
ENDBRANCH  15  18
ENDBRANCH   1  15
BRANCH   1  26
ATOM     26  C   LIG    1        0.790   3.970   1.443  0.00  0.00    -0.020 C 
BRANCH  26  27
ATOM     27  C   LIG    1        0.663   5.463   1.613  0.00  0.00    +0.480 C 
ATOM     28  O   LIG    1        0.316   5.927   2.685  0.00  0.00    -0.660 OA
ATOM     29  O   LIG    1        0.908   6.205   0.677  0.00  0.00    -0.700 OA
ENDBRANCH  26  27
ENDBRANCH   1  26
TORSDOF 10
