REMARK  Name = ZINCrH000004mFbT.0
REMARK                            x       y       z     vdW  Elec       q    Type
REMARK                         _______ _______ _______ _____ _____    ______ ____
ROOT
ATOM      1  N   LIG    1       -0.229   0.009  -0.725  0.00  0.00    -0.740 N 
ATOM      2  H   LIG    1       -0.873  -0.496  -0.204  0.00  0.00    +0.400 HD
ATOM      3  C   LIG    1       -0.262   1.357  -0.713  0.00  0.00    +0.700 C 
ATOM      4  N   LIG    1       -1.192   2.002   0.019  0.00  0.00    -0.690 N 
ATOM      5  H   LIG    1       -1.884   1.498   0.476  0.00  0.00    +0.410 HD
ATOM      6  O   LIG    1        0.544   1.990  -1.366  0.00  0.00    -0.570 OA
ENDROOT
BRANCH   4   7
ATOM      7  C   LIG    1       -1.160   3.397   0.119  0.00  0.00    +0.160 A 
ATOM      8  C   LIG    1        0.056   4.067   0.115  0.00  0.00    +0.030 A 
ATOM      9  C   LIG    1        0.084   5.445   0.208  0.00  0.00    +0.030 A 
ATOM     10  C   LIG    1       -1.096   6.156   0.316  0.00  0.00    +0.020 A 
ATOM     11  C   LIG    1       -2.309   5.491   0.327  0.00  0.00    -0.070 A 
ATOM     12  C   LIG    1       -2.344   4.114   0.228  0.00  0.00    +0.000 A 
BRANCH  11  13
ATOM     13  C   LIG    1       -3.593   6.271   0.446  0.00  0.00    +0.220 C 
BRANCH  13  14
ATOM     14  O   LIG    1       -3.934   6.419   1.825  0.00  0.00    -0.380 OA
BRANCH  14  15
ATOM     15  C   LIG    1       -5.143   7.148   2.050  0.00  0.00    +0.290 C 
BRANCH  15  16
ATOM     16  C   LIG    1       -5.404   7.243   3.532  0.00  0.00    -0.020 A 
ATOM     17  C   LIG    1       -4.967   8.220   4.346  0.00  0.00    -0.030 A 
ATOM     18  C   LIG    1       -5.441   7.916   5.643  0.00  0.00    -0.070 A 
ATOM     19  C   LIG    1       -6.133   6.766   5.545  0.00  0.00    +0.180 A 
ATOM     20  O   LIG    1       -6.106   6.363   4.264  0.00  0.00    -0.170 OA
ENDBRANCH  15  16
ENDBRANCH  14  15
ENDBRANCH  13  14
ENDBRANCH  11  13
ENDBRANCH   4   7
BRANCH   1  21
ATOM     21  C   LIG    1        0.778  -0.692  -1.525  0.00  0.00    +0.350 C 
BRANCH  21  25
ATOM     22  C   LIG    1        0.330  -4.865  -1.015  0.00  0.00    +0.330 A 
ATOM     23  C   LIG    1       -0.368  -4.248  -2.045  0.00  0.00    -0.040 A 
ATOM     24  C   LIG    1       -0.232  -2.882  -2.226  0.00  0.00    +0.120 A 
ATOM     25  C   LIG    1        0.600  -2.180  -1.366  0.00  0.00    -0.210 A 
ATOM     26  C   LIG    1        1.267  -2.860  -0.366  0.00  0.00    +0.320 A 
ATOM     27  N   LIG    1        1.113  -4.161  -0.215  0.00  0.00    -0.540 NA
BRANCH  22  29
ATOM     28  C   LIG    1        0.948  -6.779   0.250  0.00  0.00    +0.260 C 
ATOM     29  O   LIG    1        0.205  -6.203  -0.827  0.00  0.00    -0.310 OA
ENDBRANCH  22  29
ENDBRANCH  21  25
ENDBRANCH   1  21
TORSDOF 8
