REMARK  Name = ZINCrD000000BHLF.0
REMARK                            x       y       z     vdW  Elec       q    Type
REMARK                         _______ _______ _______ _____ _____    ______ ____
ROOT
ATOM      1  O   LIG    1       -7.079   4.313  -1.879  0.00  0.00    -0.580 OA
ATOM      2  C   LIG    1       -6.783   3.137  -1.966  0.00  0.00    +0.710 C 
ATOM      3  N   LIG    1       -7.657   2.260  -2.497  0.00  0.00    -0.630 N 
ATOM      4  C   LIG    1       -8.930   2.723  -3.066  0.00  0.00    +0.310 C 
ATOM      5  C   LIG    1      -10.076   1.949  -2.416  0.00  0.00    +0.030 C 
ATOM      6  C   LIG    1       -9.827   0.447  -2.571  0.00  0.00    +0.240 C 
ATOM      7  C   LIG    1       -8.524   0.069  -1.863  0.00  0.00    +0.030 C 
ATOM      8  C   LIG    1       -7.358   0.821  -2.512  0.00  0.00    +0.290 C 
ATOM      9  N   LIG    1       -5.580   2.711  -1.532  0.00  0.00    -0.740 N 
ATOM     10  H   LIG    1       -5.315   1.788  -1.667  0.00  0.00    +0.400 HD
ENDROOT
BRANCH   6  11
ATOM     11  N   LIG    1      -10.940  -0.296  -1.974  0.00  0.00    -0.460 N 
ATOM     12  C   LIG    1      -11.772  -1.171  -2.620  0.00  0.00    +0.110 A 
ATOM     13  C   LIG    1      -12.648  -1.624  -1.704  0.00  0.00    +0.140 A 
ATOM     14  N   LIG    1      -12.360  -1.042  -0.530  0.00  0.00    -0.490 NA
ATOM     15  C   LIG    1      -11.334  -0.250  -0.684  0.00  0.00    +0.380 A 
ENDBRANCH   6  11
BRANCH   9  16
ATOM     16  C   LIG    1       -4.673   3.643  -0.858  0.00  0.00    +0.270 C 
ATOM     17  C   LIG    1       -3.804   4.416  -1.885  0.00  0.00    +0.020 C 
ATOM     18  C   LIG    1       -2.542   4.774  -1.073  0.00  0.00    +0.220 C 
ATOM     19  N   LIG    1       -2.458   3.820   0.048  0.00  0.00    -0.470 N 
ATOM     20  C   LIG    1       -3.595   2.880  -0.048  0.00  0.00    +0.200 C 
BRANCH  19  21
ATOM     21  C   LIG    1       -1.240   3.137   0.035  0.00  0.00    +0.150 A 
ATOM     22  C   LIG    1       -0.082   3.787  -0.369  0.00  0.00    -0.020 A 
ATOM     23  C   LIG    1        1.122   3.108  -0.387  0.00  0.00    +0.100 A 
ATOM     24  C   LIG    1        1.176   1.784   0.008  0.00  0.00    -0.110 A 
ATOM     25  C   LIG    1        0.023   1.133   0.418  0.00  0.00    +0.140 A 
ATOM     26  F   LIG    1        0.079  -0.161   0.804  0.00  0.00    -0.120 F 
ATOM     27 CL   LIG    1        2.691   0.937  -0.008  0.00  0.00    -0.050 Cl
ATOM     28  C   LIG    1       -1.184   1.807   0.432  0.00  0.00    -0.040 A 
ENDBRANCH  19  21
ENDBRANCH   9  16
TORSDOF 3
