REMARK  Name = ZINCvU0000000Apb.0
REMARK                            x       y       z     vdW  Elec       q    Type
REMARK                         _______ _______ _______ _____ _____    ______ ____
ROOT
ATOM      1  C   LIG    1        4.000   1.724   0.579  0.00  0.00    +0.250 C 
ENDROOT
BRANCH   1   3
ATOM      2  N   LIG    1        6.414   1.507   0.082  0.00  0.00    -0.480 N 
ATOM      3  C   LIG    1        5.237   0.899   0.331  0.00  0.00    +0.520 C 
ATOM      4  O   LIG    1        5.173  -0.312   0.355  0.00  0.00    -0.430 OA
BRANCH   2   9
ATOM      5  C   LIG    1        8.916  -2.597  -0.654  0.00  0.00    +0.160 C 
ATOM      6  C   LIG    1        8.720  -1.104  -0.604  0.00  0.00    +0.100 A 
ATOM      7  C   LIG    1        9.690  -0.238  -0.905  0.00  0.00    -0.100 A 
ATOM      8  S   LIG    1        9.046   1.391  -0.719  0.00  0.00    +0.150 S 
ATOM      9  C   LIG    1        7.531   0.749  -0.254  0.00  0.00    +0.270 A 
ATOM     10  N   LIG    1        7.577  -0.546  -0.254  0.00  0.00    -0.470 NA
ENDBRANCH   2   9
BRANCH   2  11
ATOM     11  C   LIG    1        6.512   2.902   0.161  0.00  0.00    +0.090 A 
ATOM     12  C   LIG    1        5.836   3.700  -0.753  0.00  0.00    +0.020 A 
ATOM     13  C   LIG    1        5.930   5.075  -0.669  0.00  0.00    +0.040 A 
ATOM     14  C   LIG    1        6.706   5.658   0.317  0.00  0.00    +0.030 A 
ATOM     15  C   LIG    1        7.385   4.866   1.224  0.00  0.00    +0.040 A 
ATOM     16  C   LIG    1        7.290   3.490   1.149  0.00  0.00    +0.020 A 
ENDBRANCH   2  11
ENDBRANCH   1   3
BRANCH   1  17
ATOM     17  O   LIG    1        2.878   0.858   0.759  0.00  0.00    -0.280 OA
BRANCH  17  18
ATOM     18  C   LIG    1        1.678   1.446   0.994  0.00  0.00    +0.160 A 
ATOM     19  C   LIG    1        0.545   0.660   1.178  0.00  0.00    -0.020 A 
ATOM     20  C   LIG    1       -0.675   1.252   1.411  0.00  0.00    +0.110 A 
ATOM     21  C   LIG    1       -0.773   2.646   1.473  0.00  0.00    -0.200 A 
ATOM     22  C   LIG    1        0.368   3.432   1.287  0.00  0.00    +0.130 A 
ATOM     23  C   LIG    1        1.584   2.832   1.049  0.00  0.00    -0.080 A 
BRANCH  21  24
ATOM     24  C   LIG    1       -2.078   3.284   1.727  0.00  0.00    +0.440 C 
ATOM     25  O   LIG    1       -2.188   4.493   1.654  0.00  0.00    -0.450 OA
BRANCH  24  26
ATOM     26  C   LIG    1       -3.252   2.455   2.072  0.00  0.00    -0.160 A 
ATOM     27  C   LIG    1       -4.530   2.845   1.664  0.00  0.00    +0.060 A 
ATOM     28  C   LIG    1       -5.621   2.064   1.985  0.00  0.00    +0.000 A 
ATOM     29  C   LIG    1       -5.452   0.902   2.717  0.00  0.00    +0.040 A 
ATOM     30  C   LIG    1       -4.190   0.512   3.129  0.00  0.00    +0.000 A 
ATOM     31  C   LIG    1       -3.090   1.281   2.811  0.00  0.00    +0.050 A 
ENDBRANCH  24  26
ENDBRANCH  21  24
ENDBRANCH  17  18
ENDBRANCH   1  17
TORSDOF 7
