REMARK  Name = ZINCvU0000000APB.1
REMARK                            x       y       z     vdW  Elec       q    Type
REMARK                         _______ _______ _______ _____ _____    ______ ____
ROOT
ATOM      1  C   LIG    1        1.123   2.083   0.003  0.00  0.00    +0.440 A 
ATOM      2  N   LIG    1        2.300   1.521  -0.010  0.00  0.00    -0.540 NA
ATOM      3  C   LIG    1        2.437   0.185  -0.019  0.00  0.00    +0.540 A 
ATOM      4  C   LIG    1        1.223  -0.654  -0.013  0.00  0.00    -0.220 A 
ATOM      5  C   LIG    1        0.002  -0.004   0.002  0.00  0.00    +0.060 A 
ATOM      6  S   LIG    1       -1.305  -1.178   0.007  0.00  0.00    +0.180 S 
ATOM      7  C   LIG    1       -0.186  -2.529  -0.011  0.00  0.00    -0.040 A 
ATOM      8  C   LIG    1        1.077  -2.103  -0.020  0.00  0.00    +0.010 A 
ATOM      9  O   LIG    1        3.545  -0.326  -0.033  0.00  0.00    -0.470 OA
ATOM     10  N   LIG    1       -0.017   1.374   0.010  0.00  0.00    -0.590 N 
ATOM     11  H   LIG    1       -0.868   1.840   0.016  0.00  0.00    +0.420 HD
ENDROOT
BRANCH   8  12
ATOM     12  C   LIG    1        2.236  -3.027  -0.036  0.00  0.00    -0.040 A 
ATOM     13  C   LIG    1        3.255  -2.855  -0.972  0.00  0.00    +0.060 A 
ATOM     14  C   LIG    1        4.335  -3.715  -0.978  0.00  0.00    +0.000 A 
ATOM     15  C   LIG    1        4.401  -4.753  -0.067  0.00  0.00    +0.010 A 
ATOM     16  C   LIG    1        3.390  -4.932   0.861  0.00  0.00    -0.010 A 
ATOM     17  C   LIG    1        2.308  -4.075   0.880  0.00  0.00    +0.020 A 
ENDBRANCH   8  12
BRANCH   1  18
ATOM     18  C   LIG    1        1.040   3.588   0.011  0.00  0.00    +0.250 C 
ATOM     19  C   LIG    1        0.174   4.057  -1.159  0.00  0.00    +0.030 C 
BRANCH  18  20
ATOM     20  N   LIG    1        2.389   4.154  -0.119  0.00  0.00    -0.650 NA
ATOM     21  H   LIG    1        2.687   4.158  -1.083  0.00  0.00    +0.360 HD
BRANCH  20  23
ATOM     22  C   LIG    1        2.710   5.403   1.962  0.00  0.00    +0.040 C 
ATOM     23  C   LIG    1        2.452   5.503   0.458  0.00  0.00    +0.180 C 
BRANCH  23  24
ATOM     24  C   LIG    1        3.569   6.276  -0.194  0.00  0.00    -0.100 A 
ATOM     25  C   LIG    1        4.770   5.654  -0.478  0.00  0.00    +0.030 A 
ATOM     26  C   LIG    1        5.789   6.369  -1.072  0.00  0.00    +0.000 A 
ATOM     27  C   LIG    1        5.619   7.710  -1.387  0.00  0.00    -0.070 A 
ATOM     28  C   LIG    1        6.778   8.435  -2.022  0.00  0.00    +0.070 C 
ATOM     29  C   LIG    1        6.306   9.727  -2.683  0.00  0.00    +0.010 C 
ATOM     30  C   LIG    1        5.478  10.519  -1.664  0.00  0.00    +0.020 C 
ATOM     31  C   LIG    1        4.163   9.778  -1.433  0.00  0.00    +0.060 C 
ATOM     32  C   LIG    1        4.421   8.330  -1.109  0.00  0.00    -0.080 A 
ATOM     33  C   LIG    1        3.395   7.607  -0.514  0.00  0.00    +0.010 A 
ENDBRANCH  23  24
ENDBRANCH  20  23
ENDBRANCH  18  20
ENDBRANCH   1  18
TORSDOF 5
