REMARK  Name = ZINCpk00000ebEsl.1
REMARK                            x       y       z     vdW  Elec       q    Type
REMARK                         _______ _______ _______ _____ _____    ______ ____
ROOT
ATOM      1  O   LIG    1       -3.559   6.905   0.076  0.00  0.00    -0.510 OA
ATOM      2  C   LIG    1       -2.344   6.876   0.064  0.00  0.00    +0.600 C 
ATOM      3  N   LIG    1       -1.642   8.026   0.064  0.00  0.00    -0.700 N 
ATOM      4  H   LIG    1       -0.672   8.003   0.054  0.00  0.00    +0.420 HD
ENDROOT
BRANCH   2   5
ATOM      5  C   LIG    1       -1.636   5.578   0.049  0.00  0.00    +0.240 A 
ATOM      6  N   LIG    1       -0.335   5.429   0.036  0.00  0.00    -0.440 NA
ATOM      7  C   LIG    1       -0.026   4.120   0.025  0.00  0.00    +0.030 A 
ATOM      8  C   LIG    1        1.186   3.418   0.009  0.00  0.00    +0.130 A 
ATOM      9  C   LIG    1        1.182   2.054   0.002  0.00  0.00    -0.010 A 
ATOM     10  C   LIG    1       -0.016   1.347   0.009  0.00  0.00    +0.130 A 
ATOM     11  C   LIG    1       -1.223   2.016   0.019  0.00  0.00    -0.010 A 
ATOM     12  F   LIG    1        0.002  -0.004   0.002  0.00  0.00    -0.130 F 
ATOM     13  C   LIG    1       -1.240   3.404   0.032  0.00  0.00    +0.090 A 
ATOM     14  N   LIG    1       -2.242   4.348   0.047  0.00  0.00    -0.560 N 
ATOM     15  H   LIG    1       -3.196   4.175   0.055  0.00  0.00    +0.440 HD
ENDBRANCH   2   5
BRANCH   3  16
ATOM     16  C   LIG    1       -2.344   9.312   0.079  0.00  0.00    +0.260 C 
ATOM     17  C   LIG    1       -1.437  10.416  -0.504  0.00  0.00    +0.050 C 
ATOM     18  C   LIG    1       -1.754  11.663   0.358  0.00  0.00    +0.000 C 
ATOM     19  C   LIG    1       -1.935  11.062   1.774  0.00  0.00    +0.010 C 
ATOM     20  C   LIG    1       -2.661   9.723   1.528  0.00  0.00    +0.150 C 
BRANCH  20  21
ATOM     21  O   LIG    1       -4.070   9.893   1.691  0.00  0.00    -0.550 OA
ATOM     22  H   LIG    1       -4.334  10.152   2.585  0.00  0.00    +0.380 HD
ENDBRANCH  20  21
BRANCH  18  23
ATOM     23  C   LIG    1       -0.586  12.650   0.333  0.00  0.00    +0.330 C 
BRANCH  23  24
ATOM     24  N   LIG    1       -0.913  13.815   1.160  0.00  0.00    -0.370 N 
ATOM     25  C   LIG    1       -0.179  14.290   2.188  0.00  0.00    +0.220 A 
ATOM     26  C   LIG    1       -0.819  15.374   2.686  0.00  0.00    -0.120 A 
ATOM     27  C   LIG    1       -1.989  15.561   1.942  0.00  0.00    +0.220 A 
ATOM     28  N   LIG    1       -2.046  14.628   1.028  0.00  0.00    -0.290 NA
ENDBRANCH  23  24
ENDBRANCH  18  23
ENDBRANCH   3  16
TORSDOF 5
