REMARK  Name = ZINCpk00000ebEsl.0
REMARK                            x       y       z     vdW  Elec       q    Type
REMARK                         _______ _______ _______ _____ _____    ______ ____
ROOT
ATOM      1  O   LIG    1        3.383   6.724   0.007  0.00  0.00    -0.510 OA
ATOM      2  C   LIG    1        2.170   6.664   0.018  0.00  0.00    +0.600 C 
ATOM      3  N   LIG    1        1.438   7.796   0.030  0.00  0.00    -0.700 N 
ATOM      4  H   LIG    1        0.470   7.747   0.038  0.00  0.00    +0.420 HD
ENDROOT
BRANCH   2   5
ATOM      5  C   LIG    1        1.495   5.347   0.016  0.00  0.00    +0.240 A 
ATOM      6  N   LIG    1        0.198   5.165   0.027  0.00  0.00    -0.450 NA
ATOM      7  C   LIG    1       -0.077   3.849   0.022  0.00  0.00    +0.070 A 
ATOM      8  C   LIG    1       -1.270   3.115   0.030  0.00  0.00    +0.050 A 
ATOM      9  C   LIG    1       -1.230   1.750   0.017  0.00  0.00    +0.100 A 
ATOM     10  C   LIG    1       -0.013   1.076   0.008  0.00  0.00    +0.030 A 
ATOM     11  C   LIG    1        1.174   1.776   0.000  0.00  0.00    +0.060 A 
ATOM     12  F   LIG    1       -2.383   1.046   0.019  0.00  0.00    -0.130 F 
ATOM     13  C   LIG    1        1.155   3.165   0.008  0.00  0.00    +0.050 A 
ATOM     14  N   LIG    1        2.132   4.135   0.004  0.00  0.00    -0.560 N 
ATOM     15  H   LIG    1        3.091   3.987  -0.006  0.00  0.00    +0.440 HD
ENDBRANCH   2   5
BRANCH   3  16
ATOM     16  C   LIG    1        2.107   9.100   0.032  0.00  0.00    +0.260 C 
ATOM     17  C   LIG    1        1.171  10.172   0.627  0.00  0.00    +0.050 C 
ATOM     18  C   LIG    1        1.457  11.437  -0.220  0.00  0.00    +0.000 C 
ATOM     19  C   LIG    1        1.655  10.859  -1.643  0.00  0.00    +0.010 C 
ATOM     20  C   LIG    1        2.414   9.536  -1.411  0.00  0.00    +0.150 C 
BRANCH  20  21
ATOM     21  O   LIG    1        3.819   9.743  -1.571  0.00  0.00    -0.550 OA
ATOM     22  H   LIG    1        4.077  10.020  -2.461  0.00  0.00    +0.380 HD
ENDBRANCH  20  21
BRANCH  18  23
ATOM     23  C   LIG    1        0.264  12.394  -0.185  0.00  0.00    +0.330 C 
BRANCH  23  24
ATOM     24  N   LIG    1        0.562  13.576  -0.998  0.00  0.00    -0.370 N 
ATOM     25  C   LIG    1       -0.183  14.045  -2.021  0.00  0.00    +0.220 A 
ATOM     26  C   LIG    1        0.429  15.150  -2.504  0.00  0.00    -0.120 A 
ATOM     27  C   LIG    1        1.593  15.359  -1.757  0.00  0.00    +0.220 A 
ATOM     28  N   LIG    1        1.674  14.416  -0.854  0.00  0.00    -0.290 NA
ENDBRANCH  23  24
ENDBRANCH  18  23
ENDBRANCH   3  16
TORSDOF 5
