REMARK  Name = ZINCqH0000037zip.0
REMARK                            x       y       z     vdW  Elec       q    Type
REMARK                         _______ _______ _______ _____ _____    ______ ____
ROOT
ATOM      1  C   LIG    1        5.796   6.827  -0.547  0.00  0.00    +0.570 C 
ATOM      2  N   LIG    1        4.505   6.596  -0.858  0.00  0.00    -0.640 N 
ATOM      3  H   LIG    1        4.016   7.231  -1.404  0.00  0.00    +0.410 HD
ATOM      4  O   LIG    1        6.409   6.031   0.137  0.00  0.00    -0.530 OA
ENDROOT
BRANCH   1  13
ATOM      5  C   LIG    1       10.906   9.379  -0.283  0.00  0.00    +0.180 C 
ATOM      6  C   LIG    1        9.763   9.998  -1.047  0.00  0.00    +0.120 A 
ATOM      7  N   LIG    1        9.797  11.123  -1.701  0.00  0.00    -0.250 NA
ATOM      8  N   LIG    1        8.552  11.378  -2.285  0.00  0.00    -0.500 N 
ATOM      9  H   LIG    1        8.332  12.156  -2.821  0.00  0.00    +0.440 HD
ATOM     10  C   LIG    1        7.694  10.357  -1.978  0.00  0.00    +0.160 A 
ATOM     11  C   LIG    1        6.359  10.098  -2.288  0.00  0.00    -0.010 A 
ATOM     12  C   LIG    1        5.758   8.964  -1.832  0.00  0.00    +0.090 A 
ATOM     13  C   LIG    1        6.466   8.049  -1.038  0.00  0.00    -0.180 A 
ATOM     14  C   LIG    1        7.797   8.286  -0.716  0.00  0.00    +0.190 A 
ATOM     15  C   LIG    1        8.419   9.444  -1.185  0.00  0.00    -0.190 A 
ENDBRANCH   1  13
BRANCH   2  16
ATOM     16  C   LIG    1        3.867   5.432  -0.391  0.00  0.00    +0.010 A 
ATOM     17  C   LIG    1        2.580   5.074  -0.632  0.00  0.00    +0.050 A 
ATOM     18  N   LIG    1        2.359   3.889  -0.001  0.00  0.00    -0.320 N 
ATOM     19  N   LIG    1        3.549   3.512   0.635  0.00  0.00    -0.270 NA
ATOM     20  C   LIG    1        1.578   5.849  -1.448  0.00  0.00    +0.140 C 
ATOM     21  C   LIG    1        4.450   4.432   0.403  0.00  0.00    +0.280 A 
BRANCH  18  22
ATOM     22  C   LIG    1        1.155   3.170   0.008  0.00  0.00    +0.150 A 
ATOM     23  C   LIG    1        1.174   1.782   0.000  0.00  0.00    +0.070 A 
ATOM     24  C   LIG    1       -0.013   1.076   0.008  0.00  0.00    +0.020 A 
ATOM     25  C   LIG    1       -1.221   1.751   0.017  0.00  0.00    +0.100 A 
ATOM     26  C   LIG    1       -1.243   3.136   0.030  0.00  0.00    +0.020 A 
ATOM     27  F   LIG    1       -2.381   1.059   0.019  0.00  0.00    -0.130 F 
ATOM     28  C   LIG    1       -0.058   3.846   0.022  0.00  0.00    +0.040 A 
ENDBRANCH  18  22
ENDBRANCH   2  16
TORSDOF 3
