REMARK  Name = ZINCpk00000kVLr3.0
REMARK                            x       y       z     vdW  Elec       q    Type
REMARK                         _______ _______ _______ _____ _____    ______ ____
ROOT
ATOM      1  C   LIG    1       -2.943   4.229  -1.366  0.00  0.00    +0.510 C 
ATOM      2  N   LIG    1       -4.091   4.896  -1.598  0.00  0.00    -0.730 N 
ATOM      3  H   LIG    1       -4.666   5.144  -0.858  0.00  0.00    +0.400 HD
ATOM      4  O   LIG    1       -2.224   3.919  -2.292  0.00  0.00    -0.510 OA
ENDROOT
BRANCH   2   5
ATOM      5  C   LIG    1       -4.470   5.246  -2.969  0.00  0.00    +0.260 C 
ATOM      6  C   LIG    1       -5.432   6.452  -2.960  0.00  0.00    +0.050 C 
ATOM      7  C   LIG    1       -6.434   6.149  -4.102  0.00  0.00    -0.010 C 
ATOM      8  C   LIG    1       -6.635   4.618  -3.982  0.00  0.00    +0.010 C 
ATOM      9  C   LIG    1       -5.235   4.080  -3.619  0.00  0.00    +0.150 C 
BRANCH   9  10
ATOM     10  O   LIG    1       -4.556   3.646  -4.799  0.00  0.00    -0.550 OA
ATOM     11  H   LIG    1       -4.989   2.911  -5.255  0.00  0.00    +0.380 HD
ENDBRANCH   9  10
BRANCH   7  12
ATOM     12  C   LIG    1       -7.755   6.888  -3.880  0.00  0.00    +0.310 C 
BRANCH  12  13
ATOM     13  N   LIG    1       -8.678   6.577  -4.974  0.00  0.00    -0.460 N 
ATOM     14  C   LIG    1       -8.807   7.268  -6.149  0.00  0.00    +0.110 A 
ATOM     15  C   LIG    1       -9.761   6.643  -6.865  0.00  0.00    +0.140 A 
ATOM     16  N   LIG    1      -10.208   5.604  -6.144  0.00  0.00    -0.490 NA
ATOM     17  C   LIG    1       -9.564   5.558  -5.010  0.00  0.00    +0.380 A 
ENDBRANCH  12  13
ENDBRANCH   7  12
ENDBRANCH   2   5
BRANCH   1  18
ATOM     18  C   LIG    1       -2.553   3.868   0.044  0.00  0.00    +0.100 C 
BRANCH  18  24
ATOM     19  C   LIG    1       -0.050   3.840   0.022  0.00  0.00    -0.080 A 
ATOM     20  C   LIG    1        1.156   3.166   0.008  0.00  0.00    +0.030 A 
ATOM     21  C   LIG    1        1.175   1.783   0.000  0.00  0.00    +0.010 A 
ATOM     22  C   LIG    1       -0.013   1.076   0.008  0.00  0.00    +0.020 A 
ATOM     23  C   LIG    1       -1.219   1.751   0.017  0.00  0.00    +0.020 A 
ATOM     24  C   LIG    1       -1.238   3.133   0.029  0.00  0.00    -0.060 A 
BRANCH  19  25
ATOM     25  C   LIG    1       -0.070   5.347   0.030  0.00  0.00    +0.240 C 
BRANCH  25  27
ATOM     26  N   LIG    1       -0.275   6.201   2.486  0.00  0.00    -0.420 NA
ATOM     27  C   LIG    1       -0.186   5.829   1.416  0.00  0.00    +0.200 C 
ENDBRANCH  25  27
ENDBRANCH  19  25
ENDBRANCH  18  24
ENDBRANCH   1  18
TORSDOF 8
