REMARK  Name = ZINCpk000000nlE5.1
REMARK                            x       y       z     vdW  Elec       q    Type
REMARK                         _______ _______ _______ _____ _____    ______ ____
ROOT
ATOM      1  C   LIG    1       -4.934   5.263  -5.159  0.00  0.00    +0.220 A 
ATOM      2  N   LIG    1       -5.780   6.057  -5.768  0.00  0.00    -0.260 NA
ATOM      3  N   LIG    1       -6.362   6.825  -4.915  0.00  0.00    -0.250 NA
ATOM      4  C   LIG    1       -5.907   6.552  -3.702  0.00  0.00    +0.110 A 
ATOM      5  C   LIG    1       -6.182   7.067  -2.420  0.00  0.00    +0.190 A 
ATOM      6  C   LIG    1       -5.528   6.551  -1.346  0.00  0.00    -0.030 A 
ATOM      7  C   LIG    1       -4.582   5.522  -1.522  0.00  0.00    +0.420 A 
ATOM      8  N   LIG    1       -4.325   5.042  -2.716  0.00  0.00    -0.340 NA
ATOM      9  N   LIG    1       -4.984   5.546  -3.840  0.00  0.00    -0.270 N 
ENDROOT
BRANCH   7  10
ATOM     10  N   LIG    1       -3.915   5.006  -0.416  0.00  0.00    -0.590 N 
ATOM     11  C   LIG    1       -4.091   5.607   0.912  0.00  0.00    +0.280 C 
ATOM     12  C   LIG    1       -2.712   5.947   1.486  0.00  0.00    +0.040 C 
ATOM     13  C   LIG    1       -1.835   4.693   1.476  0.00  0.00    +0.040 C 
ATOM     14  C   LIG    1       -1.653   4.208   0.036  0.00  0.00    +0.100 C 
ATOM     15  C   LIG    1       -3.020   3.848  -0.555  0.00  0.00    +0.330 C 
BRANCH  14  16
ATOM     16  C   LIG    1       -0.764   2.992   0.023  0.00  0.00    +0.260 A 
ATOM     17  N   LIG    1       -1.173   1.767   0.022  0.00  0.00    -0.260 NA
ATOM     18  N   LIG    1       -0.044   0.935   0.013  0.00  0.00    -0.550 N 
ATOM     19  H   LIG    1       -0.039  -0.035   0.012  0.00  0.00    +0.470 HD
ATOM     20  C   LIG    1        1.036   1.747  -0.002  0.00  0.00    +0.610 A 
ATOM     21  O   LIG    1        2.201   1.397  -0.018  0.00  0.00    -0.480 OA
ATOM     22  O   LIG    1        0.584   3.011   0.005  0.00  0.00    -0.270 OA
ENDBRANCH  14  16
ENDBRANCH   7  10
BRANCH   1  24
ATOM     23  C   LIG    1       -4.400   2.843  -5.241  0.00  0.00    +0.050 C 
ATOM     24  C   LIG    1       -4.063   4.222  -5.812  0.00  0.00    +0.020 C 
ATOM     25  C   LIG    1       -2.592   4.542  -5.537  0.00  0.00    +0.050 C 
ATOM     26  C   LIG    1       -4.311   4.223  -7.322  0.00  0.00    +0.080 C 
ENDBRANCH   1  24
TORSDOF 3
