REMARK  Name = ZINCvU00000007PB.0
REMARK                            x       y       z     vdW  Elec       q    Type
REMARK                         _______ _______ _______ _____ _____    ______ ____
ROOT
ATOM      1  C   LIG    1        1.807   8.727   0.636  0.00  0.00    +0.150 A 
ATOM      2  C   LIG    1        0.701   9.346   1.200  0.00  0.00    +0.050 A 
ATOM      3  C   LIG    1        0.527   9.335   2.572  0.00  0.00    -0.010 A 
ATOM      4  C   LIG    1        1.454   8.707   3.385  0.00  0.00    +0.040 A 
ATOM      5  C   LIG    1        2.559   8.088   2.830  0.00  0.00    +0.060 A 
ATOM      6 CL   LIG    1       -0.858  10.111   3.276  0.00  0.00    -0.050 Cl
ATOM      7  C   LIG    1        2.737   8.090   1.456  0.00  0.00    +0.060 A 
ENDROOT
BRANCH   1  10
ATOM      8  O   LIG    1        0.991  10.713  -0.936  0.00  0.00    -0.500 OA
ATOM      9  C   LIG    1        1.585   9.801  -1.476  0.00  0.00    +0.580 C 
ATOM     10  N   LIG    1        1.985   8.736  -0.752  0.00  0.00    -0.650 N 
ATOM     11  H   LIG    1        2.396   7.976  -1.194  0.00  0.00    +0.430 HD
BRANCH   9  12
ATOM     12  C   LIG    1        1.870   9.858  -2.928  0.00  0.00    +0.020 A 
ATOM     13  C   LIG    1        1.457  10.958  -3.679  0.00  0.00    +0.310 A 
ATOM     14  N   LIG    1        1.718  11.007  -4.973  0.00  0.00    -0.440 NA
ATOM     15  C   LIG    1        2.360  10.011  -5.557  0.00  0.00    +0.260 A 
ATOM     16  C   LIG    1        2.772   8.914  -4.813  0.00  0.00    +0.230 A 
ATOM     17  N   LIG    1        2.521   8.860  -3.520  0.00  0.00    -0.410 NA
ENDBRANCH   9  12
ENDBRANCH   1  10
BRANCH   7  18
ATOM     18  O   LIG    1        3.820   7.477   0.909  0.00  0.00    -0.250 OA
BRANCH  18  19
ATOM     19  C   LIG    1        4.923   8.229   0.667  0.00  0.00    +0.150 A 
ATOM     20  C   LIG    1        4.884   9.604   0.874  0.00  0.00    -0.070 A 
ATOM     21  C   LIG    1        6.003  10.370   0.635  0.00  0.00    +0.100 A 
ATOM     22  C   LIG    1        7.176   9.765   0.172  0.00  0.00    -0.200 A 
ATOM     23  C   LIG    1        7.209   8.383  -0.039  0.00  0.00    +0.120 A 
ATOM     24  C   LIG    1        6.088   7.624   0.208  0.00  0.00    -0.010 A 
BRANCH  22  25
ATOM     25  C   LIG    1        8.374  10.583  -0.092  0.00  0.00    +0.440 C 
ATOM     26  O   LIG    1        9.433  10.044  -0.352  0.00  0.00    -0.450 OA
BRANCH  25  27
ATOM     27  C   LIG    1        8.289  12.057  -0.039  0.00  0.00    -0.160 A 
ATOM     28  C   LIG    1        7.141  12.710  -0.493  0.00  0.00    +0.040 A 
ATOM     29  C   LIG    1        7.066  14.086  -0.437  0.00  0.00    +0.000 A 
ATOM     30  C   LIG    1        8.130  14.820   0.058  0.00  0.00    +0.040 A 
ATOM     31  C   LIG    1        9.273  14.181   0.504  0.00  0.00    +0.000 A 
ATOM     32  C   LIG    1        9.359  12.805   0.458  0.00  0.00    +0.060 A 
ENDBRANCH  25  27
ENDBRANCH  22  25
ENDBRANCH  18  19
ENDBRANCH   7  18
TORSDOF 6
