REMARK  Name = ZINCrD000000AABK.0
REMARK                            x       y       z     vdW  Elec       q    Type
REMARK                         _______ _______ _______ _____ _____    ______ ____
ROOT
ATOM      1  O   LIG    1       -7.128   4.476   6.335  0.00  0.00    -0.520 OA
ATOM      2  C   LIG    1       -7.522   3.721   5.472  0.00  0.00    +0.510 C 
ATOM      3  N   LIG    1       -6.678   3.297   4.510  0.00  0.00    -0.730 N 
ATOM      4  H   LIG    1       -6.993   2.693   3.820  0.00  0.00    +0.400 HD
ENDROOT
BRANCH   3   5
ATOM      5  C   LIG    1       -5.284   3.750   4.507  0.00  0.00    +0.320 C 
BRANCH   5   6
ATOM      6  C   LIG    1       -4.559   3.137   3.337  0.00  0.00    -0.100 A 
ATOM      7  C   LIG    1       -4.532   3.792   2.120  0.00  0.00    +0.030 A 
ATOM      8  C   LIG    1       -3.867   3.229   1.047  0.00  0.00    +0.050 A 
ATOM      9  C   LIG    1       -3.229   2.011   1.190  0.00  0.00    -0.110 A 
ATOM     10  C   LIG    1       -3.261   1.354   2.406  0.00  0.00    +0.030 A 
ATOM     11  C   LIG    1       -3.921   1.919   3.481  0.00  0.00    +0.030 A 
BRANCH   9  12
ATOM     12  C   LIG    1       -2.505   1.398   0.020  0.00  0.00    +0.380 C 
BRANCH  12  13
ATOM     13  N   LIG    1       -1.111   1.850   0.017  0.00  0.00    -0.380 N 
ATOM     14  C   LIG    1       -0.013   1.076   0.008  0.00  0.00    +0.470 A 
ATOM     15  N   LIG    1        1.036   1.858   0.002  0.00  0.00    -0.550 NA
ATOM     16  C   LIG    1        0.648   3.133   0.013  0.00  0.00    +0.420 A 
ATOM     17  N   LIG    1       -0.658   3.180   0.025  0.00  0.00    -0.310 NA
ENDBRANCH  12  13
ENDBRANCH   9  12
ENDBRANCH   5   6
ENDBRANCH   3   5
BRANCH   2  18
ATOM     18  C   LIG    1       -8.955   3.255   5.475  0.00  0.00    +0.120 C 
BRANCH  18  19
ATOM     19  C   LIG    1       -9.680   3.869   6.645  0.00  0.00    -0.060 A 
ATOM     20  C   LIG    1       -9.801   3.179   7.812  0.00  0.00    +0.020 A 
ATOM     21  C   LIG    1      -10.463   3.732   8.907  0.00  0.00    +0.010 A 
ATOM     22  C   LIG    1      -11.017   4.973   8.837  0.00  0.00    +0.030 A 
ATOM     23  C   LIG    1      -10.918   5.713   7.646  0.00  0.00    -0.050 A 
ATOM     24  C   LIG    1      -11.478   6.997   7.536  0.00  0.00    +0.030 A 
ATOM     25  C   LIG    1      -11.362   7.684   6.367  0.00  0.00    +0.000 A 
ATOM     26  C   LIG    1      -10.695   7.134   5.274  0.00  0.00    +0.010 A 
ATOM     27  C   LIG    1      -10.140   5.893   5.344  0.00  0.00    +0.010 A 
ATOM     28  C   LIG    1      -10.240   5.153   6.534  0.00  0.00    -0.030 A 
ENDBRANCH  18  19
ENDBRANCH   2  18
TORSDOF 6
