REMARK  Name = ZINCqH00000074jo.0
REMARK                            x       y       z     vdW  Elec       q    Type
REMARK                         _______ _______ _______ _____ _____    ______ ____
ROOT
ATOM      1  C   LIG    1        0.032   1.210   0.462  0.00  0.00    +0.560 C 
ATOM      2  N   LIG    1       -1.124   1.868   0.683  0.00  0.00    -0.640 N 
ATOM      3  H   LIG    1       -1.137   2.838   0.687  0.00  0.00    +0.410 HD
ATOM      4  O   LIG    1        0.048  -0.006   0.456  0.00  0.00    -0.440 OA
ENDROOT
BRANCH   2   5
ATOM      5  C   LIG    1       -2.292   1.159   0.903  0.00  0.00    +0.520 A 
ATOM      6  N   LIG    1       -2.387  -0.146   0.919  0.00  0.00    -0.470 NA
ATOM      7  C   LIG    1       -3.674  -0.507   1.163  0.00  0.00    +0.090 A 
ATOM      8  C   LIG    1       -4.318  -1.741   1.284  0.00  0.00    +0.030 A 
ATOM      9  C   LIG    1       -5.672  -1.784   1.541  0.00  0.00    +0.100 A 
ATOM     10  C   LIG    1       -6.399  -0.609   1.681  0.00  0.00    +0.000 A 
ATOM     11  C   LIG    1       -5.776   0.617   1.564  0.00  0.00    +0.060 A 
ATOM     12  F   LIG    1       -6.296  -2.976   1.657  0.00  0.00    -0.140 F 
ATOM     13  C   LIG    1       -4.415   0.678   1.306  0.00  0.00    +0.040 A 
ATOM     14  N   LIG    1       -3.514   1.717   1.142  0.00  0.00    -0.510 N 
ATOM     15  C   LIG    1       -3.818   3.149   1.210  0.00  0.00    +0.320 C 
ENDBRANCH   2   5
BRANCH   1  19
ATOM     16  C   LIG    1        3.612   3.387  -0.233  0.00  0.00    +0.200 A 
ATOM     17  C   LIG    1        2.419   4.064   0.001  0.00  0.00    -0.110 A 
ATOM     18  C   LIG    1        1.256   3.363   0.221  0.00  0.00    +0.120 A 
ATOM     19  C   LIG    1        1.273   1.965   0.221  0.00  0.00    -0.210 A 
ATOM     20  C   LIG    1        2.477   1.283  -0.015  0.00  0.00    +0.240 A 
ATOM     21  C   LIG    1        3.639   2.000  -0.240  0.00  0.00    -0.110 A 
BRANCH  16  23
ATOM     22  C   LIG    1        4.656   5.512  -0.433  0.00  0.00    +0.250 C 
ATOM     23  O   LIG    1        4.754   4.086  -0.454  0.00  0.00    -0.310 OA
ENDBRANCH  16  23
BRANCH  20  24
ATOM     24  O   LIG    1        2.502  -0.073  -0.022  0.00  0.00    -0.270 OA
BRANCH  24  25
ATOM     25  C   LIG    1        3.780  -0.698  -0.148  0.00  0.00    +0.150 C 
ATOM     26  C   LIG    1        4.153  -0.803  -1.628  0.00  0.00    +0.030 C 
ATOM     27  C   LIG    1        3.726  -2.099   0.465  0.00  0.00    +0.070 C 
ENDBRANCH  24  25
ENDBRANCH  20  24
ENDBRANCH   1  19
TORSDOF 5
