REMARK  Name = ZINCqH00000326zX.0
REMARK                            x       y       z     vdW  Elec       q    Type
REMARK                         _______ _______ _______ _____ _____    ______ ____
ROOT
ATOM      1  N   LIG    1       -8.564   3.458   0.006  0.00  0.00    -0.600 N 
ATOM      2  C   LIG    1       -7.331   3.993   0.107  0.00  0.00    +0.530 C 
ATOM      3  O   LIG    1       -7.198   5.193   0.219  0.00  0.00    -0.530 OA
ENDROOT
BRANCH   1   4
ATOM      4  C   LIG    1       -8.733   2.003  -0.005  0.00  0.00    +0.260 C 
BRANCH   4   6
ATOM      5  C   LIG    1      -10.236   2.267   1.973  0.00  0.00    +0.060 C 
ATOM      6  C   LIG    1       -9.028   1.513   1.414  0.00  0.00    +0.110 C 
ATOM      7  C   LIG    1       -9.332   0.014   1.383  0.00  0.00    +0.020 C 
BRANCH   6   8
ATOM      8  O   LIG    1       -7.890   1.751   2.245  0.00  0.00    -0.550 OA
ATOM      9  H   LIG    1       -7.070   1.362   1.911  0.00  0.00    +0.370 HD
ENDBRANCH   6   8
ENDBRANCH   4   6
ENDBRANCH   1   4
BRANCH   2  10
ATOM     10  C   LIG    1       -6.118   3.099   0.083  0.00  0.00    +0.050 C 
BRANCH  10  11
ATOM     11  C   LIG    1       -4.852   3.958   0.084  0.00  0.00    +0.070 C 
BRANCH  11  12
ATOM     12  C   LIG    1       -3.620   3.050   0.059  0.00  0.00    +0.190 C 
BRANCH  12  13
ATOM     13  O   LIG    1       -2.438   3.852   0.060  0.00  0.00    -0.310 OA
BRANCH  13  14
ATOM     14  C   LIG    1       -1.247   3.196   0.039  0.00  0.00    +0.120 A 
ATOM     15  C   LIG    1       -1.219   1.810   0.012  0.00  0.00    -0.040 A 
ATOM     16  C   LIG    1       -0.008   1.144  -0.004  0.00  0.00    +0.030 A 
ATOM     17  C   LIG    1        1.177   1.861  -0.004  0.00  0.00    +0.060 A 
ATOM     18  C   LIG    1        1.150   3.245   0.018  0.00  0.00    +0.030 A 
ATOM     19  F   LIG    1        2.360   1.209  -0.025  0.00  0.00    -0.140 F 
ATOM     20  C   LIG    1       -0.059   3.913   0.039  0.00  0.00    +0.020 A 
ENDBRANCH  13  14
ENDBRANCH  12  13
ENDBRANCH  11  12
ENDBRANCH  10  11
ENDBRANCH   2  10
BRANCH   1  21
ATOM     21  C   LIG    1       -9.736   4.332  -0.094  0.00  0.00    +0.330 C 
BRANCH  21  22
ATOM     22  C   LIG    1      -10.019   4.630  -1.544  0.00  0.00    -0.110 A 
ATOM     23  C   LIG    1       -9.442   5.729  -2.150  0.00  0.00    +0.030 A 
ATOM     24  C   LIG    1       -9.698   5.999  -3.481  0.00  0.00    +0.000 A 
ATOM     25  C   LIG    1      -10.540   5.175  -4.203  0.00  0.00    +0.000 A 
ATOM     26  C   LIG    1      -11.122   4.078  -3.596  0.00  0.00    +0.000 A 
ATOM     27  C   LIG    1      -10.861   3.805  -2.266  0.00  0.00    +0.010 A 
ENDBRANCH  21  22
ENDBRANCH   1  21
TORSDOF 10
