REMARK  Name = ZINCrg000000tgO8.0
REMARK                            x       y       z     vdW  Elec       q    Type
REMARK                         _______ _______ _______ _____ _____    ______ ____
ROOT
ATOM      1  O   LIG    1       -5.572   3.560   2.249  0.00  0.00    -0.520 OA
ATOM      2  C   LIG    1       -5.451   4.290   3.210  0.00  0.00    +0.520 C 
ATOM      3  N   LIG    1       -4.267   4.882   3.463  0.00  0.00    -0.600 N 
ATOM      4  C   LIG    1       -4.106   5.769   4.623  0.00  0.00    +0.270 C 
ATOM      5  C   LIG    1       -2.912   5.285   5.452  0.00  0.00    +0.040 C 
ATOM      6  C   LIG    1       -1.676   5.194   4.554  0.00  0.00    +0.060 C 
ATOM      7  C   LIG    1       -1.930   4.180   3.436  0.00  0.00    -0.470 C 
ATOM      8  C   LIG    1       -3.113   4.652   2.584  0.00  0.00    +0.330 C 
ENDROOT
BRANCH   7   9
ATOM      9  S   LIG    1       -0.450   4.043   2.396  0.00  0.00    +2.610 S 
ATOM     10  O   LIG    1       -0.174   5.282   1.756  0.00  0.00    -0.940 OA
ATOM     11  O   LIG    1        0.571   3.325   3.074  0.00  0.00    -0.940 OA
BRANCH   9  12
ATOM     12  N   LIG    1       -0.905   3.039   1.160  0.00  0.00    -1.000 NA
ATOM     13  C   LIG    1       -0.732   1.581   1.268  0.00  0.00    +0.260 C 
ATOM     14  C   LIG    1       -0.013   1.086   0.008  0.00  0.00    +0.220 C 
ATOM     15  O   LIG    1       -0.706   1.560  -1.149  0.00  0.00    -0.380 OA
ATOM     16  C   LIG    1       -0.736   2.985  -1.270  0.00  0.00    +0.220 C 
ATOM     17  C   LIG    1       -1.493   3.577  -0.076  0.00  0.00    +0.260 C 
ENDBRANCH   9  12
ENDBRANCH   7   9
BRANCH   2  18
ATOM     18  C   LIG    1       -6.626   4.536   4.121  0.00  0.00    +0.190 C 
BRANCH  18  19
ATOM     19  C   LIG    1       -7.820   3.764   3.621  0.00  0.00    +0.150 A 
ATOM     20  N   LIG    1       -8.145   2.553   3.953  0.00  0.00    -0.270 NA
ATOM     21  O   LIG    1       -9.328   2.174   3.278  0.00  0.00    -0.090 OA
ATOM     22  C   LIG    1       -9.744   3.193   2.501  0.00  0.00    +0.090 A 
ATOM     23  C   LIG    1      -10.824   3.362   1.643  0.00  0.00    +0.020 A 
ATOM     24  C   LIG    1      -10.985   4.554   0.970  0.00  0.00    +0.080 A 
ATOM     25  C   LIG    1      -10.077   5.589   1.141  0.00  0.00    -0.010 A 
ATOM     26  C   LIG    1       -9.008   5.444   1.979  0.00  0.00    +0.090 A 
ATOM     27  C   LIG    1       -8.831   4.246   2.676  0.00  0.00    -0.190 A 
ENDBRANCH  18  19
ENDBRANCH   2  18
TORSDOF 4
