REMARK  Name = ZINCb800000010QX.1
REMARK                            x       y       z     vdW  Elec       q    Type
REMARK                         _______ _______ _______ _____ _____    ______ ____
ROOT
ATOM      1  C   LIG    1       -0.014   1.209   0.009  0.00  0.00    +0.510 C 
ATOM      2  N   LIG    1        1.143   1.898   0.001  0.00  0.00    -0.620 N 
ATOM      3  C   LIG    1        1.146   3.369   0.003  0.00  0.00    +0.280 C 
ATOM      4  C   LIG    1        2.047   3.860  -1.129  0.00  0.00    +0.170 C 
ATOM      5  N   LIG    1        3.371   3.236  -1.005  0.00  0.00    -0.690 NA
ATOM      6  H   LIG    1        4.020   3.630  -1.670  0.00  0.00    +0.350 HD
ATOM      7  C   LIG    1        3.288   1.777  -1.152  0.00  0.00    +0.170 C 
ATOM      8  C   LIG    1        2.438   1.200  -0.015  0.00  0.00    +0.280 C 
ATOM      9  O   LIG    1        0.002  -0.004   0.002  0.00  0.00    -0.540 OA
ENDROOT
BRANCH   1  10
ATOM     10  C   LIG    1       -1.330   1.944   0.019  0.00  0.00    +0.040 C 
BRANCH  10  12
ATOM     11  C   LIG    1       -3.814   1.681   0.029  0.00  0.00    +0.020 C 
ATOM     12  C   LIG    1       -2.479   0.934   0.019  0.00  0.00    +0.030 C 
ENDBRANCH  10  12
ENDBRANCH   1  10
TORSDOF 2
