REMARK  Name = ZINCrg000000mWRD.0
REMARK                            x       y       z     vdW  Elec       q    Type
REMARK                         _______ _______ _______ _____ _____    ______ ____
ROOT
ATOM      1  C   LIG    1       -0.816   3.404   4.848  0.00  0.00    +0.520 C 
ATOM      2  N   LIG    1       -1.101   2.753   3.703  0.00  0.00    -0.610 N 
ATOM      3  C   LIG    1       -1.023   1.286   3.629  0.00  0.00    +0.300 C 
ATOM      4  C   LIG    1       -0.165   0.904   2.418  0.00  0.00    +0.170 C 
ATOM      5  N   LIG    1       -0.700   1.560   1.217  0.00  0.00    -0.520 NA
ATOM      6  C   LIG    1       -0.622   3.022   1.328  0.00  0.00    +0.190 C 
ATOM      7  C   LIG    1       -1.499   3.490   2.494  0.00  0.00    +0.290 C 
ATOM      8  O   LIG    1       -0.489   2.779   5.835  0.00  0.00    -0.510 OA
ENDROOT
BRANCH   1   9
ATOM      9  C   LIG    1       -0.902   4.907   4.902  0.00  0.00    +0.230 C 
BRANCH   9  10
ATOM     10  O   LIG    1       -0.555   5.358   6.213  0.00  0.00    -0.290 OA
BRANCH  10  15
ATOM     11  C   LIG    1       -0.287   8.583   7.899  0.00  0.00    -0.130 A 
ATOM     12  C   LIG    1       -0.645   9.443   6.857  0.00  0.00    +0.030 A 
ATOM     13  C   LIG    1       -0.967   8.928   5.619  0.00  0.00    +0.050 A 
ATOM     14  C   LIG    1       -0.932   7.563   5.402  0.00  0.00    -0.050 A 
ATOM     15  C   LIG    1       -0.583   6.699   6.431  0.00  0.00    +0.120 A 
ATOM     16  C   LIG    1       -0.258   7.202   7.679  0.00  0.00    +0.050 A 
BRANCH  11  18
ATOM     17  C   LIG    1        0.024  10.616   9.457  0.00  0.00    +0.090 C 
ATOM     18  C   LIG    1        0.056   9.127   9.223  0.00  0.00    +0.390 C 
ATOM     19  O   LIG    1        0.366   8.378  10.125  0.00  0.00    -0.450 OA
ENDBRANCH  11  18
ENDBRANCH  10  15
ENDBRANCH   9  10
ENDBRANCH   1   9
BRANCH   5  20
ATOM     20  C   LIG    1       -0.013   1.086   0.008  0.00  0.00    +0.220 C 
BRANCH  20  21
ATOM     21  C   LIG    1       -0.742   1.585  -1.213  0.00  0.00    +0.530 C 
ATOM     22  N   LIG    1       -0.288   1.272  -2.443  0.00  0.00    -0.620 N 
ATOM     23  C   LIG    1        0.902   0.462  -2.737  0.00  0.00    +0.240 C 
ATOM     24  C   LIG    1        1.041   0.392  -4.272  0.00  0.00    +0.030 C 
ATOM     25  C   LIG    1        0.254   1.641  -4.748  0.00  0.00    +0.030 C 
ATOM     26  C   LIG    1       -0.901   1.692  -3.717  0.00  0.00    +0.260 C 
ATOM     27  O   LIG    1       -1.736   2.268  -1.088  0.00  0.00    -0.520 OA
ENDBRANCH  20  21
ENDBRANCH   5  20
TORSDOF 6
