REMARK  Name = ZINCpk00000eaXhG.1
REMARK                            x       y       z     vdW  Elec       q    Type
REMARK                         _______ _______ _______ _____ _____    ______ ____
ROOT
ATOM      1  C   LIG    1       -3.541   1.418  -0.711  0.00  0.00    +0.520 C 
ATOM      2  O   LIG    1       -3.609   2.556  -1.132  0.00  0.00    -0.500 OA
ENDROOT
BRANCH   1   3
ATOM      3  C   LIG    1       -4.688   0.504  -0.868  0.00  0.00    -0.120 A 
ATOM      4  C   LIG    1       -4.611  -0.804  -0.384  0.00  0.00    +0.110 A 
ATOM      5  C   LIG    1       -5.683  -1.658  -0.530  0.00  0.00    +0.010 A 
ATOM      6  C   LIG    1       -6.840  -1.219  -1.158  0.00  0.00    +0.140 A 
ATOM      7  N   LIG    1       -7.934  -2.075  -1.311  0.00  0.00    -0.660 N 
ATOM      8  H   LIG    1       -7.993  -2.895  -0.795  0.00  0.00    +0.420 HD
ATOM      9  C   LIG    1       -8.909  -1.745  -2.185  0.00  0.00    +0.490 C 
ATOM     10  C   LIG    1       -8.785  -0.486  -3.004  0.00  0.00    +0.310 C 
ATOM     11  O   LIG    1       -8.064   0.501  -2.262  0.00  0.00    -0.300 OA
ATOM     12  O   LIG    1       -9.881  -2.460  -2.311  0.00  0.00    -0.500 OA
ATOM     13  C   LIG    1       -6.923   0.088  -1.645  0.00  0.00    +0.060 A 
ATOM     14  C   LIG    1       -5.856   0.949  -1.496  0.00  0.00    +0.120 A 
ENDBRANCH   1   3
BRANCH   1  15
ATOM     15  O   LIG    1       -2.418   0.991  -0.100  0.00  0.00    -0.320 OA
BRANCH  15  16
ATOM     16  C   LIG    1       -1.330   1.944   0.019  0.00  0.00    +0.200 C 
ATOM     17  C   LIG    1       -1.471   2.718   1.331  0.00  0.00    +0.090 C 
BRANCH  16  20
ATOM     18  N   LIG    1        1.143   1.898   0.001  0.00  0.00    -0.620 N 
ATOM     19  H   LIG    1        1.130   2.868   0.007  0.00  0.00    +0.430 HD
ATOM     20  C   LIG    1       -0.014   1.209   0.009  0.00  0.00    +0.510 C 
ATOM     21  O   LIG    1        0.002  -0.004   0.002  0.00  0.00    -0.470 OA
BRANCH  18  26
ATOM     22  C   LIG    1        5.973   0.689  -0.050  0.00  0.00    +0.160 C 
ATOM     23  C   LIG    1        4.467   0.661  -0.036  0.00  0.00    +0.040 A 
ATOM     24  N   LIG    1        3.707  -0.398  -0.034  0.00  0.00    -0.360 NA
ATOM     25  O   LIG    1        2.533  -0.109  -0.017  0.00  0.00    +0.110 OA
ATOM     26  C   LIG    1        2.354   1.221  -0.014  0.00  0.00    +0.210 A 
ATOM     27  C   LIG    1        3.602   1.774  -0.023  0.00  0.00    -0.090 A 
ENDBRANCH  18  26
ENDBRANCH  16  20
ENDBRANCH  15  16
ENDBRANCH   1  15
TORSDOF 5
