REMARK  Name = ZINCb700000010hG.0
REMARK                            x       y       z     vdW  Elec       q    Type
REMARK                         _______ _______ _______ _____ _____    ______ ____
ROOT
ATOM      1  C   LIG    1        2.890  -0.480   2.352  0.00  0.00    +0.310 C 
ATOM      2  N   LIG    1        2.144   0.018   1.189  0.00  0.00    -0.390 N 
ATOM      3  C   LIG    1        0.773  -0.507   1.224  0.00  0.00    +0.280 C 
ATOM      4  C   LIG    1        0.002  -0.004   0.002  0.00  0.00    +0.220 C 
ATOM      5  N   LIG    1       -0.018   1.466   0.010  0.00  0.00    -0.540 NA
ATOM      6  C   LIG    1        1.349   2.006   0.000  0.00  0.00    +0.210 C 
ATOM      7  C   LIG    1        2.109   1.486   1.222  0.00  0.00    +0.280 C 
ATOM      8  H   LIG    1        2.600  -0.288   0.342  0.00  0.00    +0.420 HD
ENDROOT
BRANCH   5   9
ATOM      9  C   LIG    1       -0.799   1.988  -1.119  0.00  0.00    +0.220 C 
BRANCH   9  10
ATOM     10  C   LIG    1       -1.008   3.493  -0.942  0.00  0.00    +0.210 C 
BRANCH  10  11
ATOM     11  C   LIG    1       -1.790   4.016  -2.074  0.00  0.00    +0.190 C 
ATOM     12  N   LIG    1       -2.394   4.420  -2.947  0.00  0.00    -0.410 NA
ENDBRANCH  10  11
ENDBRANCH   9  10
ENDBRANCH   5   9
TORSDOF 3
