REMARK  Name = ZINCrg00000SjSGZ.0
REMARK                            x       y       z     vdW  Elec       q    Type
REMARK                         _______ _______ _______ _____ _____    ______ ____
ROOT
ATOM      1  C   LIG    1        1.280   1.980   0.007  0.00  0.00    +0.320 C 
ENDROOT
BRANCH   1   4
ATOM      2  N   LIG    1       -1.191   1.867   0.018  0.00  0.00    -0.660 N 
ATOM      3  H   LIG    1       -1.205   2.833   0.098  0.00  0.00    +0.420 HD
ATOM      4  C   LIG    1       -0.014   1.209   0.007  0.00  0.00    +0.510 C 
ATOM      5  O   LIG    1        0.002  -0.004  -0.009  0.00  0.00    -0.500 OA
BRANCH   2   8
ATOM      6  C   LIG    1       -3.698  -0.802   0.396  0.00  0.00    +0.180 A 
ATOM      7  C   LIG    1       -2.508  -0.098   0.499  0.00  0.00    -0.040 A 
ATOM      8  C   LIG    1       -2.391   1.155  -0.086  0.00  0.00    +0.220 A 
ATOM      9  C   LIG    1       -3.467   1.705  -0.769  0.00  0.00    -0.070 A 
ATOM     10  C   LIG    1       -4.654   0.997  -0.877  0.00  0.00    +0.180 A 
ATOM     11  C   LIG    1       -4.771  -0.255  -0.292  0.00  0.00    -0.170 A 
BRANCH   6  13
ATOM     12  C   LIG    1       -5.067  -2.698   0.824  0.00  0.00    +0.250 C 
ATOM     13  O   LIG    1       -3.813  -2.029   0.969  0.00  0.00    -0.310 OA
ENDBRANCH   6  13
BRANCH  10  14
ATOM     14  O   LIG    1       -5.706   1.532  -1.551  0.00  0.00    -0.310 OA
ATOM     15  C   LIG    1       -6.900   0.750  -1.617  0.00  0.00    +0.250 C 
ENDBRANCH  10  14
ENDBRANCH   2   8
ENDBRANCH   1   4
BRANCH   1  16
ATOM     16  N   LIG    1        2.407   1.044  -0.013  0.00  0.00    -0.690 N 
ATOM     17  H   LIG    1        2.243   0.088  -0.024  0.00  0.00    +0.430 HD
ATOM     18  C   LIG    1        3.671   1.510  -0.016  0.00  0.00    +0.510 C 
ATOM     19  O   LIG    1        3.877   2.706  -0.002  0.00  0.00    -0.520 OA
BRANCH  18  20
ATOM     20  C   LIG    1        4.820   0.555  -0.036  0.00  0.00    +0.510 C 
ATOM     21  N   LIG    1        6.085   1.022  -0.039  0.00  0.00    -0.700 N 
ATOM     22  H   LIG    1        6.249   1.978  -0.028  0.00  0.00    +0.410 HD
ATOM     23  O   LIG    1        4.615  -0.641  -0.050  0.00  0.00    -0.510 OA
BRANCH  21  24
ATOM     24  C   LIG    1        7.211   0.085  -0.059  0.00  0.00    +0.320 C 
BRANCH  24  25
ATOM     25  C   LIG    1        8.506   0.856  -0.059  0.00  0.00    -0.120 A 
ATOM     26  C   LIG    1        9.094   1.220  -1.256  0.00  0.00    +0.030 A 
ATOM     27  C   LIG    1       10.279   1.932  -1.255  0.00  0.00    +0.010 A 
ATOM     28  C   LIG    1       10.881   2.271  -0.058  0.00  0.00    +0.010 A 
ATOM     29  C   LIG    1       10.296   1.902   1.139  0.00  0.00    +0.010 A 
ATOM     30  C   LIG    1        9.108   1.195   1.139  0.00  0.00    +0.030 A 
ENDBRANCH  24  25
ENDBRANCH  21  24
ENDBRANCH  18  20
ENDBRANCH   1  16
TORSDOF 8
