REMARK  Name = ZINCpk00000ebx5x.0
REMARK                            x       y       z     vdW  Elec       q    Type
REMARK                         _______ _______ _______ _____ _____    ______ ____
ROOT
ATOM      1  O   LIG    1        1.100  -1.574   0.286  0.00  0.00    -0.530 OA
ATOM      2  C   LIG    1        1.365  -0.433  -0.030  0.00  0.00    +0.560 C 
ATOM      3  N   LIG    1        2.572   0.086   0.268  0.00  0.00    -0.610 N 
ATOM      4  C   LIG    1        2.878   1.497  -0.015  0.00  0.00    +0.290 C 
ATOM      5  C   LIG    1        3.438   2.135   1.267  0.00  0.00    +0.170 C 
ATOM      6  N   LIG    1        4.574   1.339   1.748  0.00  0.00    -0.530 NA
ATOM      7  C   LIG    1        4.153  -0.019   2.121  0.00  0.00    +0.170 C 
ATOM      8  C   LIG    1        3.621  -0.744   0.880  0.00  0.00    +0.300 C 
ENDROOT
BRANCH   2   9
ATOM      9  C   LIG    1        0.344   0.403  -0.758  0.00  0.00    -0.120 C 
ATOM     10  C   LIG    1       -1.133   0.138  -0.455  0.00  0.00    +0.090 C 
ATOM     11  C   LIG    1       -0.461   1.410   0.067  0.00  0.00    +0.050 C 
BRANCH   9  12
ATOM     12  C   LIG    1        0.706   0.790  -2.168  0.00  0.00    -0.050 A 
ATOM     13  C   LIG    1        0.224   1.969  -2.706  0.00  0.00    +0.050 A 
ATOM     14  C   LIG    1        0.560   2.328  -3.998  0.00  0.00    -0.010 A 
ATOM     15  C   LIG    1        1.371   1.500  -4.757  0.00  0.00    +0.100 A 
ATOM     16  C   LIG    1        1.848   0.317  -4.219  0.00  0.00    -0.010 A 
ATOM     17  F   LIG    1        1.696   1.847  -6.022  0.00  0.00    -0.140 F 
ATOM     18  C   LIG    1        1.515  -0.037  -2.925  0.00  0.00    +0.050 A 
ENDBRANCH   9  12
ENDBRANCH   2   9
BRANCH   6  19
ATOM     19  C   LIG    1        5.248   2.007   2.869  0.00  0.00    +0.200 C 
BRANCH  19  20
ATOM     20  C   LIG    1        6.577   1.305   3.157  0.00  0.00    +0.130 C 
ATOM     21  C   LIG    1        7.284   2.005   4.321  0.00  0.00    +0.190 C 
ATOM     22  O   LIG    1        8.573   1.414   4.511  0.00  0.00    -0.380 OA
ATOM     23  C   LIG    1        9.407   1.474   3.350  0.00  0.00    +0.190 C 
ATOM     24  C   LIG    1        8.700   0.774   2.186  0.00  0.00    +0.190 C 
ATOM     25  O   LIG    1        7.411   1.365   1.996  0.00  0.00    -0.360 OA
ENDBRANCH  19  20
ENDBRANCH   6  19
TORSDOF 4
