REMARK  Name = ZINCqH0000002Zl4.0
REMARK                            x       y       z     vdW  Elec       q    Type
REMARK                         _______ _______ _______ _____ _____    ______ ____
ROOT
ATOM      1  C   LIG    1       -2.059  -0.260   1.060  0.00  0.00    +0.520 C 
ATOM      2  N   LIG    1       -2.247   1.042   1.353  0.00  0.00    -0.660 N 
ATOM      3  H   LIG    1       -3.147   1.399   1.419  0.00  0.00    +0.420 HD
ATOM      4  O   LIG    1       -0.942  -0.732   1.085  0.00  0.00    -0.500 OA
ENDROOT
BRANCH   2   5
ATOM      5  C   LIG    1       -1.150   1.875   1.560  0.00  0.00    +0.210 A 
ATOM      6  C   LIG    1       -0.059   1.422   2.289  0.00  0.00    +0.010 A 
ATOM      7  C   LIG    1        1.030   2.247   2.489  0.00  0.00    +0.060 A 
ATOM      8  C   LIG    1        1.040   3.532   1.970  0.00  0.00    -0.010 A 
ATOM      9  C   LIG    1       -0.037   4.000   1.249  0.00  0.00    +0.060 A 
ATOM     10  C   LIG    1       -1.145   3.177   1.038  0.00  0.00    -0.170 A 
BRANCH  10  11
ATOM     11  C   LIG    1       -2.301   3.672   0.267  0.00  0.00    +0.570 C 
ATOM     12  N   LIG    1       -2.314   4.941  -0.188  0.00  0.00    -0.700 N 
ATOM     13  H   LIG    1       -1.564   5.528  -0.007  0.00  0.00    +0.400 HD
ATOM     14  O   LIG    1       -3.241   2.935   0.041  0.00  0.00    -0.540 OA
BRANCH  12  15
ATOM     15  C   LIG    1       -3.462   5.432  -0.954  0.00  0.00    +0.220 C 
ATOM     16  C   LIG    1       -3.173   6.264  -2.204  0.00  0.00    +0.010 C 
ATOM     17  C   LIG    1       -3.723   6.940  -0.946  0.00  0.00    +0.020 C 
ENDBRANCH  12  15
ENDBRANCH  10  11
ENDBRANCH   2   5
BRANCH   1  18
ATOM     18  C   LIG    1       -3.236  -1.130   0.701  0.00  0.00    +0.220 C 
BRANCH  18  19
ATOM     19  N   LIG    1       -2.771  -2.496   0.427  0.00  0.00    -0.510 NA
BRANCH  19  21
ATOM     20  C   LIG    1       -2.706  -1.957  -1.961  0.00  0.00    -0.010 C 
ATOM     21  C   LIG    1       -1.929  -2.534  -0.776  0.00  0.00    +0.220 C 
ENDBRANCH  19  21
BRANCH  19  22
ATOM     22  C   LIG    1       -3.904  -3.424   0.307  0.00  0.00    +0.280 C 
BRANCH  22  23
ATOM     23  C   LIG    1       -3.402  -4.842   0.396  0.00  0.00    -0.160 A 
ATOM     24  C   LIG    1       -3.197  -5.515   1.529  0.00  0.00    +0.040 A 
ATOM     25  C   LIG    1       -2.733  -6.809   1.364  0.00  0.00    +0.030 A 
ATOM     26  C   LIG    1       -2.561  -7.186   0.095  0.00  0.00    -0.150 A 
ATOM     27 CL   LIG    1       -1.992  -8.744  -0.418  0.00  0.00    -0.010 Cl
ATOM     28  S   LIG    1       -3.006  -5.865  -0.978  0.00  0.00    +0.150 S 
ENDBRANCH  22  23
ENDBRANCH  19  22
ENDBRANCH  18  19
ENDBRANCH   1  18
TORSDOF 8
