REMARK  Name = ZINCrD0000071m9q.0
REMARK                            x       y       z     vdW  Elec       q    Type
REMARK                         _______ _______ _______ _____ _____    ______ ____
ROOT
ATOM      1  C   LIG    1        1.122   3.498   0.010  0.00  0.00    +0.410 C 
ENDROOT
BRANCH   1   2
ATOM      2  N   LIG    1        1.142   2.033   0.002  0.00  0.00    -0.750 N 
ATOM      3  H   LIG    1        1.988   1.560  -0.009  0.00  0.00    +0.400 HD
ATOM      4  C   LIG    1       -0.016   1.344   0.009  0.00  0.00    +0.710 C 
ATOM      5  N   LIG    1        0.002  -0.004   0.002  0.00  0.00    -0.740 N 
ATOM      6  H   LIG    1        0.849  -0.478  -0.009  0.00  0.00    +0.400 HD
ATOM      7  O   LIG    1       -1.077   1.937   0.018  0.00  0.00    -0.570 OA
BRANCH   5   8
ATOM      8  C   LIG    1       -1.256  -0.754   0.010  0.00  0.00    +0.280 C 
BRANCH   8   9
ATOM      9  C   LIG    1       -0.957  -2.254  -0.001  0.00  0.00    +0.070 C 
BRANCH   9  10
ATOM     10  C   LIG    1       -2.251  -3.025   0.007  0.00  0.00    -0.090 A 
ATOM     11  C   LIG    1       -2.831  -3.390   1.208  0.00  0.00    +0.010 A 
ATOM     12  C   LIG    1       -4.021  -4.093   1.216  0.00  0.00    +0.000 A 
ATOM     13  C   LIG    1       -4.626  -4.441   0.022  0.00  0.00    +0.000 A 
ATOM     14  C   LIG    1       -4.044  -4.080  -1.179  0.00  0.00    +0.000 A 
ATOM     15  C   LIG    1       -2.857  -3.373  -1.186  0.00  0.00    +0.010 A 
ENDBRANCH   9  10
ENDBRANCH   8   9
ENDBRANCH   5   8
ENDBRANCH   1   2
BRANCH   1  16
ATOM     16  C   LIG    1        2.408   4.015   0.601  0.00  0.00    +0.180 A 
ATOM     17  N   LIG    1        2.529   4.973   1.486  0.00  0.00    -0.450 NA
ATOM     18  C   LIG    1        3.856   5.090   1.717  0.00  0.00    +0.210 A 
ATOM     19  N   LIG    1        4.457   4.204   0.967  0.00  0.00    -0.360 NA
ATOM     20  O   LIG    1        3.641   3.577   0.326  0.00  0.00    +0.090 OA
BRANCH  18  21
ATOM     21  C   LIG    1        4.507   6.045   2.648  0.00  0.00    +0.020 A 
ATOM     22  C   LIG    1        3.749   6.951   3.393  0.00  0.00    +0.020 A 
ATOM     23  C   LIG    1        4.395   7.819   4.251  0.00  0.00    +0.270 A 
ATOM     24  N   LIG    1        5.709   7.806   4.364  0.00  0.00    -0.470 NA
ATOM     25  C   LIG    1        6.461   6.971   3.674  0.00  0.00    +0.270 A 
ATOM     26  C   LIG    1        5.896   6.066   2.798  0.00  0.00    +0.000 A 
ENDBRANCH  18  21
ENDBRANCH   1  16
BRANCH   1  28
ATOM     27  C   LIG    1       -0.331   3.490  -2.023  0.00  0.00    +0.050 C 
ATOM     28  C   LIG    1        0.976   4.014  -1.423  0.00  0.00    -0.020 C 
ATOM     29  C   LIG    1        0.955   5.544  -1.414  0.00  0.00    +0.040 C 
ENDBRANCH   1  28
TORSDOF 7
