REMARK  Name = ZINCrH000004oWtj.0
REMARK                            x       y       z     vdW  Elec       q    Type
REMARK                         _______ _______ _______ _____ _____    ______ ____
ROOT
ATOM      1  N   LIG    1       -4.893   5.049   0.051  0.00  0.00    -0.720 N 
ATOM      2  H   LIG    1       -5.402   4.223   0.048  0.00  0.00    +0.400 HD
ATOM      3  C   LIG    1       -3.546   5.010   0.045  0.00  0.00    +0.590 C 
ATOM      4  O   LIG    1       -2.907   6.046   0.048  0.00  0.00    -0.510 OA
ENDROOT
BRANCH   3   5
ATOM      5  C   LIG    1       -2.846   3.715   0.035  0.00  0.00    -0.040 A 
ATOM      6  C   LIG    1       -1.480   3.513   0.028  0.00  0.00    +0.040 A 
ATOM      7  C   LIG    1       -1.311   2.116   0.020  0.00  0.00    +0.060 A 
ATOM      8  N   LIG    1       -2.509   1.571   0.017  0.00  0.00    -0.250 NA
ATOM      9  N   LIG    1       -3.421   2.475   0.030  0.00  0.00    -0.370 N 
ATOM     10  H   LIG    1       -4.376   2.304   0.033  0.00  0.00    +0.450 HD
BRANCH   7  11
ATOM     11  C   LIG    1       -0.017   1.389   0.010  0.00  0.00    +0.010 A 
ATOM     12  C   LIG    1        1.183   2.097   0.002  0.00  0.00    +0.050 A 
ATOM     13  C   LIG    1        2.383   1.417  -0.013  0.00  0.00    +0.050 A 
ATOM     14  C   LIG    1        2.397   0.033  -0.021  0.00  0.00    -0.090 A 
ATOM     15  C   LIG    1        1.208  -0.675  -0.013  0.00  0.00    +0.050 A 
ATOM     16 BR   LIG    1        4.045  -0.893  -0.041  0.00  0.00    -0.050 Br
ATOM     17  C   LIG    1        0.002  -0.004   0.002  0.00  0.00    +0.050 A 
ENDBRANCH   7  11
ENDBRANCH   3   5
BRANCH   1  18
ATOM     18  C   LIG    1       -5.588   6.338   0.060  0.00  0.00    +0.260 C 
BRANCH  18  20
ATOM     19  C   LIG    1       -7.481   5.212  -1.120  0.00  0.00    +0.080 C 
ATOM     20  C   LIG    1       -7.100   6.102   0.065  0.00  0.00    +0.170 C 
BRANCH  20  21
ATOM     21  C   LIG    1       -7.816   7.423  -0.048  0.00  0.00    -0.160 A 
ATOM     22  C   LIG    1       -8.684   7.826   0.948  0.00  0.00    +0.100 A 
ATOM     23  C   LIG    1       -9.337   9.040   0.848  0.00  0.00    -0.010 A 
ATOM     24  C   LIG    1       -9.130   9.849  -0.257  0.00  0.00    +0.140 A 
ATOM     25  C   LIG    1       -8.264   9.444  -1.258  0.00  0.00    -0.040 A 
ATOM     26  F   LIG    1       -9.772  11.034  -0.357  0.00  0.00    -0.130 F 
ATOM     27  C   LIG    1       -7.606   8.231  -1.154  0.00  0.00    +0.140 A 
ATOM     28  F   LIG    1       -6.761   7.834  -2.130  0.00  0.00    -0.120 F 
ENDBRANCH  20  21
BRANCH  20  29
ATOM     29  O   LIG    1       -7.478   5.459   1.284  0.00  0.00    -0.540 OA
ATOM     30  H   LIG    1       -7.266   5.968   2.079  0.00  0.00    +0.380 HD
ENDBRANCH  20  29
ENDBRANCH  18  20
ENDBRANCH   1  18
TORSDOF 6
