REMARK  Name = ZINCpk00000xHYOr.0
REMARK                            x       y       z     vdW  Elec       q    Type
REMARK                         _______ _______ _______ _____ _____    ______ ____
ROOT
ATOM      1  N   LIG    1       -2.130   2.898   2.006  0.00  0.00    -0.500 NA
ATOM      2  C   LIG    1       -1.301   3.201   3.192  0.00  0.00    +0.160 C 
ATOM      3  C   LIG    1       -0.253   2.120   3.440  0.00  0.00    +0.220 C 
ATOM      4  O   LIG    1        0.490   1.812   2.246  0.00  0.00    -0.360 OA
ATOM      5  C   LIG    1       -0.382   1.448   1.198  0.00  0.00    +0.160 C 
ATOM      6  C   LIG    1        0.213   1.108  -0.161  0.00  0.00    +0.260 C 
ATOM      7  N   LIG    1       -0.764   1.595  -1.169  0.00  0.00    -0.470 N 
ATOM      8  C   LIG    1       -1.878   2.275  -0.450  0.00  0.00    +0.220 C 
ATOM      9  C   LIG    1       -1.238   2.708   0.871  0.00  0.00    +0.100 C 
ENDROOT
BRANCH   7  10
ATOM     10  C   LIG    1       -1.240   0.549  -1.944  0.00  0.00    +0.380 A 
ATOM     11  C   LIG    1       -1.502   0.730  -3.303  0.00  0.00    -0.050 A 
ATOM     12  N   LIG    1       -1.407   1.784  -4.187  0.00  0.00    -0.570 N 
ATOM     13  H   LIG    1       -1.105   2.683  -3.982  0.00  0.00    +0.430 HD
ATOM     14  C   LIG    1       -1.814   1.331  -5.394  0.00  0.00    +0.540 A 
ATOM     15  N   LIG    1       -2.151   0.074  -5.311  0.00  0.00    -0.490 NA
ATOM     16  C   LIG    1       -1.982  -0.360  -4.047  0.00  0.00    +0.300 A 
ATOM     17  N   LIG    1       -2.170  -1.528  -3.425  0.00  0.00    -0.480 NA
ATOM     18  C   LIG    1       -1.910  -1.651  -2.142  0.00  0.00    +0.530 A 
ATOM     19  N   LIG    1       -1.451  -0.652  -1.411  0.00  0.00    -0.540 NA
ENDBRANCH   7  10
BRANCH   1  20
ATOM     20  C   LIG    1       -3.091   3.978   1.746  0.00  0.00    +0.230 C 
BRANCH  20  24
ATOM     21  C   LIG    1       -5.183   4.922   5.348  0.00  0.00    +0.000 A 
ATOM     22  C   LIG    1       -4.007   5.580   5.040  0.00  0.00    +0.000 A 
ATOM     23  C   LIG    1       -3.330   5.274   3.874  0.00  0.00    +0.010 A 
ATOM     24  C   LIG    1       -3.829   4.311   3.017  0.00  0.00    -0.090 A 
ATOM     25  C   LIG    1       -5.008   3.657   3.323  0.00  0.00    +0.020 A 
ATOM     26  C   LIG    1       -5.683   3.960   4.491  0.00  0.00    +0.000 A 
ENDBRANCH  20  24
ENDBRANCH   1  20
TORSDOF 3
