REMARK  Name = ZINCpe00000VVGak.0
REMARK                            x       y       z     vdW  Elec       q    Type
REMARK                         _______ _______ _______ _____ _____    ______ ____
ROOT
ATOM      1  N   LIG    1        1.140   1.908   0.005  0.00  0.00    -0.740 N 
ATOM      2  H   LIG    1        1.122   2.875  -0.059  0.00  0.00    +0.410 HD
ATOM      3  C   LIG    1       -0.014   1.212   0.009  0.00  0.00    +0.710 C 
ATOM      4  N   LIG    1       -1.194   1.863   0.018  0.00  0.00    -0.620 N 
ATOM      5  C   LIG    1       -1.240   3.329  -0.078  0.00  0.00    +0.260 C 
ATOM      6  C   LIG    1       -2.139   3.710  -1.266  0.00  0.00    +0.300 C 
ATOM      7  N   LIG    1       -3.403   2.968  -1.154  0.00  0.00    -0.990 NA
ATOM      8  C   LIG    1       -3.357   1.502  -1.052  0.00  0.00    +0.300 C 
ATOM      9  C   LIG    1       -2.458   1.121   0.130  0.00  0.00    +0.290 C 
ATOM     10  O   LIG    1        0.009  -0.004  -0.002  0.00  0.00    -0.580 OA
ENDROOT
BRANCH   7  11
ATOM     11  S   LIG    1       -4.852   3.768  -1.141  0.00  0.00    +2.690 S 
ATOM     12  O   LIG    1       -5.831   2.833  -1.575  0.00  0.00    -0.930 OA
ATOM     13  O   LIG    1       -4.628   5.014  -1.787  0.00  0.00    -0.940 OA
BRANCH  11  14
ATOM     14  C   LIG    1       -5.229   4.139   0.539  0.00  0.00    -0.660 A 
ATOM     15  C   LIG    1       -5.285   5.454   0.961  0.00  0.00    +0.160 A 
ATOM     16  C   LIG    1       -5.580   5.746   2.280  0.00  0.00    +0.040 A 
ATOM     17  C   LIG    1       -5.821   4.722   3.178  0.00  0.00    -0.030 A 
ATOM     18  C   LIG    1       -5.765   3.405   2.756  0.00  0.00    +0.050 A 
ATOM     19 BR   LIG    1       -6.224   5.121   4.981  0.00  0.00    -0.020 Br
ATOM     20  C   LIG    1       -5.474   3.114   1.436  0.00  0.00    +0.060 A 
ATOM     21 CL   LIG    1       -5.412   1.463   0.904  0.00  0.00    -0.020 Cl
ENDBRANCH  11  14
ENDBRANCH   7  11
BRANCH   1  22
ATOM     22  C   LIG    1        2.421   1.203   0.100  0.00  0.00    +0.320 C 
BRANCH  22  26
ATOM     23  C   LIG    1        5.921   2.753   0.127  0.00  0.00    +0.290 C 
ATOM     24  N   LIG    1        4.825   1.780   0.151  0.00  0.00    -0.730 N 
ATOM     25  H   LIG    1        5.019   0.833   0.221  0.00  0.00    +0.410 HD
ATOM     26  C   LIG    1        3.547   2.203   0.075  0.00  0.00    +0.510 C 
ATOM     27  O   LIG    1        3.305   3.388  -0.012  0.00  0.00    -0.540 OA
ENDBRANCH  22  26
ENDBRANCH   1  22
TORSDOF 4
