REMARK  Name = ZINCqH0000051yYo.0
REMARK                            x       y       z     vdW  Elec       q    Type
REMARK                         _______ _______ _______ _____ _____    ______ ____
ROOT
ATOM      1  C   LIG    1        5.549   6.548  -0.439  0.00  0.00    +0.350 C 
ENDROOT
BRANCH   1   2
ATOM      2  C   LIG    1        4.420   5.558  -0.309  0.00  0.00    +0.090 A 
ATOM      3  C   LIG    1        3.139   5.926  -0.269  0.00  0.00    -0.100 A 
ATOM      4  S   LIG    1        2.156   4.471  -0.121  0.00  0.00    +0.150 S 
ATOM      5  C   LIG    1        3.567   3.506  -0.118  0.00  0.00    +0.300 A 
ATOM      6  N   LIG    1        4.620   4.255  -0.227  0.00  0.00    -0.530 NA
BRANCH   5   7
ATOM      7  N   LIG    1        3.583   2.122  -0.021  0.00  0.00    -0.630 N 
ATOM      8  H   LIG    1        4.427   1.651   0.062  0.00  0.00    +0.420 HD
BRANCH   7   9
ATOM      9  C   LIG    1        2.383   1.407  -0.042  0.00  0.00    +0.160 A 
ATOM     10  C   LIG    1        2.234   0.272   0.746  0.00  0.00    -0.010 A 
ATOM     11  C   LIG    1        1.047  -0.432   0.722  0.00  0.00    +0.040 A 
ATOM     12  C   LIG    1        0.006  -0.010  -0.085  0.00  0.00    -0.010 A 
ATOM     13  C   LIG    1        0.151   1.118  -0.871  0.00  0.00    +0.050 A 
ATOM     14  C   LIG    1        1.335   1.828  -0.852  0.00  0.00    -0.030 A 
ENDBRANCH   7   9
ENDBRANCH   5   7
ENDBRANCH   1   2
BRANCH   1  15
ATOM     15  O   LIG    1        5.006   7.893  -0.507  0.00  0.00    -0.350 OA
BRANCH  15  17
ATOM     16  O   LIG    1        7.071   8.665  -0.670  0.00  0.00    -0.470 OA
ATOM     17  C   LIG    1        5.886   8.900  -0.626  0.00  0.00    +0.480 C 
BRANCH  17  18
ATOM     18  C   LIG    1        5.397  10.323  -0.702  0.00  0.00    +0.190 C 
ATOM     19  C   LIG    1        4.611  10.531  -2.003  0.00  0.00    +0.270 C 
ATOM     20  O   LIG    1        4.173  11.893  -2.051  0.00  0.00    -0.300 OA
ATOM     21  C   LIG    1        5.098  12.843  -1.742  0.00  0.00    +0.050 A 
ATOM     22  C   LIG    1        4.865  14.162  -2.103  0.00  0.00    +0.030 A 
ATOM     23  C   LIG    1        5.791  15.139  -1.789  0.00  0.00    +0.030 A 
ATOM     24  C   LIG    1        6.951  14.805  -1.116  0.00  0.00    +0.030 A 
ATOM     25  C   LIG    1        7.190  13.492  -0.755  0.00  0.00    +0.030 A 
ATOM     26  C   LIG    1        6.265  12.507  -1.067  0.00  0.00    +0.050 A 
ATOM     27  O   LIG    1        6.515  11.218  -0.707  0.00  0.00    -0.280 OA
ENDBRANCH  17  18
ENDBRANCH  15  17
ENDBRANCH   1  15
TORSDOF 6
