REMARK  Name = ZINCpk00000xPjyc.0
REMARK                            x       y       z     vdW  Elec       q    Type
REMARK                         _______ _______ _______ _____ _____    ______ ____
ROOT
ATOM      1  N   LIG    1        5.474   1.731  -1.424  0.00  0.00    -0.500 NA
ATOM      2  C   LIG    1        5.521   3.058  -2.076  0.00  0.00    +0.190 C 
ATOM      3  C   LIG    1        5.150   2.849  -3.555  0.00  0.00    +0.040 C 
ATOM      4  C   LIG    1        4.861   1.336  -3.689  0.00  0.00    +0.060 C 
ATOM      5  C   LIG    1        4.532   0.916  -2.234  0.00  0.00    +0.260 C 
ENDROOT
BRANCH   5   6
ATOM      6  C   LIG    1        4.793  -0.554  -2.033  0.00  0.00    +0.200 A 
ATOM      7  N   LIG    1        3.893  -1.484  -1.832  0.00  0.00    -0.430 NA
ATOM      8  C   LIG    1        4.585  -2.639  -1.707  0.00  0.00    +0.130 A 
ATOM      9  N   LIG    1        5.852  -2.346  -1.838  0.00  0.00    -0.350 NA
ATOM     10  O   LIG    1        5.987  -1.156  -2.031  0.00  0.00    +0.120 OA
BRANCH   8  11
ATOM     11  C   LIG    1        4.013  -3.987  -1.467  0.00  0.00    +0.610 C 
ATOM     12  N   LIG    1        4.827  -5.056  -1.363  0.00  0.00    -0.690 N 
ATOM     13  H   LIG    1        5.787  -4.944  -1.446  0.00  0.00    +0.410 HD
ATOM     14  O   LIG    1        2.811  -4.127  -1.363  0.00  0.00    -0.490 OA
BRANCH  12  15
ATOM     15  C   LIG    1        4.263  -6.387  -1.126  0.00  0.00    +0.210 C 
ATOM     16  C   LIG    1        4.958  -7.276  -0.092  0.00  0.00    +0.020 C 
ATOM     17  C   LIG    1        5.083  -7.595  -1.583  0.00  0.00    +0.030 C 
ENDBRANCH  12  15
ENDBRANCH   8  11
ENDBRANCH   5   6
BRANCH   1  18
ATOM     18  C   LIG    1        5.012   1.844  -0.034  0.00  0.00    +0.310 C 
BRANCH  18  22
ATOM     19  C   LIG    1        1.250   1.965   0.001  0.00  0.00    -0.150 A 
ATOM     20  C   LIG    1        1.314   3.324   0.008  0.00  0.00    -0.040 A 
ATOM     21  S   LIG    1        2.934   3.854  -0.004  0.00  0.00    +0.210 S 
ATOM     22  C   LIG    1        3.550   2.212  -0.019  0.00  0.00    -0.250 A 
ATOM     23  C   LIG    1        2.551   1.338  -0.009  0.00  0.00    +0.090 A 
BRANCH  19  27
ATOM     24  N   LIG    1       -1.191   1.870   0.018  0.00  0.00    -0.850 N 
ATOM     25  H   LIG    1       -1.204   2.840   0.023  0.00  0.00    +0.400 HD
ATOM     26  H   LIG    1       -2.024   1.374   0.019  0.00  0.00    +0.410 HD
ATOM     27  C   LIG    1       -0.014   1.212   0.009  0.00  0.00    +0.580 C 
ATOM     28  O   LIG    1        0.002  -0.004   0.002  0.00  0.00    -0.520 OA
ENDBRANCH  19  27
ENDBRANCH  18  22
ENDBRANCH   1  18
TORSDOF 6
