REMARK  Name = ZINCvU00000004v3.0
REMARK                            x       y       z     vdW  Elec       q    Type
REMARK                         _______ _______ _______ _____ _____    ______ ____
ROOT
ATOM      1  C   LIG    1       -8.757   4.362   3.755  0.00  0.00    +0.240 C 
ATOM      2  C   LIG    1       -9.027   3.239   2.744  0.00  0.00    +0.280 C 
ATOM      3  N   LIG    1       -7.810   2.420   2.631  0.00  0.00    -0.550 N 
ATOM      4  C   LIG    1       -7.139   2.043   3.803  0.00  0.00    +0.130 A 
ATOM      5  C   LIG    1       -6.213   1.012   3.777  0.00  0.00    +0.020 A 
ATOM      6  C   LIG    1       -5.555   0.648   4.938  0.00  0.00    +0.020 A 
ATOM      7  C   LIG    1       -5.818   1.308   6.124  0.00  0.00    +0.010 A 
ATOM      8  C   LIG    1       -6.741   2.337   6.159  0.00  0.00    +0.040 A 
ATOM      9  C   LIG    1       -7.405   2.708   5.000  0.00  0.00    +0.120 A 
ATOM     10  C   LIG    1       -7.348   2.040   1.424  0.00  0.00    +0.570 C 
ATOM     11  O   LIG    1       -6.186   1.705   1.295  0.00  0.00    -0.490 OA
ATOM     12  N   LIG    1       -8.345   3.749   5.026  0.00  0.00    -0.540 N 
ATOM     13  C   LIG    1       -8.860   4.179   6.195  0.00  0.00    +0.570 C 
ATOM     14  O   LIG    1       -8.366   3.820   7.246  0.00  0.00    -0.500 OA
ENDROOT
BRANCH  10  15
ATOM     15  C   LIG    1       -8.253   2.032   0.255  0.00  0.00    -0.100 A 
ATOM     16  C   LIG    1       -9.059   3.139  -0.015  0.00  0.00    +0.030 A 
ATOM     17  C   LIG    1       -9.899   3.128  -1.110  0.00  0.00    +0.060 A 
ATOM     18  C   LIG    1       -9.952   2.018  -1.934  0.00  0.00    +0.020 A 
ATOM     19  C   LIG    1       -9.159   0.913  -1.669  0.00  0.00    +0.110 A 
ATOM     20  F   LIG    1       -9.216  -0.168  -2.478  0.00  0.00    -0.130 F 
ATOM     21  C   LIG    1       -8.310   0.914  -0.579  0.00  0.00    +0.050 A 
ENDBRANCH  10  15
BRANCH  13  22
ATOM     22  C   LIG    1      -10.025   5.089   6.198  0.00  0.00    -0.100 A 
ATOM     23  C   LIG    1      -10.031   6.223   5.385  0.00  0.00    +0.020 A 
ATOM     24  C   LIG    1      -11.123   7.066   5.388  0.00  0.00    +0.050 A 
ATOM     25  C   LIG    1      -12.207   6.796   6.203  0.00  0.00    +0.010 A 
ATOM     26  C   LIG    1      -12.207   5.675   7.018  0.00  0.00    +0.100 A 
ATOM     27  F   LIG    1      -13.269   5.417   7.812  0.00  0.00    -0.130 F 
ATOM     28  C   LIG    1      -11.121   4.820   7.019  0.00  0.00    +0.040 A 
ENDBRANCH  13  22
BRANCH   1  30
ATOM     29  C   LIG    1       -7.365   6.377   4.251  0.00  0.00    +0.040 C 
ATOM     30  C   LIG    1       -7.640   5.269   3.233  0.00  0.00    -0.020 C 
ATOM     31  C   LIG    1       -8.069   5.892   1.903  0.00  0.00    +0.040 C 
ENDBRANCH   1  30
TORSDOF 3
