REMARK  Name = ZINCpe000000ZxFD.0
REMARK                            x       y       z     vdW  Elec       q    Type
REMARK                         _______ _______ _______ _____ _____    ______ ____
ROOT
ATOM      1  C   LIG    1        1.142   0.166   2.005  0.00  0.00    +0.570 C 
ATOM      2  N   LIG    1        1.100  -0.413   0.788  0.00  0.00    -0.600 N 
ATOM      3  C   LIG    1        1.840  -1.655   0.524  0.00  0.00    +0.260 C 
ATOM      4  C   LIG    1        2.730  -1.446  -0.706  0.00  0.00    +0.010 C 
ATOM      5  C   LIG    1        1.870  -0.966  -1.877  0.00  0.00    +0.010 C 
ATOM      6  C   LIG    1        1.219   0.372  -1.519  0.00  0.00    +0.020 C 
ATOM      7  C   LIG    1        0.312   0.184  -0.299  0.00  0.00    +0.210 C 
ATOM      8  O   LIG    1        0.497   1.173   2.221  0.00  0.00    -0.530 OA
ENDROOT
BRANCH   1  15
ATOM      9  O   LIG    1        5.350  -0.698   7.712  0.00  0.00    -0.530 OA
ATOM     10  C   LIG    1        4.644  -0.770   6.724  0.00  0.00    +0.690 A 
ATOM     11  N   LIG    1        4.084   0.279   6.092  0.00  0.00    -0.630 N 
ATOM     12  H   LIG    1        4.176   1.211   6.345  0.00  0.00    +0.440 HD
ATOM     13  C   LIG    1        3.352  -0.206   5.012  0.00  0.00    +0.040 A 
ATOM     14  C   LIG    1        2.585   0.397   4.032  0.00  0.00    +0.160 A 
ATOM     15  C   LIG    1        1.972  -0.423   3.074  0.00  0.00    -0.180 A 
ATOM     16  C   LIG    1        2.155  -1.806   3.149  0.00  0.00    +0.330 A 
ATOM     17  N   LIG    1        2.898  -2.340   4.095  0.00  0.00    -0.470 NA
ATOM     18  C   LIG    1        3.493  -1.600   5.018  0.00  0.00    +0.330 A 
ATOM     19  N   LIG    1        4.303  -1.912   6.098  0.00  0.00    -0.620 N 
ATOM     20  H   LIG    1        4.579  -2.804   6.359  0.00  0.00    +0.440 HD
ENDBRANCH   1  15
BRANCH   7  21
ATOM     21  C   LIG    1       -0.233   1.542   0.150  0.00  0.00    +0.330 C 
BRANCH  21  22
ATOM     22  N   LIG    1       -0.980   2.156  -0.951  0.00  0.00    -0.620 N 
ATOM     23  C   LIG    1       -2.428   2.015  -1.148  0.00  0.00    +0.250 C 
ATOM     24  C   LIG    1       -2.687   2.436  -2.611  0.00  0.00    +0.040 C 
ATOM     25  C   LIG    1       -1.490   3.376  -2.886  0.00  0.00    +0.040 C 
ATOM     26  C   LIG    1       -0.430   2.924  -1.906  0.00  0.00    +0.510 C 
ATOM     27  O   LIG    1        0.747   3.212  -1.974  0.00  0.00    -0.530 OA
ENDBRANCH  21  22
ENDBRANCH   7  21
TORSDOF 3
