REMARK  Name = ZINCvU0000000H1W.0
REMARK                            x       y       z     vdW  Elec       q    Type
REMARK                         _______ _______ _______ _____ _____    ______ ____
ROOT
ATOM      1  N   LIG    1        4.956  -2.625  -0.835  0.00  0.00    -0.370 N 
ATOM      2  N   LIG    1        3.912  -1.702  -0.658  0.00  0.00    -0.260 NA
ATOM      3  C   LIG    1        2.802  -2.401  -0.562  0.00  0.00    +0.260 A 
ATOM      4  N   LIG    1        3.104  -3.703  -0.665  0.00  0.00    -0.520 NA
ATOM      5  C   LIG    1        4.391  -3.846  -0.834  0.00  0.00    +0.280 A 
ENDROOT
BRANCH   1   9
ATOM      6  C   LIG    1        8.264  -0.128  -3.533  0.00  0.00    +0.060 C 
ATOM      7  C   LIG    1        8.062  -1.057  -2.334  0.00  0.00    +0.160 C 
ATOM      8  C   LIG    1        6.583  -1.437  -2.225  0.00  0.00    +0.010 C 
ATOM      9  C   LIG    1        6.380  -2.318  -0.989  0.00  0.00    +0.270 C 
ATOM     10  C   LIG    1        6.879  -1.565   0.248  0.00  0.00    +0.010 C 
ATOM     11  C   LIG    1        8.346  -1.179   0.044  0.00  0.00    +0.200 C 
ATOM     12  C   LIG    1        9.191  -2.446  -0.099  0.00  0.00    +0.010 C 
ATOM     13  O   LIG    1        8.469  -0.387  -1.139  0.00  0.00    -0.370 OA
ENDBRANCH   1   9
BRANCH   3  14
ATOM     14  C   LIG    1        1.442  -1.842  -0.367  0.00  0.00    +0.240 A 
ATOM     15  C   LIG    1        0.350  -2.700  -0.283  0.00  0.00    -0.050 A 
ATOM     16  C   LIG    1       -0.917  -2.167  -0.100  0.00  0.00    +0.100 A 
ATOM     17  C   LIG    1       -1.051  -0.792  -0.007  0.00  0.00    -0.100 A 
ATOM     18  C   LIG    1        0.083   0.010  -0.100  0.00  0.00    +0.410 A 
ATOM     19  N   LIG    1        1.278  -0.527  -0.280  0.00  0.00    -0.510 NA
BRANCH  18  20
ATOM     20  N   LIG    1       -0.043   1.391  -0.008  0.00  0.00    -0.720 N 
ATOM     21  H   LIG    1       -0.924   1.796   0.040  0.00  0.00    +0.410 HD
BRANCH  20  22
ATOM     22  C   LIG    1        1.154   2.236   0.024  0.00  0.00    +0.180 C 
ATOM     23  C   LIG    1        2.056   1.799   1.180  0.00  0.00    +0.030 C 
ATOM     24  C   LIG    1        0.743   3.696   0.221  0.00  0.00    +0.030 C 
ATOM     25  C   LIG    1        1.912   2.094  -1.297  0.00  0.00    +0.040 C 
ENDBRANCH  20  22
ENDBRANCH  18  20
ENDBRANCH   3  14
BRANCH   5  26
ATOM     26  C   LIG    1        5.120  -5.156  -0.995  0.00  0.00    +0.160 C 
BRANCH  26  27
ATOM     27  C   LIG    1        5.539  -5.678   0.381  0.00  0.00    +0.150 C 
BRANCH  27  28
ATOM     28  C   LIG    1        6.268  -6.987   0.221  0.00  0.00    -0.010 A 
ATOM     29  C   LIG    1        7.594  -7.134   0.053  0.00  0.00    -0.050 A 
ATOM     30  C   LIG    1        7.843  -8.521  -0.054  0.00  0.00    -0.060 A 
ATOM     31  C   LIG    1        6.653  -9.140   0.055  0.00  0.00    +0.160 A 
ATOM     32  O   LIG    1        5.704  -8.206   0.227  0.00  0.00    -0.170 OA
ENDBRANCH  27  28
ENDBRANCH  26  27
ENDBRANCH   5  26
TORSDOF 7
