REMARK  Name = ZINCpe000000TtAE.0
REMARK                            x       y       z     vdW  Elec       q    Type
REMARK                         _______ _______ _______ _____ _____    ______ ____
ROOT
ATOM      1  C   LIG    1       -6.126   5.257  -4.376  0.00  0.00    -0.690 A 
ATOM      2  C   LIG    1       -6.121   6.401  -3.599  0.00  0.00    +0.140 A 
ATOM      3  C   LIG    1       -5.200   6.540  -2.579  0.00  0.00    +0.010 A 
ATOM      4  C   LIG    1       -4.279   5.530  -2.334  0.00  0.00    +0.200 A 
ATOM      5  C   LIG    1       -4.283   4.386  -3.121  0.00  0.00    -0.020 A 
ATOM      6  C   LIG    1       -5.210   4.250  -4.136  0.00  0.00    +0.150 A 
ENDROOT
BRANCH   4   7
ATOM      7  N   LIG    1       -3.345   5.669  -1.302  0.00  0.00    -0.670 N 
ATOM      8  H   LIG    1       -2.450   5.307  -1.405  0.00  0.00    +0.420 HD
ATOM      9  C   LIG    1       -3.687   6.303  -0.164  0.00  0.00    +0.500 C 
ATOM     10  O   LIG    1       -4.777   6.828  -0.066  0.00  0.00    -0.480 OA
BRANCH   9  11
ATOM     11  C   LIG    1       -2.717   6.362   0.988  0.00  0.00    +0.390 C 
BRANCH  11  12
ATOM     12  N   LIG    1       -3.322   7.101   2.099  0.00  0.00    -0.370 N 
ATOM     13  C   LIG    1       -3.475   6.669   3.366  0.00  0.00    +0.520 A 
ATOM     14  N   LIG    1       -4.055   7.614   4.055  0.00  0.00    -0.500 NA
ATOM     15  C   LIG    1       -4.291   8.672   3.265  0.00  0.00    +0.300 A 
ATOM     16  N   LIG    1       -3.860   8.397   2.051  0.00  0.00    -0.230 NA
BRANCH  15  17
ATOM     17  C   LIG    1       -4.913   9.896   3.673  0.00  0.00    +0.300 C 
ATOM     18  N   LIG    1       -5.407  10.867   3.996  0.00  0.00    -0.350 NA
ENDBRANCH  15  17
ENDBRANCH  11  12
ENDBRANCH   9  11
ENDBRANCH   4   7
BRANCH   1  19
ATOM     19  S   LIG    1       -7.303   5.083  -5.676  0.00  0.00    +2.690 S 
ATOM     20  O   LIG    1       -8.395   5.931  -5.345  0.00  0.00    -0.950 OA
ATOM     21  O   LIG    1       -7.444   3.688  -5.905  0.00  0.00    -0.950 OA
BRANCH  19  22
ATOM     22  N   LIG    1       -6.618   5.715  -7.045  0.00  0.00    -1.000 NA
BRANCH  22  24
ATOM     23  C   LIG    1       -6.728   4.336  -9.062  0.00  0.00    +0.010 C 
ATOM     24  C   LIG    1       -5.833   4.856  -7.934  0.00  0.00    +0.280 C 
ENDBRANCH  22  24
BRANCH  22  25
ATOM     25  C   LIG    1       -6.798   7.133  -7.366  0.00  0.00    +0.290 C 
ATOM     26  C   LIG    1       -5.603   7.930  -6.840  0.00  0.00    +0.010 C 
ENDBRANCH  22  25
ENDBRANCH  19  22
ENDBRANCH   1  19
TORSDOF 8
