REMARK  Name = ZINCnE000001Ubd2.0
REMARK                            x       y       z     vdW  Elec       q    Type
REMARK                         _______ _______ _______ _____ _____    ______ ____
ROOT
ATOM      1  C   LIG    1       -0.059   4.524   0.027  0.00  0.00    +0.340 A 
ATOM      2  C   LIG    1        1.152   3.845   0.012  0.00  0.00    -0.060 A 
ATOM      3  C   LIG    1        1.167   2.464   0.004  0.00  0.00    +0.150 A 
ATOM      4  C   LIG    1       -0.022   1.758   0.012  0.00  0.00    -0.740 A 
ATOM      5  C   LIG    1       -1.230   2.431   0.021  0.00  0.00    +0.170 A 
ATOM      6  C   LIG    1       -1.252   3.812   0.035  0.00  0.00    -0.170 A 
ENDROOT
BRANCH   4   7
ATOM      7  S   LIG    1        0.002  -0.004   0.002  0.00  0.00    +2.480 S 
ATOM      8  O   LIG    1        1.238  -0.334  -0.617  0.00  0.00    -0.880 OA
ATOM      9  O   LIG    1       -1.236  -0.368  -0.593  0.00  0.00    -0.880 OA
BRANCH   7  10
ATOM     10  C   LIG    1        0.025  -0.466   1.756  0.00  0.00    -0.030 C 
ATOM     11  F   LIG    1        1.166   0.068   2.364  0.00  0.00    -0.160 F 
ATOM     12  F   LIG    1        0.045  -1.860   1.871  0.00  0.00    -0.170 F 
ATOM     13  F   LIG    1       -1.118   0.037   2.386  0.00  0.00    -0.160 F 
ENDBRANCH   7  10
ENDBRANCH   4   7
BRANCH   1  14
ATOM     14  N   LIG    1       -0.078   5.921   0.034  0.00  0.00    -1.070 NA
BRANCH  14  16
ATOM     15  O   LIG    1       -2.152   6.457  -1.193  0.00  0.00    -1.010 OA
ATOM     16  S   LIG    1       -1.524   6.729   0.052  0.00  0.00    +2.630 S 
ATOM     17  O   LIG    1       -2.127   6.444   1.306  0.00  0.00    -1.010 OA
BRANCH  16  18
ATOM     18  C   LIG    1       -1.157   8.453   0.057  0.00  0.00    -0.720 A 
ATOM     19  C   LIG    1       -1.003   9.209  -1.030  0.00  0.00    +0.150 A 
ATOM     20  C   LIG    1       -0.722  10.542  -0.780  0.00  0.00    +0.010 A 
ATOM     21  C   LIG    1       -0.639  10.865   0.513  0.00  0.00    -0.140 A 
ATOM     22 CL   LIG    1       -0.295  12.451   1.128  0.00  0.00    -0.010 Cl
ATOM     23  S   LIG    1       -0.932   9.437   1.498  0.00  0.00    +0.260 S 
ENDBRANCH  16  18
ENDBRANCH  14  16
ENDBRANCH   1  14
TORSDOF 5
