REMARK  Name = ZINCkj000005gP5n.0
REMARK                            x       y       z     vdW  Elec       q    Type
REMARK                         _______ _______ _______ _____ _____    ______ ____
ROOT
ATOM      1  C   LIG    1        1.751   1.959  -0.985  0.00  0.00    -0.150 A 
ATOM      2  C   LIG    1        2.276   0.759  -0.835  0.00  0.00    +0.030 A 
ATOM      3  C   LIG    1        1.314  -0.326  -0.790  0.00  0.00    -0.180 A 
ATOM      4  C   LIG    1        1.509  -1.724  -0.642  0.00  0.00    +0.390 A 
ATOM      5  N   LIG    1        0.451  -2.521  -0.632  0.00  0.00    -0.560 NA
ATOM      6  C   LIG    1       -0.772  -2.036  -0.757  0.00  0.00    +0.550 A 
ATOM      7  N   LIG    1       -1.004  -0.751  -0.896  0.00  0.00    -0.490 NA
ATOM      8  C   LIG    1        0.001   0.133  -0.919  0.00  0.00    +0.090 A 
ATOM      9  S   LIG    1        0.002   1.882  -1.089  0.00  0.00    +0.210 S 
ENDROOT
BRANCH   4  10
ATOM     10  N   LIG    1        2.783  -2.246  -0.510  0.00  0.00    -0.470 N 
ATOM     11  C   LIG    1        3.633  -1.853  -1.643  0.00  0.00    +0.240 C 
ATOM     12  C   LIG    1        5.046  -2.400  -1.429  0.00  0.00    +0.280 C 
ATOM     13  N   LIG    1        4.994  -3.863  -1.318  0.00  0.00    -0.390 N 
ATOM     14  C   LIG    1        4.162  -4.239  -0.168  0.00  0.00    +0.270 C 
ATOM     15  H   LIG    1        4.597  -4.251  -2.161  0.00  0.00    +0.430 HD
ATOM     16  C   LIG    1        2.741  -3.708  -0.370  0.00  0.00    +0.260 C 
BRANCH  13  17
ATOM     17  C   LIG    1        6.353  -4.389  -1.131  0.00  0.00    +0.280 C 
BRANCH  17  18
ATOM     18  C   LIG    1        6.319  -5.918  -1.169  0.00  0.00    +0.210 C 
BRANCH  18  19
ATOM     19  O   LIG    1        5.890  -6.353  -2.461  0.00  0.00    -0.580 OA
ATOM     20  H   LIG    1        5.844  -7.314  -2.558  0.00  0.00    +0.410 HD
ENDBRANCH  18  19
ENDBRANCH  17  18
ENDBRANCH  13  17
ENDBRANCH   4  10
BRANCH   1  22
ATOM     21  C   LIG    1        2.912   3.525  -2.517  0.00  0.00    +0.040 C 
ATOM     22  C   LIG    1        2.551   3.233  -1.059  0.00  0.00    +0.120 C 
ENDBRANCH   1  22
TORSDOF 5
