REMARK  Name = ZINCvU0000000HCT.0
REMARK                            x       y       z     vdW  Elec       q    Type
REMARK                         _______ _______ _______ _____ _____    ______ ____
ROOT
ATOM      1  C   LIG    1        7.535  -2.819   0.999  0.00  0.00    +0.110 C 
ATOM      2  C   LIG    1        6.264  -2.145   0.552  0.00  0.00    +0.050 A 
ATOM      3  C   LIG    1        6.231  -0.770   0.398  0.00  0.00    -0.010 A 
ATOM      4  C   LIG    1        5.072  -0.147  -0.016  0.00  0.00    +0.100 A 
ATOM      5  C   LIG    1        3.928  -0.905  -0.270  0.00  0.00    -0.160 A 
ATOM      6  C   LIG    1        3.968  -2.292  -0.114  0.00  0.00    +0.210 A 
ATOM      7  C   LIG    1        5.135  -2.903   0.296  0.00  0.00    -0.690 A 
ENDROOT
BRANCH   5   8
ATOM      8  C   LIG    1        2.681  -0.243  -0.709  0.00  0.00    +0.560 C 
ATOM      9  N   LIG    1        2.646   1.096  -0.859  0.00  0.00    -0.670 N 
ATOM     10  H   LIG    1        3.454   1.619  -0.738  0.00  0.00    +0.410 HD
ATOM     11  O   LIG    1        1.688  -0.907  -0.934  0.00  0.00    -0.510 OA
BRANCH   9  12
ATOM     12  C   LIG    1        1.446   1.730  -1.189  0.00  0.00    +0.160 A 
ATOM     13  C   LIG    1        0.532   1.101  -2.022  0.00  0.00    +0.020 A 
ATOM     14  C   LIG    1       -0.652   1.732  -2.351  0.00  0.00    +0.030 A 
ATOM     15  C   LIG    1       -0.938   2.988  -1.846  0.00  0.00    +0.000 A 
ATOM     16  C   LIG    1       -0.038   3.626  -1.016  0.00  0.00    +0.040 A 
ATOM     17  C   LIG    1        1.161   3.002  -0.680  0.00  0.00    -0.070 A 
BRANCH  17  18
ATOM     18  C   LIG    1        2.131   3.683   0.211  0.00  0.00    -0.050 A 
ATOM     19  C   LIG    1        2.655   3.014   1.316  0.00  0.00    +0.010 A 
ATOM     20  C   LIG    1        3.561   3.651   2.140  0.00  0.00    +0.000 A 
ATOM     21  C   LIG    1        3.941   4.954   1.877  0.00  0.00    +0.000 A 
ATOM     22  C   LIG    1        3.420   5.626   0.785  0.00  0.00    +0.010 A 
ATOM     23  C   LIG    1        2.517   4.997  -0.048  0.00  0.00    +0.030 A 
ENDBRANCH  17  18
ENDBRANCH   9  12
ENDBRANCH   5   8
BRANCH   7  24
ATOM     24  S   LIG    1        5.188  -4.653   0.494  0.00  0.00    +2.690 S 
ATOM     25  O   LIG    1        3.878  -5.128   0.217  0.00  0.00    -0.950 OA
ATOM     26  O   LIG    1        5.860  -4.897   1.722  0.00  0.00    -0.950 OA
BRANCH  24  27
ATOM     27  N   LIG    1        6.165  -5.252  -0.701  0.00  0.00    -0.990 NA
ATOM     28  C   LIG    1        5.616  -5.575  -2.025  0.00  0.00    +0.290 C 
ATOM     29  C   LIG    1        6.446  -4.841  -3.090  0.00  0.00    +0.010 C 
ATOM     30  C   LIG    1        7.923  -5.204  -2.916  0.00  0.00    +0.020 C 
ATOM     31  C   LIG    1        8.402  -4.750  -1.535  0.00  0.00    +0.010 C 
ATOM     32  C   LIG    1        7.596  -5.478  -0.455  0.00  0.00    +0.290 C 
ENDBRANCH  24  27
ENDBRANCH   7  24
TORSDOF 5
