REMARK  Name = ZINCpk00000KfLE4.0
REMARK                            x       y       z     vdW  Elec       q    Type
REMARK                         _______ _______ _______ _____ _____    ______ ____
ROOT
ATOM      1  N   LIG    1        0.173   3.954   0.387  0.00  0.00    -0.530 NA
ATOM      2  C   LIG    1       -0.039   2.590   0.890  0.00  0.00    +0.200 C 
ATOM      3  C   LIG    1        0.205   1.588  -0.241  0.00  0.00    +0.200 C 
ATOM      4  N   LIG    1       -0.704   1.883  -1.358  0.00  0.00    -0.510 NA
ATOM      5  C   LIG    1       -0.491   3.247  -1.861  0.00  0.00    +0.200 C 
ATOM      6  C   LIG    1       -0.736   4.249  -0.730  0.00  0.00    +0.190 C 
ENDROOT
BRANCH   1   7
ATOM      7  C   LIG    1        0.021   4.942   1.464  0.00  0.00    +0.270 C 
ATOM      8  C   LIG    1        0.950   4.579   2.624  0.00  0.00    +0.080 C 
BRANCH   7  13
ATOM      9  C   LIG    1        0.042   9.842   0.434  0.00  0.00    +0.210 C 
ATOM     10  C   LIG    1        0.399   8.380   0.501  0.00  0.00    +0.170 A 
ATOM     11  N   LIG    1        1.425   7.812  -0.059  0.00  0.00    -0.390 NA
ATOM     12  O   LIG    1        1.434   6.625   0.188  0.00  0.00    +0.090 OA
ATOM     13  C   LIG    1        0.378   6.311   0.944  0.00  0.00    +0.190 A 
ATOM     14  N   LIG    1       -0.286   7.423   1.152  0.00  0.00    -0.480 NA
ENDBRANCH   7  13
ENDBRANCH   1   7
BRANCH   4  15
ATOM     15  C   LIG    1       -0.552   0.895  -2.434  0.00  0.00    +0.180 C 
BRANCH  15  16
ATOM     16  C   LIG    1       -0.758  -0.490  -1.878  0.00  0.00    -0.100 A 
ATOM     17  C   LIG    1       -1.831  -0.747  -1.045  0.00  0.00    +0.090 A 
ATOM     18  C   LIG    1       -2.024  -2.018  -0.539  0.00  0.00    -0.020 A 
ATOM     19  C   LIG    1       -1.136  -3.032  -0.857  0.00  0.00    +0.110 A 
ATOM     20  C   LIG    1       -0.059  -2.772  -1.688  0.00  0.00    -0.020 A 
ATOM     21  F   LIG    1       -1.321  -4.274  -0.358  0.00  0.00    -0.140 F 
ATOM     22  C   LIG    1        0.129  -1.502  -2.197  0.00  0.00    +0.050 A 
ENDBRANCH  15  16
BRANCH  15  23
ATOM     23  C   LIG    1       -1.574   1.162  -3.509  0.00  0.00    +0.520 C 
ATOM     24  O   LIG    1       -2.626   1.694  -3.226  0.00  0.00    -0.520 OA
ATOM     25  N   LIG    1       -1.318   0.810  -4.785  0.00  0.00    -0.850 N 
ATOM     26  H   LIG    1       -1.976   0.982  -5.477  0.00  0.00    +0.410 HD
ATOM     27  H   LIG    1       -0.476   0.385  -5.011  0.00  0.00    +0.400 HD
ENDBRANCH  15  23
ENDBRANCH   4  15
TORSDOF 5
