REMARK  Name = ZINCrH000004tqK6.0
REMARK                            x       y       z     vdW  Elec       q    Type
REMARK                         _______ _______ _______ _____ _____    ______ ____
ROOT
ATOM      1  C   LIG    1        1.308  -0.601   0.043  0.00  0.00    -0.110 A 
ATOM      2  C   LIG    1        2.450   0.194   0.135  0.00  0.00    +0.040 A 
ATOM      3  C   LIG    1        2.332   1.568   0.182  0.00  0.00    +0.020 A 
ATOM      4  C   LIG    1        1.083   2.166   0.139  0.00  0.00    +0.030 A 
ATOM      5  C   LIG    1       -0.059   1.394   0.049  0.00  0.00    +0.030 A 
ATOM      6  C   LIG    1        0.041   0.007  -0.001  0.00  0.00    -0.010 A 
ENDROOT
BRANCH   1  12
ATOM      7  C   LIG    1        4.495  -3.796  -2.131  0.00  0.00    -0.010 C 
ATOM      8  C   LIG    1        3.723  -4.548  -1.043  0.00  0.00    +0.060 C 
ATOM      9  C   LIG    1        2.254  -4.115  -1.074  0.00  0.00    +0.280 C 
ATOM     10  N   LIG    1        2.188  -2.652  -0.959  0.00  0.00    -0.610 N 
ATOM     11  C   LIG    1        2.962  -1.834  -1.903  0.00  0.00    +0.280 C 
ATOM     12  C   LIG    1        1.429  -2.071  -0.009  0.00  0.00    +0.560 C 
ATOM     13  O   LIG    1        0.844  -2.759   0.806  0.00  0.00    -0.520 OA
ATOM     14  C   LIG    1        4.428  -2.292  -1.859  0.00  0.00    +0.030 C 
BRANCH   7  18
ATOM     15  N   LIG    1        6.807  -3.714  -3.004  0.00  0.00    -0.860 N 
ATOM     16  H   LIG    1        7.733  -4.003  -3.001  0.00  0.00    +0.400 HD
ATOM     17  H   LIG    1        6.510  -3.045  -3.640  0.00  0.00    +0.400 HD
ATOM     18  C   LIG    1        5.933  -4.244  -2.126  0.00  0.00    +0.520 C 
ATOM     19  O   LIG    1        6.305  -5.081  -1.331  0.00  0.00    -0.540 OA
ENDBRANCH   7  18
ENDBRANCH   1  12
BRANCH   6  20
ATOM     20  C   LIG    1       -1.182  -0.825  -0.097  0.00  0.00    -0.010 A 
ATOM     21  C   LIG    1       -1.325  -1.741  -1.139  0.00  0.00    +0.030 A 
ATOM     22  C   LIG    1       -2.463  -2.516  -1.221  0.00  0.00    +0.080 A 
ATOM     23  C   LIG    1       -3.466  -2.379  -0.279  0.00  0.00    -0.180 A 
ATOM     24  C   LIG    1       -3.333  -1.468   0.754  0.00  0.00    +0.070 A 
ATOM     25  C   LIG    1       -2.197  -0.691   0.849  0.00  0.00    +0.040 A 
BRANCH  23  26
ATOM     26  C   LIG    1       -4.710  -3.225  -0.377  0.00  0.00    +0.510 C 
ATOM     27  F   LIG    1       -5.223  -3.451   0.904  0.00  0.00    -0.180 F 
ATOM     28  F   LIG    1       -4.394  -4.449  -0.976  0.00  0.00    -0.180 F 
ATOM     29  F   LIG    1       -5.666  -2.559  -1.152  0.00  0.00    -0.180 F 
ENDBRANCH  23  26
ENDBRANCH   6  20
TORSDOF 4
