REMARK  Name = ZINCvU00000006gR.0
REMARK                            x       y       z     vdW  Elec       q    Type
REMARK                         _______ _______ _______ _____ _____    ______ ____
ROOT
ATOM      1  C   LIG    1        4.025   1.461   2.189  0.00  0.00    -0.690 A 
ATOM      2  C   LIG    1        4.660   0.284   2.547  0.00  0.00    +0.180 A 
ATOM      3  C   LIG    1        4.755  -0.081   3.878  0.00  0.00    +0.020 A 
ATOM      4  C   LIG    1        4.218   0.729   4.859  0.00  0.00    +0.070 A 
ATOM      5  C   LIG    1        3.575   1.918   4.504  0.00  0.00    -0.150 A 
ATOM      6 CL   LIG    1        4.338   0.270   6.529  0.00  0.00    -0.000 Cl
ATOM      7  C   LIG    1        3.488   2.281   3.159  0.00  0.00    +0.180 A 
ENDROOT
BRANCH   5   8
ATOM      8  C   LIG    1        2.997   2.789   5.548  0.00  0.00    +0.560 C 
ATOM      9  N   LIG    1        2.379   3.936   5.202  0.00  0.00    -0.660 N 
ATOM     10  H   LIG    1        2.254   4.156   4.265  0.00  0.00    +0.410 HD
ATOM     11  O   LIG    1        3.080   2.473   6.718  0.00  0.00    -0.480 OA
BRANCH   9  12
ATOM     12  C   LIG    1        1.916   4.807   6.192  0.00  0.00    +0.160 A 
ATOM     13  C   LIG    1        1.530   4.311   7.431  0.00  0.00    +0.040 A 
ATOM     14  C   LIG    1        1.079   5.176   8.410  0.00  0.00    -0.020 A 
ATOM     15  C   LIG    1        1.002   6.534   8.153  0.00  0.00    +0.020 A 
ATOM     16  C   LIG    1        1.380   7.030   6.918  0.00  0.00    +0.050 A 
ATOM     17 CL   LIG    1        0.603   4.559   9.961  0.00  0.00    -0.060 Cl
ATOM     18  C   LIG    1        1.837   6.171   5.938  0.00  0.00    -0.110 A 
ATOM     19  C   LIG    1        2.249   6.712   4.594  0.00  0.00    +0.110 C 
ENDBRANCH   9  12
ENDBRANCH   5   8
BRANCH   1  20
ATOM     20  S   LIG    1        3.910   1.915   0.491  0.00  0.00    +2.680 S 
ATOM     21  O   LIG    1        3.742   3.326   0.464  0.00  0.00    -0.940 OA
ATOM     22  O   LIG    1        4.970   1.245  -0.177  0.00  0.00    -0.930 OA
BRANCH  20  23
ATOM     23  N   LIG    1        2.504   1.266  -0.096  0.00  0.00    -0.940 N 
BRANCH  23  24
ATOM     24  C   LIG    1        1.334   2.029  -0.107  0.00  0.00    +0.130 A 
ATOM     25  C   LIG    1        1.286   3.219  -0.823  0.00  0.00    +0.030 A 
ATOM     26  C   LIG    1        0.129   3.973  -0.828  0.00  0.00    +0.020 A 
ATOM     27  C   LIG    1       -0.984   3.540  -0.132  0.00  0.00    +0.020 A 
ATOM     28  C   LIG    1       -0.940   2.357   0.582  0.00  0.00    +0.020 A 
ATOM     29  C   LIG    1        0.216   1.600   0.596  0.00  0.00    +0.010 A 
ENDBRANCH  23  24
BRANCH  23  30
ATOM     30  C   LIG    1        2.487  -0.108  -0.603  0.00  0.00    +0.330 C 
BRANCH  30  32
ATOM     31  C   LIG    1        3.649  -0.794  -2.637  0.00  0.00    +0.050 C 
ATOM     32  C   LIG    1        2.682  -0.095  -2.097  0.00  0.00    -0.080 C 
ENDBRANCH  30  32
ENDBRANCH  23  30
ENDBRANCH  20  23
ENDBRANCH   1  20
TORSDOF 7
