REMARK  Name = ZINCvU00000005Pk.0
REMARK                            x       y       z     vdW  Elec       q    Type
REMARK                         _______ _______ _______ _____ _____    ______ ____
ROOT
ATOM      1  C   LIG    1        6.285  -2.882  -1.513  0.00  0.00    +0.450 C 
ATOM      2  O   LIG    1        5.580  -3.870  -1.511  0.00  0.00    -0.460 OA
ENDROOT
BRANCH   1   6
ATOM      3  C   LIG    1        5.673   2.176  -1.496  0.00  0.00    +0.120 C 
ATOM      4  C   LIG    1        5.427   0.689  -1.494  0.00  0.00    +0.010 A 
ATOM      5  C   LIG    1        6.380  -0.258  -1.501  0.00  0.00    +0.000 A 
ATOM      6  C   LIG    1        5.679  -1.549  -1.501  0.00  0.00    -0.270 A 
ATOM      7  C   LIG    1        4.330  -1.248  -1.487  0.00  0.00    +0.120 A 
ATOM      8  C   LIG    1        3.201  -2.246  -1.481  0.00  0.00    +0.150 C 
ATOM      9  N   LIG    1        4.200   0.091  -1.479  0.00  0.00    -0.430 N 
BRANCH   9  10
ATOM     10  C   LIG    1        2.922   0.806  -1.464  0.00  0.00    +0.290 C 
BRANCH  10  11
ATOM     11  C   LIG    1        2.490   1.048  -0.016  0.00  0.00    +0.070 C 
BRANCH  11  12
ATOM     12  C   LIG    1        1.175   1.783   0.000  0.00  0.00    -0.090 A 
ATOM     13  C   LIG    1       -0.013   1.076   0.008  0.00  0.00    +0.010 A 
ATOM     14  C   LIG    1       -1.219   1.751   0.017  0.00  0.00    +0.000 A 
ATOM     15  C   LIG    1       -1.238   3.133   0.029  0.00  0.00    +0.000 A 
ATOM     16  C   LIG    1       -0.050   3.840   0.022  0.00  0.00    +0.000 A 
ATOM     17  C   LIG    1        1.156   3.165   0.008  0.00  0.00    +0.010 A 
ENDBRANCH  11  12
ENDBRANCH  10  11
ENDBRANCH   9  10
ENDBRANCH   1   6
BRANCH   1  18
ATOM     18  C   LIG    1        7.785  -3.028  -1.528  0.00  0.00    +0.100 C 
BRANCH  18  19
ATOM     19  S   LIG    1        8.221  -4.785  -1.540  0.00  0.00    +0.050 S 
BRANCH  19  20
ATOM     20  C   LIG    1        9.979  -4.664  -1.557  0.00  0.00    +0.150 A 
ATOM     21  N   LIG    1       10.685  -3.557  -1.564  0.00  0.00    -0.290 NA
ATOM     22  N   LIG    1       11.939  -3.840  -1.573  0.00  0.00    -0.270 NA
ATOM     23  C   LIG    1       12.107  -5.132  -1.580  0.00  0.00    +0.190 A 
ATOM     24  N   LIG    1       10.864  -5.703  -1.570  0.00  0.00    -0.460 N 
ATOM     25  C   LIG    1       10.548  -7.134  -1.573  0.00  0.00    +0.350 C 
BRANCH  23  26
ATOM     26  C   LIG    1       13.425  -5.861  -1.596  0.00  0.00    +0.260 C 
BRANCH  26  27
ATOM     27  C   LIG    1       13.850  -6.098  -3.022  0.00  0.00    -0.190 A 
ATOM     28  C   LIG    1       14.591  -5.263  -3.753  0.00  0.00    +0.040 A 
ATOM     29  C   LIG    1       14.859  -5.696  -5.040  0.00  0.00    +0.010 A 
ATOM     30  C   LIG    1       14.329  -6.878  -5.358  0.00  0.00    -0.030 A 
ATOM     31  S   LIG    1       13.440  -7.515  -3.980  0.00  0.00    +0.090 S 
ENDBRANCH  26  27
ENDBRANCH  23  26
ENDBRANCH  19  20
ENDBRANCH  18  19
ENDBRANCH   1  18
TORSDOF 9
