REMARK  Name = ZINCrg00000J3hZl.0
REMARK                            x       y       z     vdW  Elec       q    Type
REMARK                         _______ _______ _______ _____ _____    ______ ____
ROOT
ATOM      1  C   LIG    1       -0.011   1.188   0.056  0.00  0.00    +0.090 C 
ATOM      2  C   LIG    1       -0.748   1.694   1.297  0.00  0.00    +0.200 C 
ENDROOT
BRANCH   2   3
ATOM      3  C   LIG    1       -0.020   1.236   2.535  0.00  0.00    +0.510 C 
ATOM      4  N   LIG    1        1.223   1.688   2.792  0.00  0.00    -0.620 N 
ATOM      5  H   LIG    1        1.649   2.309   2.181  0.00  0.00    +0.440 HD
ATOM      6  O   LIG    1       -0.553   0.460   3.299  0.00  0.00    -0.480 OA
BRANCH   4   7
ATOM      7  C   LIG    1        1.892   1.267   3.931  0.00  0.00    +0.080 A 
ATOM      8  C   LIG    1        3.157   1.661   4.283  0.00  0.00    -0.240 A 
ATOM      9  C   LIG    1        3.605   1.068   5.524  0.00  0.00    +0.060 A 
ATOM     10  C   LIG    1        2.709   0.256   6.066  0.00  0.00    -0.110 A 
ATOM     11  S   LIG    1        1.258   0.182   5.082  0.00  0.00    +0.300 S 
BRANCH   8  12
ATOM     12  C   LIG    1        3.968   2.588   3.488  0.00  0.00    +0.590 C 
ATOM     13  O   LIG    1        3.524   3.052   2.454  0.00  0.00    -0.560 OA
ATOM     14  N   LIG    1        5.205   2.927   3.902  0.00  0.00    -0.850 N 
ATOM     15  H   LIG    1        5.742   3.541   3.376  0.00  0.00    +0.410 HD
ATOM     16  H   LIG    1        5.559   2.557   4.726  0.00  0.00    +0.400 HD
ENDBRANCH   8  12
ENDBRANCH   4   7
ENDBRANCH   2   3
BRANCH   2  17
ATOM     17  O   LIG    1       -2.100   1.164   1.307  0.00  0.00    -0.320 OA
BRANCH  17  18
ATOM     18  C   LIG    1       -3.049   1.899   0.695  0.00  0.00    +0.510 C 
ATOM     19  O   LIG    1       -2.755   2.954   0.168  0.00  0.00    -0.460 OA
BRANCH  18  20
ATOM     20  C   LIG    1       -4.445   1.424   0.665  0.00  0.00    -0.100 A 
ATOM     21  C   LIG    1       -5.100   1.094   1.853  0.00  0.00    +0.100 A 
ATOM     22  C   LIG    1       -6.407   0.656   1.818  0.00  0.00    +0.040 A 
ATOM     23  C   LIG    1       -7.070   0.529   0.609  0.00  0.00    +0.090 A 
ATOM     24  C   LIG    1       -6.432   0.847  -0.574  0.00  0.00    +0.020 A 
ATOM     25  C   LIG    1       -5.120   1.295  -0.558  0.00  0.00    +0.180 A 
BRANCH  25  26
ATOM     26  N   LIG    1       -4.473   1.616  -1.755  0.00  0.00    -0.340 N 
ATOM     27  C   LIG    1       -5.012   1.661  -2.993  0.00  0.00    +0.470 A 
ATOM     28  N   LIG    1       -4.059   2.004  -3.819  0.00  0.00    -0.320 NA
ATOM     29  N   LIG    1       -2.954   2.179  -3.188  0.00  0.00    -0.030 NA
ATOM     30  N   LIG    1       -3.122   1.968  -1.928  0.00  0.00    -0.050 NA
ENDBRANCH  25  26
ENDBRANCH  18  20
ENDBRANCH  17  18
ENDBRANCH   2  17
TORSDOF 7
