REMARK  Name = ZINCpk00000y6vyh.0
REMARK                            x       y       z     vdW  Elec       q    Type
REMARK                         _______ _______ _______ _____ _____    ______ ____
ROOT
ATOM      1  C   LIG    1       -2.333   6.653   0.057  0.00  0.00    +0.620 C 
ATOM      2  N   LIG    1       -1.605   7.787   0.055  0.00  0.00    -0.610 N 
ATOM      3  C   LIG    1       -0.128   7.919   0.041  0.00  0.00    +0.290 C 
ATOM      4  C   LIG    1        0.146   9.080   1.038  0.00  0.00    +0.000 C 
ATOM      5  C   LIG    1        0.399   8.465   2.402  0.00  0.00    +0.220 C 
ATOM      6  O   LIG    1       -0.060   9.279   3.471  0.00  0.00    -0.370 OA
ATOM      7  C   LIG    1       -1.468   9.541   3.393  0.00  0.00    +0.220 C 
ATOM      8  C   LIG    1       -1.694  10.474   2.207  0.00  0.00    +0.030 C 
ATOM      9  C   LIG    1       -1.092   9.950   0.938  0.00  0.00    -0.070 C 
ATOM     10  C   LIG    1       -2.101   9.184   0.060  0.00  0.00    +0.300 C 
ATOM     11  O   LIG    1       -3.549   6.709   0.069  0.00  0.00    -0.500 OA
ENDROOT
BRANCH   1  13
ATOM     12  C   LIG    1       -2.292   4.141   0.045  0.00  0.00    +0.110 A 
ATOM     13  C   LIG    1       -1.662   5.354   0.044  0.00  0.00    -0.050 A 
ATOM     14  O   LIG    1       -0.323   5.168   0.031  0.00  0.00    -0.170 OA
ATOM     15  C   LIG    1       -0.018   3.855   0.022  0.00  0.00    +0.080 A 
ATOM     16  C   LIG    1        1.186   3.160   0.007  0.00  0.00    +0.030 A 
ATOM     17  C   LIG    1        1.182   1.782   0.000  0.00  0.00    +0.070 A 
ATOM     18  C   LIG    1       -0.013   1.076   0.008  0.00  0.00    +0.000 A 
ATOM     19  C   LIG    1       -1.208   1.739   0.017  0.00  0.00    +0.080 A 
ATOM     20  C   LIG    1       -1.226   3.134   0.030  0.00  0.00    -0.160 A 
BRANCH  12  22
ATOM     21  C   LIG    1       -4.256   3.801   1.334  0.00  0.00    +0.240 C 
ATOM     22  O   LIG    1       -3.628   3.916   0.056  0.00  0.00    -0.290 OA
ENDBRANCH  12  22
ENDBRANCH   1  13
BRANCH   9  23
ATOM     23  C   LIG    1       -0.692  11.164   0.139  0.00  0.00    +0.520 C 
ATOM     24  O   LIG    1        0.444  11.272  -0.272  0.00  0.00    -0.530 OA
ATOM     25  N   LIG    1       -1.596  12.130  -0.118  0.00  0.00    -0.850 N 
ATOM     26  H   LIG    1       -1.338  12.911  -0.632  0.00  0.00    +0.410 HD
ATOM     27  H   LIG    1       -2.505  12.044   0.211  0.00  0.00    +0.400 HD
ENDBRANCH   9  23
TORSDOF 3
