REMARK  Name = ZINCrD000001YLBM.0
REMARK                            x       y       z     vdW  Elec       q    Type
REMARK                         _______ _______ _______ _____ _____    ______ ____
ROOT
ATOM      1  C   LIG    1        5.051  -0.061  -2.016  0.00  0.00    +0.560 C 
ATOM      2  N   LIG    1        5.061   1.198  -1.536  0.00  0.00    -0.610 N 
ATOM      3  C   LIG    1        5.483   2.306  -2.397  0.00  0.00    +0.290 C 
ATOM      4  O   LIG    1        4.583  -0.962  -1.348  0.00  0.00    -0.530 OA
ENDROOT
BRANCH   1   8
ATOM      5  C   LIG    1        6.652  -0.881  -5.864  0.00  0.00    -0.080 A 
ATOM      6  C   LIG    1        5.759  -1.766  -5.287  0.00  0.00    +0.020 A 
ATOM      7  C   LIG    1        5.235  -1.506  -4.037  0.00  0.00    +0.080 A 
ATOM      8  C   LIG    1        5.608  -0.347  -3.355  0.00  0.00    -0.130 A 
ATOM      9  C   LIG    1        6.506   0.544  -3.945  0.00  0.00    +0.040 A 
ATOM     10  C   LIG    1        7.026   0.270  -5.193  0.00  0.00    +0.020 A 
BRANCH   5  11
ATOM     11  C   LIG    1        7.219  -1.172  -7.230  0.00  0.00    +0.320 C 
BRANCH  11  13
ATOM     12  C   LIG    1        6.663  -0.718  -9.558  0.00  0.00    +0.540 C 
ATOM     13  N   LIG    1        6.351  -0.585  -8.254  0.00  0.00    -0.720 N 
ATOM     14  H   LIG    1        5.553  -0.099  -7.993  0.00  0.00    +0.400 HD
ATOM     15  O   LIG    1        7.664  -1.327  -9.885  0.00  0.00    -0.540 OA
BRANCH  12  17
ATOM     16  C   LIG    1        6.099  -0.261 -11.874  0.00  0.00    +0.150 C 
ATOM     17  C   LIG    1        5.791  -0.129 -10.587  0.00  0.00    -0.090 C 
ENDBRANCH  12  17
ENDBRANCH  11  13
ENDBRANCH   5  11
ENDBRANCH   1   8
BRANCH   2  18
ATOM     18  C   LIG    1        4.651   1.459  -0.154  0.00  0.00    +0.340 C 
BRANCH  18  19
ATOM     19  C   LIG    1        3.168   1.724  -0.112  0.00  0.00    -0.090 A 
ATOM     20  C   LIG    1        2.306   0.685   0.065  0.00  0.00    +0.060 A 
ATOM     21  C   LIG    1        0.926   0.932   0.105  0.00  0.00    -0.030 A 
ATOM     22  C   LIG    1       -0.015  -0.098   0.285  0.00  0.00    -0.010 A 
ATOM     23  C   LIG    1       -1.339   0.224   0.306  0.00  0.00    +0.230 A 
ATOM     24  N   LIG    1       -1.758   1.475   0.173  0.00  0.00    -0.490 NA
ATOM     25  C   LIG    1       -0.937   2.485   0.003  0.00  0.00    +0.300 A 
ATOM     26  C   LIG    1        0.448   2.261  -0.040  0.00  0.00    -0.110 A 
ATOM     27  C   LIG    1        1.367   3.306  -0.221  0.00  0.00    +0.040 A 
ATOM     28  C   LIG    1        2.700   3.030  -0.254  0.00  0.00    +0.020 A 
ENDBRANCH  18  19
ENDBRANCH   2  18
TORSDOF 6
