REMARK  Name = ZINCtV000002qPLm.0
REMARK                            x       y       z     vdW  Elec       q    Type
REMARK                         _______ _______ _______ _____ _____    ______ ____
ROOT
ATOM      1  N   LIG    1       -2.978   4.354  -1.163  0.00  0.00    -0.980 NA
ENDROOT
BRANCH   1   2
ATOM      2  S   LIG    1       -4.225   3.533  -1.880  0.00  0.00    +2.690 S 
ATOM      3  O   LIG    1       -4.377   2.321  -1.155  0.00  0.00    -0.940 OA
ATOM      4  O   LIG    1       -3.982   3.576  -3.280  0.00  0.00    -0.950 OA
BRANCH   2   5
ATOM      5  C   LIG    1       -5.693   4.468  -1.601  0.00  0.00    -0.670 A 
ATOM      6  C   LIG    1       -6.427   4.272  -0.447  0.00  0.00    +0.130 A 
ATOM      7  C   LIG    1       -7.576   5.009  -0.225  0.00  0.00    +0.010 A 
ATOM      8  C   LIG    1       -7.996   5.933  -1.162  0.00  0.00    +0.090 A 
ATOM      9  C   LIG    1       -7.265   6.125  -2.321  0.00  0.00    -0.050 A 
ATOM     10 CL   LIG    1       -7.792   7.286  -3.499  0.00  0.00    -0.060 Cl
ATOM     11  C   LIG    1       -6.112   5.392  -2.540  0.00  0.00    +0.140 A 
ENDBRANCH   2   5
ENDBRANCH   1   2
BRANCH   1  12
ATOM     12  C   LIG    1       -2.713   4.180   0.267  0.00  0.00    +0.350 C 
BRANCH  12  16
ATOM     13  C   LIG    1        0.346   1.248   0.803  0.00  0.00    -0.060 A 
ATOM     14  C   LIG    1       -0.984   0.880   0.877  0.00  0.00    +0.000 A 
ATOM     15  C   LIG    1       -1.974   1.828   0.698  0.00  0.00    +0.040 A 
ATOM     16  C   LIG    1       -1.634   3.146   0.456  0.00  0.00    -0.120 A 
ATOM     17  C   LIG    1       -0.303   3.513   0.382  0.00  0.00    +0.020 A 
ATOM     18  C   LIG    1        0.687   2.564   0.555  0.00  0.00    +0.000 A 
BRANCH  13  20
ATOM     19  C   LIG    1        1.283  -0.874  -0.075  0.00  0.00    +0.040 C 
ATOM     20  C   LIG    1        1.426   0.213   0.992  0.00  0.00    -0.030 C 
ATOM     21  C   LIG    1        1.292  -0.415   2.381  0.00  0.00    +0.040 C 
ATOM     22  C   LIG    1        2.798   0.878   0.863  0.00  0.00    +0.040 C 
ENDBRANCH  13  20
ENDBRANCH  12  16
ENDBRANCH   1  12
BRANCH   1  23
ATOM     23  C   LIG    1       -2.140   5.254  -1.960  0.00  0.00    +0.350 C 
BRANCH  23  24
ATOM     24  C   LIG    1       -2.663   6.662  -1.844  0.00  0.00    -0.110 A 
ATOM     25  C   LIG    1       -3.514   7.164  -2.811  0.00  0.00    +0.010 A 
ATOM     26  C   LIG    1       -3.998   8.455  -2.702  0.00  0.00    +0.010 A 
ATOM     27  C   LIG    1       -3.623   9.246  -1.633  0.00  0.00    +0.010 A 
ATOM     28  C   LIG    1       -2.768   8.745  -0.669  0.00  0.00    +0.000 A 
ATOM     29  C   LIG    1       -2.288   7.453  -0.775  0.00  0.00    +0.020 A 
ENDBRANCH  23  24
ENDBRANCH   1  23
TORSDOF 7
