REMARK  Name = ZINCpk00000KfKuu.0
REMARK                            x       y       z     vdW  Elec       q    Type
REMARK                         _______ _______ _______ _____ _____    ______ ____
ROOT
ATOM      1  C   LIG    1        1.379   1.042   0.157  0.00  0.00    +0.340 A 
ATOM      2  C   LIG    1        0.155   0.384   0.256  0.00  0.00    -0.030 A 
ATOM      3  C   LIG    1       -0.998   1.101  -0.035  0.00  0.00    -0.050 A 
ATOM      4  C   LIG    1       -0.874   2.431  -0.385  0.00  0.00    +0.030 A 
ATOM      5  N   LIG    1        0.333   2.974  -0.456  0.00  0.00    -0.190 NA
ATOM      6  C   LIG    1       -2.063   3.303  -0.690  0.00  0.00    +0.120 C 
ATOM      7  C   LIG    1       -3.283   2.452  -1.043  0.00  0.00    +0.300 C 
ATOM      8  N   LIG    1       -3.408   1.390  -0.032  0.00  0.00    -0.610 N 
ATOM      9  C   LIG    1       -4.475   1.328   0.790  0.00  0.00    +0.520 C 
ATOM     10  O   LIG    1       -5.311   2.207   0.766  0.00  0.00    -0.520 OA
ATOM     11  C   LIG    1       -2.327   0.401   0.047  0.00  0.00    +0.360 C 
ATOM     12  N   LIG    1        1.403   2.318  -0.201  0.00  0.00    -0.300 NA
ENDROOT
BRANCH   1  13
ATOM     13  N   LIG    1        2.564   0.368   0.432  0.00  0.00    -0.720 N 
ATOM     14  H   LIG    1        3.413   0.831   0.362  0.00  0.00    +0.410 HD
BRANCH  13  16
ATOM     15  C   LIG    1        3.955  -1.539   1.071  0.00  0.00    +0.050 C 
ATOM     16  C   LIG    1        2.529  -1.042   0.828  0.00  0.00    +0.260 C 
ENDBRANCH  13  16
ENDBRANCH   1  13
BRANCH   9  17
ATOM     17  C   LIG    1       -4.629   0.167   1.739  0.00  0.00    +0.240 C 
BRANCH  17  18
ATOM     18  C   LIG    1       -3.872   0.464   3.035  0.00  0.00    -0.020 C 
ATOM     19  C   LIG    1       -3.957  -0.748   3.985  0.00  0.00    +0.020 C 
ATOM     20  C   LIG    1       -4.080  -0.117   5.395  0.00  0.00    +0.000 C 
ATOM     21  C   LIG    1       -4.989   1.111   5.141  0.00  0.00    +0.000 C 
ATOM     22  C   LIG    1       -4.528   1.646   3.769  0.00  0.00    +0.010 C 
ENDBRANCH  17  18
BRANCH  17  23
ATOM     23  N   LIG    1       -6.049  -0.034   2.037  0.00  0.00    -0.710 N 
ATOM     24  H   LIG    1       -6.642   0.730   2.110  0.00  0.00    +0.410 HD
ATOM     25  C   LIG    1       -6.531  -1.280   2.212  0.00  0.00    +0.520 C 
ATOM     26  O   LIG    1       -5.775  -2.229   2.211  0.00  0.00    -0.540 OA
ATOM     27  C   LIG    1       -8.010  -1.496   2.407  0.00  0.00    +0.110 C 
ENDBRANCH  17  23
ENDBRANCH   9  17
TORSDOF 5
