REMARK  Name = ZINCpk00000D9Yto.0
REMARK                            x       y       z     vdW  Elec       q    Type
REMARK                         _______ _______ _______ _____ _____    ______ ____
ROOT
ATOM      1  C   LIG    1        1.394   0.090   0.649  0.00  0.00    +0.230 C 
ATOM      2  C   LIG    1        1.518   1.476  -0.004  0.00  0.00    +0.020 C 
ATOM      3  C   LIG    1       -0.019   1.534   0.011  0.00  0.00    +0.020 C 
ATOM      4  C   LIG    1        0.002  -0.004   0.002  0.00  0.00    +0.220 C 
ENDROOT
BRANCH   1   6
ATOM      5  C   LIG    1        2.426  -0.284   2.824  0.00  0.00    +0.520 C 
ATOM      6  N   LIG    1        1.359   0.132   2.113  0.00  0.00    -0.720 N 
ATOM      7  H   LIG    1        0.569   0.459   2.570  0.00  0.00    +0.400 HD
ATOM      8  O   LIG    1        3.414  -0.694   2.253  0.00  0.00    -0.510 OA
BRANCH   5   9
ATOM      9  C   LIG    1        2.390  -0.241   4.330  0.00  0.00    +0.190 C 
BRANCH   9  14
ATOM     10  C   LIG    1        2.401  -0.347   7.002  0.00  0.00    +0.030 C 
ATOM     11  C   LIG    1        3.760  -0.497   6.316  0.00  0.00    +0.120 C 
ATOM     12  C   LIG    1        4.366  -1.901   6.457  0.00  0.00    +0.040 C 
ATOM     13  C   LIG    1        3.575  -2.183   5.172  0.00  0.00    +0.160 C 
ATOM     14  N   LIG    1        3.663  -0.744   4.865  0.00  0.00    -0.450 NA
ENDBRANCH   9  14
ENDBRANCH   5   9
ENDBRANCH   1   6
BRANCH   4  15
ATOM     15  N   LIG    1        0.016  -0.583  -1.343  0.00  0.00    -0.710 N 
ATOM     16  H   LIG    1        0.832  -0.571  -1.869  0.00  0.00    +0.400 HD
ATOM     17  C   LIG    1       -1.104  -1.134  -1.852  0.00  0.00    +0.600 C 
ATOM     18  O   LIG    1       -2.128  -1.149  -1.193  0.00  0.00    -0.550 OA
BRANCH  17  19
ATOM     19  C   LIG    1       -1.091  -1.712  -3.195  0.00  0.00    -0.250 A 
ATOM     20  C   LIG    1       -2.168  -2.324  -3.860  0.00  0.00    +0.120 A 
ATOM     21  C   LIG    1       -3.502  -2.550  -3.488  0.00  0.00    +0.070 A 
ATOM     22  C   LIG    1       -4.341  -3.176  -4.361  0.00  0.00    +0.030 A 
ATOM     23  C   LIG    1       -3.857  -3.578  -5.616  0.00  0.00    +0.010 A 
ATOM     24  C   LIG    1       -2.572  -3.347  -5.957  0.00  0.00    +0.220 A 
ATOM     25  N   LIG    1       -1.720  -2.720  -5.091  0.00  0.00    -0.340 N 
ATOM     26  C   LIG    1       -0.398  -2.382  -5.208  0.00  0.00    +0.110 A 
ATOM     27  C   LIG    1        0.013  -1.772  -4.082  0.00  0.00    +0.040 A 
ENDBRANCH  17  19
ENDBRANCH   4  15
TORSDOF 5
