REMARK  Name = ZINCrD000000AfU9.0
REMARK                            x       y       z     vdW  Elec       q    Type
REMARK                         _______ _______ _______ _____ _____    ______ ____
ROOT
ATOM      1  O   LIG    1        1.020   2.119   0.011  0.00  0.00    -0.520 OA
ATOM      2  C   LIG    1       -0.023   1.500   0.022  0.00  0.00    +0.510 C 
ATOM      3  N   LIG    1       -1.198   2.160   0.026  0.00  0.00    -0.660 N 
ATOM      4  H   LIG    1       -2.031   1.668  -0.047  0.00  0.00    +0.420 HD
ENDROOT
BRANCH   3   5
ATOM      5  C   LIG    1       -1.217   3.557   0.136  0.00  0.00    +0.130 A 
ATOM      6  C   LIG    1       -0.161   4.221   0.740  0.00  0.00    +0.040 A 
ATOM      7  C   LIG    1       -0.181   5.600   0.847  0.00  0.00    +0.010 A 
ATOM      8  C   LIG    1       -1.253   6.320   0.354  0.00  0.00    +0.010 A 
ATOM      9  C   LIG    1       -2.311   5.666  -0.250  0.00  0.00    -0.020 A 
ATOM     10  C   LIG    1       -2.297   4.284  -0.366  0.00  0.00    +0.070 A 
BRANCH  10  11
ATOM     11  N   LIG    1       -3.364   3.620  -0.981  0.00  0.00    -0.470 N 
ATOM     12  C   LIG    1       -4.312   4.588  -1.591  0.00  0.00    +0.180 C 
ATOM     13  C   LIG    1       -5.078   3.728  -2.628  0.00  0.00    +0.030 C 
ATOM     14  C   LIG    1       -3.979   2.790  -3.179  0.00  0.00    +0.020 C 
ATOM     15  C   LIG    1       -2.888   2.768  -2.092  0.00  0.00    +0.180 C 
ENDBRANCH  10  11
ENDBRANCH   3   5
BRANCH   2  16
ATOM     16  C   LIG    1       -0.005  -0.007   0.027  0.00  0.00    +0.070 C 
BRANCH  16  17
ATOM     17  C   LIG    1        1.444  -0.499   0.014  0.00  0.00    +0.300 C 
BRANCH  17  18
ATOM     18  N   LIG    1        1.461  -1.964   0.018  0.00  0.00    -1.120 NA
ATOM     19  H   LIG    1        0.658  -2.458   0.245  0.00  0.00    +0.420 HD
BRANCH  18  20
ATOM     20  S   LIG    1        2.853  -2.776  -0.364  0.00  0.00    +2.700 S 
ATOM     21  O   LIG    1        3.341  -2.193  -1.564  0.00  0.00    -0.950 OA
ATOM     22  O   LIG    1        2.557  -4.160  -0.237  0.00  0.00    -0.950 OA
BRANCH  20  23
ATOM     23  C   LIG    1        4.035  -2.404   0.888  0.00  0.00    -0.670 A 
ATOM     24  C   LIG    1        4.878  -1.318   0.740  0.00  0.00    +0.140 A 
ATOM     25  C   LIG    1        5.802  -1.022   1.725  0.00  0.00    +0.040 A 
ATOM     26  C   LIG    1        5.891  -1.818   2.852  0.00  0.00    -0.040 A 
ATOM     27  C   LIG    1        5.051  -2.908   2.996  0.00  0.00    +0.030 A 
ATOM     28 BR   LIG    1        7.160  -1.418   4.195  0.00  0.00    -0.030 Br
ATOM     29  C   LIG    1        4.123  -3.200   2.014  0.00  0.00    +0.140 A 
ENDBRANCH  20  23
ENDBRANCH  18  20
ENDBRANCH  17  18
ENDBRANCH  16  17
ENDBRANCH   2  16
TORSDOF 7
