REMARK  Name = ZINCrH000004sQ4C.0
REMARK                            x       y       z     vdW  Elec       q    Type
REMARK                         _______ _______ _______ _____ _____    ______ ____
ROOT
ATOM      1  C   LIG    1        1.155   4.301   0.311  0.00  0.00    +0.190 C 
ATOM      2  C   LIG    1       -0.337   4.511   0.269  0.00  0.00    +0.160 A 
ATOM      3  N   LIG    1       -0.965   5.616   0.535  0.00  0.00    -0.270 NA
ATOM      4  O   LIG    1       -2.356   5.423   0.376  0.00  0.00    -0.080 OA
ATOM      5  C   LIG    1       -2.593   4.147   0.010  0.00  0.00    +0.310 A 
ATOM      6  N   LIG    1       -3.703   3.474  -0.247  0.00  0.00    -0.460 NA
ATOM      7  C   LIG    1       -3.682   2.197  -0.597  0.00  0.00    +0.250 A 
ATOM      8  C   LIG    1       -2.481   1.493  -0.712  0.00  0.00    -0.010 A 
ATOM      9  C   LIG    1       -1.282   2.152  -0.453  0.00  0.00    +0.000 A 
ATOM     10  C   LIG    1       -1.343   3.509  -0.078  0.00  0.00    -0.210 A 
ENDROOT
BRANCH   7  11
ATOM     11  C   LIG    1       -4.961   1.499  -0.872  0.00  0.00    -0.070 A 
ATOM     12  C   LIG    1       -4.960   0.157  -1.246  0.00  0.00    +0.040 A 
ATOM     13  C   LIG    1       -6.153  -0.489  -1.496  0.00  0.00    +0.010 A 
ATOM     14  C   LIG    1       -7.350   0.197  -1.386  0.00  0.00    +0.030 A 
ATOM     15  C   LIG    1       -7.357   1.531  -1.019  0.00  0.00    +0.000 A 
ATOM     16  C   LIG    1       -6.170   2.185  -0.762  0.00  0.00    +0.070 A 
ENDBRANCH   7  11
BRANCH   9  17
ATOM     17  C   LIG    1        0.015   1.447  -0.562  0.00  0.00    +0.560 C 
ATOM     18  N   LIG    1        0.108   0.149  -0.211  0.00  0.00    -0.720 N 
ATOM     19  H   LIG    1       -0.674  -0.322   0.117  0.00  0.00    +0.400 HD
ATOM     20  O   LIG    1        0.994   2.037  -0.973  0.00  0.00    -0.510 OA
BRANCH  18  21
ATOM     21  C   LIG    1        1.390  -0.550  -0.324  0.00  0.00    +0.250 C 
ATOM     22  C   LIG    1        1.560  -1.076  -1.751  0.00  0.00    +0.020 C 
BRANCH  21  23
ATOM     23  C   LIG    1        1.421  -1.723   0.658  0.00  0.00    -0.040 C 
ATOM     24  C   LIG    1        2.761  -2.454   0.540  0.00  0.00    +0.030 C 
ATOM     25  C   LIG    1        2.811  -3.577   1.582  0.00  0.00    -0.010 C 
ATOM     26  C   LIG    1        2.595  -2.980   2.975  0.00  0.00    +0.210 C 
ATOM     27  O   LIG    1        1.345  -2.287   3.007  0.00  0.00    -0.380 OA
ATOM     28  C   LIG    1        1.259  -1.197   2.087  0.00  0.00    +0.200 C 
ENDBRANCH  21  23
ENDBRANCH  18  21
ENDBRANCH   9  17
TORSDOF 4
