REMARK  Name = ZINCpk000000mUG4.0
REMARK                            x       y       z     vdW  Elec       q    Type
REMARK                         _______ _______ _______ _____ _____    ______ ____
ROOT
ATOM      1  S   LIG    1        0.098  -2.724   6.003  0.00  0.00    -0.050 S 
ENDROOT
BRANCH   1   2
ATOM      2  C   LIG    1        0.128  -4.080   7.207  0.00  0.00    -0.020 C 
ATOM      3  C   LIG    1        1.445  -4.848   7.077  0.00  0.00    +0.080 C 
BRANCH   2   6
ATOM      4  N   LIG    1       -0.390  -4.309   9.615  0.00  0.00    -0.720 N 
ATOM      5  H   LIG    1       -0.603  -5.241   9.449  0.00  0.00    +0.400 HD
ATOM      6  C   LIG    1        0.010  -3.518   8.601  0.00  0.00    +0.540 C 
ATOM      7  O   LIG    1        0.276  -2.353   8.809  0.00  0.00    -0.510 OA
BRANCH   4   8
ATOM      8  C   LIG    1       -0.505  -3.763  10.970  0.00  0.00    +0.270 C 
BRANCH   8   9
ATOM      9  C   LIG    1       -0.975  -4.861  11.925  0.00  0.00    +0.270 C 
BRANCH   9  12
ATOM     10  C   LIG    1       -1.607  -4.544  15.687  0.00  0.00    +0.110 C 
ATOM     11  C   LIG    1       -1.489  -5.106  14.294  0.00  0.00    +0.510 C 
ATOM     12  N   LIG    1       -1.089  -4.315  13.279  0.00  0.00    -0.730 N 
ATOM     13  H   LIG    1       -0.877  -3.383  13.446  0.00  0.00    +0.410 HD
ATOM     14  O   LIG    1       -1.755  -6.271  14.086  0.00  0.00    -0.540 OA
ENDBRANCH   9  12
ENDBRANCH   8   9
ENDBRANCH   4   8
ENDBRANCH   2   6
ENDBRANCH   1   2
BRANCH   1  15
ATOM     15  C   LIG    1        0.094  -3.592   4.411  0.00  0.00    +0.140 C 
BRANCH  15  16
ATOM     16  C   LIG    1        0.069  -2.585   3.289  0.00  0.00    +0.460 A 
ATOM     17  N   LIG    1        0.054  -1.316   3.588  0.00  0.00    -0.560 NA
ATOM     18  C   LIG    1        0.032  -0.371   2.634  0.00  0.00    +0.550 A 
ATOM     19  C   LIG    1        0.024  -0.792   1.218  0.00  0.00    -0.220 A 
ATOM     20  C   LIG    1        0.041  -2.153   0.961  0.00  0.00    +0.050 A 
ATOM     21  S   LIG    1        0.028  -2.430  -0.774  0.00  0.00    +0.170 S 
ATOM     22  C   LIG    1       -0.004  -0.710  -1.114  0.00  0.00    -0.200 A 
ATOM     23  C   LIG    1       -0.033  -0.115  -2.498  0.00  0.00    +0.150 C 
ATOM     24  C   LIG    1        0.002  -0.004   0.002  0.00  0.00    -0.030 A 
ATOM     25  C   LIG    1       -0.018   1.503   0.010  0.00  0.00    +0.130 C 
ATOM     26  O   LIG    1        0.019   0.812   2.931  0.00  0.00    -0.470 OA
ATOM     27  N   LIG    1        0.062  -3.030   2.024  0.00  0.00    -0.580 N 
ATOM     28  H   LIG    1        0.074  -3.985   1.854  0.00  0.00    +0.420 HD
ENDBRANCH  15  16
ENDBRANCH   1  15
TORSDOF 7
