REMARK  Name = ZINCrH000004mW1z.0
REMARK                            x       y       z     vdW  Elec       q    Type
REMARK                         _______ _______ _______ _____ _____    ______ ____
ROOT
ATOM      1  C   LIG    1       -1.211  -0.643  -0.006  0.00  0.00    +0.160 A 
ATOM      2  C   LIG    1       -2.388   0.088  -0.000  0.00  0.00    -0.070 A 
ATOM      3  C   LIG    1       -3.607  -0.564   0.005  0.00  0.00    +0.150 A 
ATOM      4  C   LIG    1       -3.657  -1.945   0.004  0.00  0.00    -0.700 A 
ATOM      5  C   LIG    1       -2.487  -2.682  -0.001  0.00  0.00    +0.170 A 
ATOM      6  C   LIG    1       -1.261  -2.035  -0.012  0.00  0.00    +0.100 A 
ENDROOT
BRANCH   6   7
ATOM      7  N   LIG    1       -0.074  -2.781  -0.023  0.00  0.00    -0.670 N 
ATOM      8  H   LIG    1        0.700  -2.453  -0.508  0.00  0.00    +0.420 HD
ATOM      9  C   LIG    1       -0.008  -3.953   0.639  0.00  0.00    +0.510 C 
ATOM     10  O   LIG    1       -0.998  -4.402   1.176  0.00  0.00    -0.510 OA
BRANCH   9  11
ATOM     11  C   LIG    1        1.296  -4.705   0.711  0.00  0.00    +0.070 C 
BRANCH  11  12
ATOM     12  C   LIG    1        1.099  -5.992   1.514  0.00  0.00    +0.010 C 
ATOM     13  C   LIG    1        0.753  -5.642   2.962  0.00  0.00    +0.010 C 
ATOM     14  C   LIG    1        0.555  -6.929   3.765  0.00  0.00    +0.000 C 
ATOM     15  C   LIG    1        1.844  -7.753   3.733  0.00  0.00    +0.000 C 
ATOM     16  C   LIG    1        2.190  -8.103   2.285  0.00  0.00    +0.000 C 
ATOM     17  C   LIG    1        2.388  -6.816   1.482  0.00  0.00    +0.010 C 
ENDBRANCH  11  12
ENDBRANCH   9  11
ENDBRANCH   6   7
BRANCH   4  18
ATOM     18  S   LIG    1       -5.215  -2.768   0.010  0.00  0.00    +2.690 S 
ATOM     19  O   LIG    1       -6.151  -1.851   0.560  0.00  0.00    -0.950 OA
ATOM     20  O   LIG    1       -4.983  -4.061   0.553  0.00  0.00    -0.950 OA
BRANCH  18  21
ATOM     21  N   LIG    1       -5.655  -2.996  -1.570  0.00  0.00    -1.000 NA
ATOM     22  C   LIG    1       -6.450  -1.984  -2.279  0.00  0.00    +0.290 C 
ATOM     23  C   LIG    1       -5.719  -1.609  -3.576  0.00  0.00    +0.010 C 
ATOM     24  C   LIG    1       -5.449  -2.878  -4.388  0.00  0.00    +0.010 C 
ATOM     25  C   LIG    1       -4.550  -3.820  -3.583  0.00  0.00    +0.010 C 
ATOM     26  C   LIG    1       -5.263  -4.217  -2.287  0.00  0.00    +0.290 C 
ENDBRANCH  18  21
ENDBRANCH   4  18
BRANCH   1  28
ATOM     27  C   LIG    1       -0.037   1.425  -0.011  0.00  0.00    +0.250 C 
ATOM     28  O   LIG    1       -0.011  -0.004  -0.011  0.00  0.00    -0.310 OA
ENDBRANCH   1  28
TORSDOF 6
