REMARK  Name = ZINCqH0000038ClF.0
REMARK                            x       y       z     vdW  Elec       q    Type
REMARK                         _______ _______ _______ _____ _____    ______ ____
ROOT
ATOM      1  N   LIG    1        4.120  -0.944  -1.424  0.00  0.00    -0.720 N 
ATOM      2  H   LIG    1        3.563  -0.633  -2.155  0.00  0.00    +0.400 HD
ATOM      3  C   LIG    1        5.275  -1.589  -1.685  0.00  0.00    +0.580 C 
ATOM      4  O   LIG    1        5.973  -1.978  -0.770  0.00  0.00    -0.520 OA
ENDROOT
BRANCH   3   5
ATOM      5  C   LIG    1        5.691  -1.822  -3.084  0.00  0.00    -0.250 A 
ATOM      6  C   LIG    1        6.474  -0.885  -3.768  0.00  0.00    +0.220 A 
ATOM      7  N   LIG    1        6.829  -1.136  -5.016  0.00  0.00    -0.520 NA
ATOM      8  C   LIG    1        6.446  -2.244  -5.619  0.00  0.00    +0.370 A 
ATOM      9  N   LIG    1        5.704  -3.151  -5.015  0.00  0.00    -0.520 NA
ATOM     10  C   LIG    1        6.911   0.388  -3.089  0.00  0.00    +0.150 C 
ATOM     11  C   LIG    1        5.309  -2.983  -3.765  0.00  0.00    +0.220 A 
ATOM     12  C   LIG    1        4.460  -4.026  -3.083  0.00  0.00    +0.140 C 
BRANCH   8  13
ATOM     13  C   LIG    1        6.871  -2.482  -7.045  0.00  0.00    +0.020 C 
ATOM     14  C   LIG    1        7.895  -1.518  -7.648  0.00  0.00    +0.060 C 
ATOM     15  C   LIG    1        6.432  -1.458  -8.094  0.00  0.00    +0.060 C 
ENDBRANCH   8  13
ENDBRANCH   3   5
BRANCH   1  16
ATOM     16  C   LIG    1        3.707  -0.713  -0.038  0.00  0.00    +0.330 C 
BRANCH  16  22
ATOM     17  C   LIG    1       -3.654   0.720   0.041  0.00  0.00    +0.140 C 
ATOM     18  C   LIG    1       -2.147   0.688   0.027  0.00  0.00    +0.080 A 
ATOM     19  C   LIG    1       -1.400  -0.428   0.014  0.00  0.00    -0.050 A 
ATOM     20  C   LIG    1        0.002  -0.004   0.002  0.00  0.00    -0.110 A 
ATOM     21  C   LIG    1        1.221  -0.684  -0.014  0.00  0.00    +0.070 A 
ATOM     22  C   LIG    1        2.391   0.022  -0.021  0.00  0.00    -0.140 A 
ATOM     23  C   LIG    1        2.378   1.410  -0.014  0.00  0.00    +0.050 A 
ATOM     24  C   LIG    1        1.186   2.101   0.002  0.00  0.00    -0.010 A 
ATOM     25  C   LIG    1       -0.017   1.403   0.010  0.00  0.00    +0.100 A 
ATOM     26  N   LIG    1       -1.338   1.791   0.030  0.00  0.00    -0.480 N 
ATOM     27  C   LIG    1       -1.807   3.179   0.044  0.00  0.00    +0.300 C 
ENDBRANCH  16  22
ENDBRANCH   1  16
TORSDOF 4
