REMARK  Name = ZINCqH0000035TTb.0
REMARK                            x       y       z     vdW  Elec       q    Type
REMARK                         _______ _______ _______ _____ _____    ______ ____
ROOT
ATOM      1  C   LIG    1        1.037   2.216  -0.171  0.00  0.00    +0.520 C 
ATOM      2  N   LIG    1       -0.017   1.396   0.010  0.00  0.00    -0.680 N 
ATOM      3  H   LIG    1       -0.905   1.767   0.126  0.00  0.00    +0.420 HD
ATOM      4  O   LIG    1        2.131   1.752  -0.417  0.00  0.00    -0.500 OA
ENDROOT
BRANCH   2   5
ATOM      5  C   LIG    1        0.170   0.008   0.024  0.00  0.00    +0.160 A 
ATOM      6  C   LIG    1       -0.822  -0.831  -0.468  0.00  0.00    +0.020 A 
ATOM      7  C   LIG    1       -0.636  -2.199  -0.459  0.00  0.00    +0.030 A 
ATOM      8  C   LIG    1        0.537  -2.737   0.051  0.00  0.00    +0.150 A 
ATOM      9  C   LIG    1        1.528  -1.898   0.548  0.00  0.00    -0.020 A 
ATOM     10 CL   LIG    1        2.995  -2.571   1.186  0.00  0.00    -0.020 Cl
ATOM     11  C   LIG    1        1.344  -0.529   0.534  0.00  0.00    +0.060 A 
BRANCH   8  12
ATOM     12  N   LIG    1        0.723  -4.127   0.065  0.00  0.00    -0.320 N 
ATOM     13  C   LIG    1       -0.155  -5.052  -0.385  0.00  0.00    +0.230 A 
ATOM     14  C   LIG    1        0.399  -6.272  -0.195  0.00  0.00    -0.110 A 
ATOM     15  C   LIG    1        1.657  -6.088   0.389  0.00  0.00    +0.240 A 
ATOM     16  N   LIG    1        1.854  -4.803   0.541  0.00  0.00    -0.270 NA
ENDBRANCH   8  12
ENDBRANCH   2   5
BRANCH   1  17
ATOM     17  C   LIG    1        0.858   3.708  -0.068  0.00  0.00    +0.140 C 
BRANCH  17  21
ATOM     18  C   LIG    1        4.607   5.648  -0.754  0.00  0.00    +0.170 A 
ATOM     19  C   LIG    1        4.191   5.373   0.541  0.00  0.00    -0.110 A 
ATOM     20  C   LIG    1        2.976   4.750   0.760  0.00  0.00    +0.100 A 
ATOM     21  C   LIG    1        2.179   4.391  -0.310  0.00  0.00    -0.140 A 
ATOM     22  C   LIG    1        2.591   4.665  -1.607  0.00  0.00    +0.180 A 
ATOM     23  C   LIG    1        3.806   5.293  -1.829  0.00  0.00    -0.100 A 
BRANCH  18  25
ATOM     24  C   LIG    1        6.572   6.601   0.185  0.00  0.00    +0.250 C 
ATOM     25  O   LIG    1        5.799   6.265  -0.968  0.00  0.00    -0.320 OA
ENDBRANCH  18  25
BRANCH  22  26
ATOM     26  O   LIG    1        1.804   4.315  -2.658  0.00  0.00    -0.310 OA
ATOM     27  C   LIG    1        2.291   4.627  -3.965  0.00  0.00    +0.250 C 
ENDBRANCH  22  26
ENDBRANCH  17  21
ENDBRANCH   1  17
TORSDOF 6
