REMARK  Name = ZINCrD000000gRVk.0
REMARK                            x       y       z     vdW  Elec       q    Type
REMARK                         _______ _______ _______ _____ _____    ______ ____
ROOT
ATOM      1  C   LIG    1        0.204  -0.790   3.817  0.00  0.00    +0.110 A 
ATOM      2  N   LIG    1       -0.327  -0.519   2.652  0.00  0.00    -0.280 NA
ATOM      3  N   LIG    1       -0.258   0.865   2.447  0.00  0.00    -0.380 N 
ATOM      4  C   LIG    1        0.338   1.416   3.529  0.00  0.00    +0.310 A 
ATOM      5  C   LIG    1        0.630   0.408   4.396  0.00  0.00    -0.090 A 
ENDROOT
BRANCH   3   6
ATOM      6  C   LIG    1       -0.742   1.586   1.267  0.00  0.00    +0.280 C 
ATOM      7  C   LIG    1       -0.013   1.086   0.008  0.00  0.00    +0.080 C 
ATOM      8  C   LIG    1       -0.767   1.601  -1.234  0.00  0.00    -0.300 C 
ATOM      9  S   LIG    1       -2.503   1.791  -0.692  0.00  0.00    +2.400 S 
ATOM     10  O   LIG    1       -3.309   0.819  -1.344  0.00  0.00    -0.920 OA
ATOM     11  O   LIG    1       -2.866   3.163  -0.747  0.00  0.00    -0.930 OA
ATOM     12  C   LIG    1       -2.247   1.300   1.056  0.00  0.00    -0.310 C 
ENDBRANCH   3   6
BRANCH   1  14
ATOM     13  C   LIG    1       -0.705  -2.324   5.541  0.00  0.00    +0.050 C 
ATOM     14  C   LIG    1        0.335  -2.161   4.430  0.00  0.00    +0.010 C 
ATOM     15  C   LIG    1        1.738  -2.326   5.016  0.00  0.00    +0.040 C 
ATOM     16  C   LIG    1        0.102  -3.224   3.354  0.00  0.00    +0.040 C 
ENDBRANCH   1  14
BRANCH   4  17
ATOM     17  N   LIG    1        0.604   2.772   3.721  0.00  0.00    -0.650 N 
ATOM     18  H   LIG    1        0.354   3.417   3.041  0.00  0.00    +0.410 HD
ATOM     19  C   LIG    1        1.207   3.186   4.853  0.00  0.00    +0.520 C 
ATOM     20  O   LIG    1        1.520   2.380   5.704  0.00  0.00    -0.490 OA
BRANCH  19  21
ATOM     21  C   LIG    1        1.494   4.651   5.061  0.00  0.00    +0.120 C 
BRANCH  21  22
ATOM     22  C   LIG    1        2.168   4.846   6.395  0.00  0.00    -0.070 A 
ATOM     23  C   LIG    1        1.408   5.076   7.526  0.00  0.00    +0.040 A 
ATOM     24  C   LIG    1        2.025   5.250   8.751  0.00  0.00    +0.030 A 
ATOM     25  C   LIG    1        3.405   5.204   8.842  0.00  0.00    -0.030 A 
ATOM     26  C   LIG    1        4.166   4.979   7.708  0.00  0.00    +0.030 A 
ATOM     27 CL   LIG    1        4.182   5.428  10.378  0.00  0.00    -0.070 Cl
ATOM     28  C   LIG    1        3.547   4.800   6.485  0.00  0.00    +0.040 A 
ENDBRANCH  21  22
ENDBRANCH  19  21
ENDBRANCH   4  17
TORSDOF 5
