REMARK  Name = ZINCpk00000y6xbg.0
REMARK                            x       y       z     vdW  Elec       q    Type
REMARK                         _______ _______ _______ _____ _____    ______ ____
ROOT
ATOM      1  C   LIG    1        1.460   2.678  -2.675  0.00  0.00    +0.310 C 
ENDROOT
BRANCH   1   6
ATOM      2  C   LIG    1        2.379   3.191  -0.392  0.00  0.00    +0.090 C 
ATOM      3  C   LIG    1        1.849   4.422   0.384  0.00  0.00    +0.020 C 
ATOM      4  C   LIG    1        2.087   5.570  -0.629  0.00  0.00    +0.220 C 
ATOM      5  O   LIG    1        1.798   4.960  -1.905  0.00  0.00    -0.350 OA
ATOM      6  C   LIG    1        2.345   3.631  -1.868  0.00  0.00    +0.150 C 
BRANCH   2  11
ATOM      7  C   LIG    1       -1.647   0.264   0.474  0.00  0.00    +0.200 C 
ATOM      8  C   LIG    1       -0.247   0.748   0.196  0.00  0.00    +0.180 A 
ATOM      9  N   LIG    1        0.812   0.003   0.035  0.00  0.00    -0.290 NA
ATOM     10  N   LIG    1        1.837   0.748  -0.185  0.00  0.00    -0.280 NA
ATOM     11  C   LIG    1        1.478   2.002  -0.174  0.00  0.00    +0.180 A 
ATOM     12  N   LIG    1        0.145   2.039   0.068  0.00  0.00    -0.580 N 
ATOM     13  H   LIG    1       -0.415   2.828   0.132  0.00  0.00    +0.430 HD
ENDBRANCH   2  11
ENDBRANCH   1   6
BRANCH   1  14
ATOM     14  N   LIG    1        1.528   3.032  -4.095  0.00  0.00    -0.610 N 
ATOM     15  C   LIG    1        0.655   3.920  -4.611  0.00  0.00    +0.580 C 
ATOM     16  O   LIG    1       -0.128   4.496  -3.881  0.00  0.00    -0.500 OA
ATOM     17  C   LIG    1        2.546   2.422  -4.953  0.00  0.00    +0.280 C 
BRANCH  15  18
ATOM     18  C   LIG    1        0.649   4.191  -6.064  0.00  0.00    -0.240 A 
ATOM     19  C   LIG    1        0.695   3.144  -6.991  0.00  0.00    +0.350 A 
ATOM     20  N   LIG    1        0.688   3.433  -8.281  0.00  0.00    -0.520 NA
ATOM     21  C   LIG    1        0.637   4.683  -8.697  0.00  0.00    +0.520 A 
ATOM     22  N   LIG    1        0.592   5.699  -7.857  0.00  0.00    -0.520 NA
ATOM     23  C   LIG    1        0.590   5.502  -6.551  0.00  0.00    +0.260 A 
BRANCH  23  24
ATOM     24  C   LIG    1        0.532   6.670  -5.600  0.00  0.00    +0.010 C 
ATOM     25  C   LIG    1        0.449   8.072  -6.207  0.00  0.00    +0.060 C 
ATOM     26  C   LIG    1        1.746   7.600  -5.548  0.00  0.00    +0.040 C 
ENDBRANCH  23  24
ENDBRANCH  15  18
ENDBRANCH   1  14
TORSDOF 5
