REMARK  Name = ZINCnE000001TyE0.0
REMARK                            x       y       z     vdW  Elec       q    Type
REMARK                         _______ _______ _______ _____ _____    ______ ____
ROOT
ATOM      1  C   LIG    1       -0.019   2.997   1.315  0.00  0.00    -0.030 C 
ATOM      2  C   LIG    1       -1.439   3.538   1.521  0.00  0.00    +0.020 C 
ATOM      3  C   LIG    1       -1.968   4.107   0.203  0.00  0.00    +0.010 C 
ATOM      4  C   LIG    1       -2.024   2.991  -0.845  0.00  0.00    +0.250 C 
ATOM      5  N   LIG    1       -0.697   2.370  -0.946  0.00  0.00    -0.600 N 
ATOM      6  C   LIG    1       -0.078   2.261  -2.138  0.00  0.00    +0.550 C 
ATOM      7  O   LIG    1        1.062   1.843  -2.196  0.00  0.00    -0.520 OA
ATOM      8  C   LIG    1       -0.056   1.870   0.278  0.00  0.00    +0.280 C 
ENDROOT
BRANCH   6   9
ATOM      9  C   LIG    1       -0.786   2.651  -3.377  0.00  0.00    -0.120 A 
ATOM     10  C   LIG    1       -2.152   2.403  -3.510  0.00  0.00    +0.080 A 
ATOM     11  C   LIG    1       -2.807   2.770  -4.668  0.00  0.00    +0.010 A 
ATOM     12  C   LIG    1       -2.111   3.383  -5.695  0.00  0.00    +0.090 A 
ATOM     13  C   LIG    1       -0.756   3.632  -5.569  0.00  0.00    -0.190 A 
ATOM     14  C   LIG    1       -0.091   3.275  -4.414  0.00  0.00    +0.120 A 
BRANCH  13  15
ATOM     15  C   LIG    1       -0.006   4.300  -6.692  0.00  0.00    +0.510 C 
ATOM     16  F   LIG    1        1.012   3.453  -7.142  0.00  0.00    -0.170 F 
ATOM     17  F   LIG    1        0.552   5.498  -6.233  0.00  0.00    -0.170 F 
ATOM     18  F   LIG    1       -0.887   4.570  -7.745  0.00  0.00    -0.180 F 
ENDBRANCH  13  15
ENDBRANCH   6   9
BRANCH   1  19
ATOM     19  C   LIG    1        0.524   2.455   2.639  0.00  0.00    +0.040 C 
BRANCH  19  20
ATOM     20  C   LIG    1        1.981   2.026   2.456  0.00  0.00    -0.070 C 
BRANCH  20  22
ATOM     21  O   LIG    1        1.797   1.459   4.745  0.00  0.00    -0.700 OA
ATOM     22  C   LIG    1        2.515   1.493   3.760  0.00  0.00    +0.490 C 
ATOM     23  O   LIG    1        3.666   1.095   3.830  0.00  0.00    -0.710 OA
ENDBRANCH  20  22
ENDBRANCH  19  20
ENDBRANCH   1  19
TORSDOF 5
