REMARK  Name = ZINCkj000005mifh.0
REMARK                            x       y       z     vdW  Elec       q    Type
REMARK                         _______ _______ _______ _____ _____    ______ ____
ROOT
ATOM      1  O   LIG    1       -0.623   3.370  -6.519  0.00  0.00    -0.490 OA
ATOM      2  C   LIG    1       -1.083   2.626  -5.667  0.00  0.00    +0.510 A 
ATOM      3  C   LIG    1       -0.323   2.272  -4.546  0.00  0.00    -0.120 A 
ATOM      4  C   LIG    1       -0.876   1.429  -3.603  0.00  0.00    +0.150 A 
ATOM      5  N   LIG    1       -2.104   0.964  -3.768  0.00  0.00    -0.550 NA
ATOM      6  C   LIG    1       -2.836   1.301  -4.829  0.00  0.00    +0.410 A 
ATOM      7  C   LIG    1       -4.139   0.789  -4.963  0.00  0.00    +0.050 A 
ATOM      8  C   LIG    1       -4.885   1.130  -6.052  0.00  0.00    +0.160 A 
ATOM      9  C   LIG    1       -4.342   1.986  -7.022  0.00  0.00    -0.080 A 
ATOM     10  C   LIG    1       -3.086   2.468  -6.876  0.00  0.00    +0.310 A 
ATOM     11 CL   LIG    1       -5.283   2.427  -8.412  0.00  0.00    +0.000 Cl
ATOM     12  N   LIG    1       -2.334   2.132  -5.791  0.00  0.00    -0.420 N 
ENDROOT
BRANCH   4  13
ATOM     13  C   LIG    1       -0.078   1.032  -2.388  0.00  0.00    +0.360 C 
BRANCH  13  14
ATOM     14  N   LIG    1       -0.722   1.571  -1.182  0.00  0.00    -0.380 N 
ATOM     15  C   LIG    1       -0.013   1.086   0.008  0.00  0.00    +0.270 C 
ATOM     16  C   LIG    1       -0.728   1.579   1.268  0.00  0.00    +0.040 C 
ATOM     17  C   LIG    1       -0.745   3.110   1.272  0.00  0.00    +0.170 C 
ATOM     18  C   LIG    1       -1.421   3.606  -0.009  0.00  0.00    +0.080 C 
ATOM     19  C   LIG    1       -0.681   3.038  -1.222  0.00  0.00    +0.260 C 
ATOM     20  H   LIG    1       -1.682   1.265  -1.149  0.00  0.00    +0.430 HD
BRANCH  17  21
ATOM     21  O   LIG    1       -1.475   3.576   2.409  0.00  0.00    -0.550 OA
ATOM     22  H   LIG    1       -1.103   3.299   3.257  0.00  0.00    +0.390 HD
ENDBRANCH  17  21
ENDBRANCH  13  14
ENDBRANCH   4  13
TORSDOF 3
