REMARK  Name = ZINCkj000005kuCk.1
REMARK                            x       y       z     vdW  Elec       q    Type
REMARK                         _______ _______ _______ _____ _____    ______ ____
ROOT
ATOM      1  N   LIG    1       -4.196   3.449  -1.321  0.00  0.00    -0.380 N 
ATOM      2  C   LIG    1       -3.535   2.263  -1.877  0.00  0.00    +0.230 C 
ATOM      3  C   LIG    1       -3.954   2.079  -3.337  0.00  0.00    +0.070 C 
ATOM      4  C   LIG    1       -5.473   1.898  -3.408  0.00  0.00    +0.060 C 
ATOM      5  C   LIG    1       -6.151   3.107  -2.758  0.00  0.00    -0.010 C 
ATOM      6  C   LIG    1       -5.651   3.252  -1.319  0.00  0.00    +0.290 C 
ATOM      7  H   LIG    1       -3.968   4.255  -1.883  0.00  0.00    +0.430 HD
ENDROOT
BRANCH   5   8
ATOM      8  C   LIG    1       -7.644   2.905  -2.754  0.00  0.00    +0.530 C 
ATOM      9  O   LIG    1       -8.250   2.883  -1.703  0.00  0.00    -0.530 OA
ATOM     10  N   LIG    1       -8.306   2.747  -3.917  0.00  0.00    -0.840 N 
ATOM     11  H   LIG    1       -9.268   2.616  -3.914  0.00  0.00    +0.420 HD
ATOM     12  H   LIG    1       -7.822   2.764  -4.757  0.00  0.00    +0.410 HD
ENDBRANCH   5   8
BRANCH   1  13
ATOM     13  C   LIG    1       -3.732   3.666   0.056  0.00  0.00    +0.380 C 
BRANCH  13  20
ATOM     14  C   LIG    1        2.462   3.934  -0.000  0.00  0.00    +0.130 C 
ATOM     15  C   LIG    1        1.174   3.151   0.007  0.00  0.00    -0.030 A 
ATOM     16  C   LIG    1        1.196   1.792   0.000  0.00  0.00    +0.060 A 
ATOM     17  C   LIG    1       -0.013   1.076   0.008  0.00  0.00    +0.060 A 
ATOM     18  C   LIG    1       -1.192   1.732   0.017  0.00  0.00    +0.170 A 
ATOM     19  N   LIG    1       -1.229   3.096   0.029  0.00  0.00    -0.350 N 
ATOM     20  C   LIG    1       -2.261   3.994   0.044  0.00  0.00    -0.170 A 
ATOM     21  C   LIG    1       -1.714   5.230   0.045  0.00  0.00    +0.290 A 
ATOM     22  N   LIG    1       -0.385   5.108   0.032  0.00  0.00    -0.480 NA
ATOM     23  C   LIG    1       -0.066   3.822   0.022  0.00  0.00    +0.260 A 
ENDBRANCH  13  20
ENDBRANCH   1  13
TORSDOF 3
