REMARK  Name = ZINCkj000005kuCk.0
REMARK                            x       y       z     vdW  Elec       q    Type
REMARK                         _______ _______ _______ _____ _____    ______ ____
ROOT
ATOM      1  N   LIG    1       -4.196   3.450  -1.320  0.00  0.00    -0.390 N 
ATOM      2  C   LIG    1       -4.075   4.701  -2.078  0.00  0.00    +0.250 C 
ATOM      3  C   LIG    1       -4.481   4.461  -3.534  0.00  0.00    +0.050 C 
ATOM      4  C   LIG    1       -5.932   3.973  -3.579  0.00  0.00    +0.070 C 
ATOM      5  C   LIG    1       -6.062   2.709  -2.725  0.00  0.00    +0.010 C 
ATOM      6  C   LIG    1       -5.598   3.014  -1.299  0.00  0.00    +0.290 C 
ATOM      7  H   LIG    1       -3.630   2.738  -1.756  0.00  0.00    +0.430 HD
ENDROOT
BRANCH   5   8
ATOM      8  C   LIG    1       -5.207   1.615  -3.309  0.00  0.00    +0.520 C 
ATOM      9  O   LIG    1       -4.313   1.127  -2.651  0.00  0.00    -0.560 OA
ATOM     10  N   LIG    1       -5.435   1.180  -4.564  0.00  0.00    -0.830 N 
ATOM     11  H   LIG    1       -4.884   0.475  -4.941  0.00  0.00    +0.420 HD
ATOM     12  H   LIG    1       -6.150   1.570  -5.091  0.00  0.00    +0.410 HD
ENDBRANCH   5   8
BRANCH   1  13
ATOM     13  C   LIG    1       -3.732   3.666   0.057  0.00  0.00    +0.370 C 
BRANCH  13  20
ATOM     14  C   LIG    1        2.462   3.934  -0.001  0.00  0.00    +0.130 C 
ATOM     15  C   LIG    1        1.174   3.151   0.008  0.00  0.00    -0.040 A 
ATOM     16  C   LIG    1        1.196   1.792   0.000  0.00  0.00    +0.050 A 
ATOM     17  C   LIG    1       -0.013   1.076   0.008  0.00  0.00    +0.050 A 
ATOM     18  C   LIG    1       -1.192   1.732   0.017  0.00  0.00    +0.180 A 
ATOM     19  N   LIG    1       -1.229   3.096   0.030  0.00  0.00    -0.350 N 
ATOM     20  C   LIG    1       -2.261   3.994   0.045  0.00  0.00    -0.170 A 
ATOM     21  C   LIG    1       -1.714   5.230   0.046  0.00  0.00    +0.280 A 
ATOM     22  N   LIG    1       -0.385   5.108   0.033  0.00  0.00    -0.480 NA
ATOM     23  C   LIG    1       -0.066   3.822   0.023  0.00  0.00    +0.260 A 
ENDBRANCH  13  20
ENDBRANCH   1  13
TORSDOF 3
