REMARK  Name = ZINCpk00000K9bRK.0
REMARK                            x       y       z     vdW  Elec       q    Type
REMARK                         _______ _______ _______ _____ _____    ______ ____
ROOT
ATOM      1  O   LIG    1        4.047  -1.236   0.321  0.00  0.00    -0.520 OA
ATOM      2  C   LIG    1        4.134  -1.075   1.520  0.00  0.00    +0.500 C 
ATOM      3  N   LIG    1        5.156  -1.628   2.202  0.00  0.00    -0.610 N 
ATOM      4  C   LIG    1        5.275  -1.443   3.654  0.00  0.00    +0.270 C 
ATOM      5  C   LIG    1        5.395  -2.818   4.319  0.00  0.00    +0.040 C 
ATOM      6  C   LIG    1        6.558  -3.586   3.686  0.00  0.00    +0.030 C 
ATOM      7  C   LIG    1        6.284  -3.792   2.195  0.00  0.00    +0.220 C 
ATOM      8  C   LIG    1        6.171  -2.433   1.507  0.00  0.00    +0.290 C 
ENDROOT
BRANCH   7   9
ATOM      9  N   LIG    1        7.383  -4.555   1.597  0.00  0.00    -0.460 N 
ATOM     10  C   LIG    1        7.284  -5.771   0.977  0.00  0.00    +0.120 A 
ATOM     11  C   LIG    1        8.525  -6.105   0.574  0.00  0.00    +0.140 A 
ATOM     12  N   LIG    1        9.360  -5.123   0.946  0.00  0.00    -0.490 NA
ATOM     13  C   LIG    1        8.683  -4.191   1.560  0.00  0.00    +0.380 A 
ENDBRANCH   7   9
BRANCH   2  14
ATOM     14  C   LIG    1        3.098  -0.258   2.247  0.00  0.00    +0.340 C 
BRANCH  14  15
ATOM     15  N   LIG    1        2.100   0.229   1.291  0.00  0.00    -0.540 N 
ATOM     16  C   LIG    1        0.998  -0.503   1.018  0.00  0.00    +0.500 C 
ATOM     17  C   LIG    1        0.002  -0.004   0.002  0.00  0.00    +0.300 C 
ATOM     18  O   LIG    1       -0.017   1.426   0.010  0.00  0.00    -0.300 OA
ATOM     19  C   LIG    1        1.189   2.054   0.002  0.00  0.00    +0.080 A 
ATOM     20  C   LIG    1        1.347   3.271  -0.637  0.00  0.00    +0.030 A 
ATOM     21  C   LIG    1        2.582   3.894  -0.636  0.00  0.00    +0.030 A 
ATOM     22  C   LIG    1        3.658   3.307   0.002  0.00  0.00    +0.020 A 
ATOM     23  C   LIG    1        3.508   2.090   0.643  0.00  0.00    +0.010 A 
ATOM     24  O   LIG    1        0.811  -1.558   1.587  0.00  0.00    -0.510 OA
ATOM     25  C   LIG    1        2.275   1.461   0.646  0.00  0.00    +0.100 A 
ENDBRANCH  14  15
ENDBRANCH   2  14
TORSDOF 3
