REMARK  Name = ZINCtV00000tRTMQ.0
REMARK                            x       y       z     vdW  Elec       q    Type
REMARK                         _______ _______ _______ _____ _____    ______ ____
ROOT
ATOM      1  C   LIG    1       -3.974  11.989  -0.552  0.00  0.00    +0.090 C 
ATOM      2  C   LIG    1       -3.895  10.488  -0.444  0.00  0.00    -0.120 A 
ATOM      3  C   LIG    1       -5.062   9.736  -0.431  0.00  0.00    +0.090 A 
ATOM      4  C   LIG    1       -5.012   8.363  -0.333  0.00  0.00    -0.020 A 
ATOM      5  C   LIG    1       -3.782   7.718  -0.244  0.00  0.00    +0.200 A 
ATOM      6  N   LIG    1       -3.724   6.343  -0.145  0.00  0.00    -0.630 N 
ATOM      7  H   LIG    1       -4.551   5.835  -0.139  0.00  0.00    +0.420 HD
ATOM      8  C   LIG    1       -2.554   5.687  -0.063  0.00  0.00    +0.560 A 
ATOM      9  C   LIG    1       -1.284   6.413  -0.064  0.00  0.00    -0.260 A 
ATOM     10  C   LIG    1       -1.300   7.810  -0.163  0.00  0.00    +0.140 A 
ATOM     11  O   LIG    1       -2.551   4.471   0.017  0.00  0.00    -0.520 OA
ATOM     12  C   LIG    1       -2.602   8.484  -0.256  0.00  0.00    -0.130 A 
ATOM     13  C   LIG    1       -2.676   9.877  -0.357  0.00  0.00    +0.100 A 
ENDROOT
BRANCH  10  14
ATOM     14  C   LIG    1       -0.043   8.584  -0.174  0.00  0.00    -0.070 A 
ATOM     15  C   LIG    1        0.246   9.467   0.870  0.00  0.00    +0.030 A 
ATOM     16  C   LIG    1        1.425  10.183   0.856  0.00  0.00    +0.010 A 
ATOM     17  C   LIG    1        2.314  10.037  -0.194  0.00  0.00    +0.020 A 
ATOM     18  C   LIG    1        2.031   9.169  -1.234  0.00  0.00    +0.010 A 
ATOM     19  C   LIG    1        0.860   8.443  -1.231  0.00  0.00    +0.060 A 
ENDBRANCH  10  14
BRANCH   9  20
ATOM     20  C   LIG    1       -0.009   5.688   0.031  0.00  0.00    +0.440 C 
ATOM     21  O   LIG    1        1.035   6.303   0.158  0.00  0.00    -0.440 OA
BRANCH  20  22
ATOM     22  C   LIG    1        0.006   4.225  -0.026  0.00  0.00    -0.050 C 
ATOM     23  C   LIG    1        1.160   3.554   0.177  0.00  0.00    +0.100 C 
BRANCH  23  24
ATOM     24  C   LIG    1        1.175   2.084   0.119  0.00  0.00    -0.060 A 
ATOM     25  C   LIG    1       -0.003   1.378  -0.144  0.00  0.00    +0.050 A 
ATOM     26  C   LIG    1        0.020   0.001  -0.197  0.00  0.00    +0.010 A 
ATOM     27  C   LIG    1        1.204  -0.685   0.011  0.00  0.00    +0.030 A 
ATOM     28  C   LIG    1        2.375   0.005   0.273  0.00  0.00    +0.030 A 
ATOM     29  C   LIG    1        2.370   1.384   0.328  0.00  0.00    -0.020 A 
ATOM     30 CL   LIG    1        3.840   2.247   0.655  0.00  0.00    -0.060 Cl
ENDBRANCH  23  24
ENDBRANCH  20  22
ENDBRANCH   9  20
TORSDOF 4
