REMARK  Name = ZINCAx0000000eXR.0
REMARK                            x       y       z     vdW  Elec       q    Type
REMARK                         _______ _______ _______ _____ _____    ______ ____
ROOT
ATOM      1  N   LIG    1        0.091  -4.990  -1.278  0.00  0.00    -0.500 N 
ATOM      2  C   LIG    1        0.001  -4.387  -0.076  0.00  0.00    +0.550 C 
ATOM      3  O   LIG    1        0.048  -3.174   0.000  0.00  0.00    -0.510 OA
ENDROOT
BRANCH   1   9
ATOM      4  N   LIG    1        0.673  -8.595  -0.875  0.00  0.00    -0.530 N 
ATOM      5  C   LIG    1       -0.357  -9.095  -1.582  0.00  0.00    +0.710 A 
ATOM      6  N   LIG    1       -1.243  -8.286  -2.190  0.00  0.00    -0.660 N 
ATOM      7  H   LIG    1       -1.977  -8.672  -2.694  0.00  0.00    +0.440 HD
ATOM      8  C   LIG    1       -1.122  -6.947  -2.109  0.00  0.00    +0.560 A 
ATOM      9  C   LIG    1       -0.056  -6.389  -1.378  0.00  0.00    -0.180 A 
ATOM     10  O   LIG    1       -1.930  -6.223  -2.664  0.00  0.00    -0.510 OA
ATOM     11  O   LIG    1       -0.490 -10.301  -1.671  0.00  0.00    -0.520 OA
ATOM     12  C   LIG    1        0.846  -7.235  -0.765  0.00  0.00    +0.500 A 
BRANCH  12  13
ATOM     13  N   LIG    1        1.902  -6.725  -0.048  0.00  0.00    -0.820 N 
ATOM     14  H   LIG    1        2.576  -7.321   0.314  0.00  0.00    +0.410 HD
ATOM     15  H   LIG    1        1.973  -5.768   0.096  0.00  0.00    +0.420 HD
ENDBRANCH  12  13
BRANCH   4  16
ATOM     16  C   LIG    1        1.619  -9.505  -0.225  0.00  0.00    +0.310 C 
BRANCH  16  17
ATOM     17  C   LIG    1        2.765  -9.823  -1.188  0.00  0.00    +0.010 C 
BRANCH  17  19
ATOM     18  C   LIG    1        4.899 -11.091  -1.471  0.00  0.00    +0.020 C 
ATOM     19  C   LIG    1        3.753 -10.773  -0.508  0.00  0.00    +0.020 C 
ENDBRANCH  17  19
ENDBRANCH  16  17
ENDBRANCH   4  16
ENDBRANCH   1   9
BRANCH   2  20
ATOM     20  C   LIG    1       -0.157  -5.199   1.149  0.00  0.00    -0.080 A 
ATOM     21  C   LIG    1        0.318  -4.723   2.372  0.00  0.00    +0.060 A 
ATOM     22  C   LIG    1        0.168  -5.486   3.511  0.00  0.00    +0.130 A 
ATOM     23  C   LIG    1       -0.452  -6.721   3.443  0.00  0.00    -0.660 A 
ATOM     24  C   LIG    1       -0.920  -7.201   2.233  0.00  0.00    +0.110 A 
ATOM     25  C   LIG    1       -0.781  -6.446   1.087  0.00  0.00    +0.020 A 
BRANCH  23  26
ATOM     26  S   LIG    1       -0.640  -7.689   4.904  0.00  0.00    +2.680 S 
ATOM     27  O   LIG    1        0.367  -7.253   5.806  0.00  0.00    -0.950 OA
ATOM     28  O   LIG    1       -0.771  -9.038   4.477  0.00  0.00    -0.950 OA
BRANCH  26  29
ATOM     29  N   LIG    1       -2.091  -7.271   5.585  0.00  0.00    -0.990 NA
ATOM     30  C   LIG    1       -2.119  -6.194   6.550  0.00  0.00    +0.280 C 
ATOM     31  C   LIG    1       -1.879  -6.753   7.968  0.00  0.00    +0.010 C 
ATOM     32  C   LIG    1       -3.052  -7.516   8.421  0.00  0.00    +0.000 C 
ATOM     33  C   LIG    1       -3.365  -8.748   7.576  0.00  0.00    +0.010 C 
ATOM     34  C   LIG    1       -4.205  -8.340   6.390  0.00  0.00    +0.020 C 
ATOM     35  C   LIG    1       -3.300  -8.018   5.187  0.00  0.00    +0.270 C 
ENDBRANCH  26  29
ENDBRANCH  23  26
ENDBRANCH   2  20
BRANCH   1  36
ATOM     36  C   LIG    1        0.343  -4.193  -2.481  0.00  0.00    +0.300 C 
BRANCH  36  37
ATOM     37  C   LIG    1        1.842  -4.188  -2.786  0.00  0.00    -0.040 C 
ATOM     38  C   LIG    1        2.590  -3.475  -1.657  0.00  0.00    +0.030 C 
ATOM     39  C   LIG    1        2.092  -3.456  -4.106  0.00  0.00    +0.040 C 
ENDBRANCH  36  37
ENDBRANCH   1  36
TORSDOF 10
