REMARK  Name = ZINCqH0000034rgG.0
REMARK                            x       y       z     vdW  Elec       q    Type
REMARK                         _______ _______ _______ _____ _____    ______ ____
ROOT
ATOM      1  C   LIG    1        3.990   2.940  -0.020  0.00  0.00    -0.100 A 
ATOM      2  C   LIG    1        3.330   2.707  -1.212  0.00  0.00    +0.030 A 
ATOM      3  C   LIG    1        2.033   2.228  -1.203  0.00  0.00    +0.030 A 
ATOM      4  C   LIG    1        1.396   1.982  -0.001  0.00  0.00    -0.110 A 
ATOM      5  C   LIG    1        2.054   2.221   1.192  0.00  0.00    +0.020 A 
ATOM      6  C   LIG    1        3.353   2.694   1.182  0.00  0.00    +0.030 A 
ENDROOT
BRANCH   1   7
ATOM      7  C   LIG    1        5.403   3.462  -0.031  0.00  0.00    +0.340 C 
BRANCH   7  11
ATOM      8  C   LIG    1        5.243   7.679  -0.007  0.00  0.00    +0.290 C 
ATOM      9  N   LIG    1        6.522   6.965  -0.023  0.00  0.00    -0.620 N 
ATOM     10  C   LIG    1        6.540   5.617  -0.030  0.00  0.00    +0.710 C 
ATOM     11  N   LIG    1        5.383   4.927  -0.023  0.00  0.00    -0.740 N 
ATOM     12  H   LIG    1        4.536   5.400  -0.013  0.00  0.00    +0.400 HD
ATOM     13  O   LIG    1        7.602   5.024  -0.044  0.00  0.00    -0.590 OA
BRANCH   9  14
ATOM     14  C   LIG    1        7.780   7.715  -0.031  0.00  0.00    +0.260 C 
ATOM     15  C   LIG    1        7.758   8.964   0.865  0.00  0.00    +0.010 C 
ATOM     16  C   LIG    1        8.543   9.679  -0.250  0.00  0.00    +0.020 C 
ATOM     17  C   LIG    1        7.921   8.669  -1.229  0.00  0.00    +0.000 C 
ENDBRANCH   9  14
ENDBRANCH   7  11
ENDBRANCH   1   7
BRANCH   4  18
ATOM     18  C   LIG    1       -0.018   1.461   0.010  0.00  0.00    +0.360 C 
BRANCH  18  19
ATOM     19  N   LIG    1        0.002  -0.004   0.002  0.00  0.00    -0.490 N 
ATOM     20  C   LIG    1       -0.092  -0.806  -1.093  0.00  0.00    +0.470 A 
ATOM     21  N   LIG    1       -0.041  -2.056  -0.738  0.00  0.00    -0.490 NA
ATOM     22  C   LIG    1        0.091  -2.143   0.611  0.00  0.00    +0.040 A 
ATOM     23  C   LIG    1        0.192  -3.213   1.503  0.00  0.00    +0.070 A 
ATOM     24  C   LIG    1        0.318  -2.974   2.842  0.00  0.00    +0.000 A 
ATOM     25  C   LIG    1        0.347  -1.676   3.329  0.00  0.00    +0.030 A 
ATOM     26  C   LIG    1        0.249  -0.603   2.468  0.00  0.00    +0.010 A 
ATOM     27  C   LIG    1        0.126  -0.827   1.104  0.00  0.00    +0.050 A 
ENDBRANCH  18  19
ENDBRANCH   4  18
TORSDOF 5
