REMARK  Name = ZINCpk00000xIcqW.2
REMARK                            x       y       z     vdW  Elec       q    Type
REMARK                         _______ _______ _______ _____ _____    ______ ____
ROOT
ATOM      1  C   LIG    1        1.490  -4.566  -2.885  0.00  0.00    +0.160 C 
ATOM      2  C   LIG    1        2.317  -3.810  -3.928  0.00  0.00    -0.010 C 
ATOM      3  C   LIG    1        2.039  -2.310  -3.799  0.00  0.00    +0.040 C 
ATOM      4  C   LIG    1        2.373  -1.855  -2.376  0.00  0.00    +0.160 C 
ATOM      5  N   LIG    1        1.555  -2.607  -1.416  0.00  0.00    -0.520 NA
ATOM      6  C   LIG    1        1.839  -4.046  -1.489  0.00  0.00    +0.210 C 
ENDROOT
BRANCH   1   7
ATOM      7  O   LIG    1        0.099  -4.358  -3.138  0.00  0.00    -0.520 OA
ATOM      8  H   LIG    1       -0.193  -4.665  -4.007  0.00  0.00    +0.360 HD
ENDBRANCH   1   7
BRANCH   1   9
ATOM      9  C   LIG    1        1.807  -6.061  -2.968  0.00  0.00    +0.030 C 
BRANCH   9  12
ATOM     10  C   LIG    1        0.299  -8.862  -0.838  0.00  0.00    +0.280 C 
ATOM     11  N   LIG    1        1.137  -8.132  -1.792  0.00  0.00    -0.630 N 
ATOM     12  C   LIG    1        0.945  -6.812  -1.986  0.00  0.00    +0.510 C 
ATOM     13  O   LIG    1        0.078  -6.229  -1.370  0.00  0.00    -0.510 OA
ATOM     14  C   LIG    1        2.184  -8.836  -2.537  0.00  0.00    +0.270 C 
ENDBRANCH   9  12
ENDBRANCH   1   9
BRANCH   5  15
ATOM     15  C   LIG    1        1.747  -2.101  -0.051  0.00  0.00    +0.230 C 
BRANCH  15  16
ATOM     16  C   LIG    1        1.688  -0.596  -0.060  0.00  0.00    -0.160 A 
ATOM     17  C   LIG    1        0.477   0.060   0.119  0.00  0.00    +0.110 A 
ATOM     18  C   LIG    1        0.468   1.444   0.104  0.00  0.00    -0.040 A 
ATOM     19  C   LIG    1        1.664   2.127  -0.088  0.00  0.00    +0.300 A 
ATOM     20  N   LIG    1        2.798   1.465  -0.256  0.00  0.00    -0.520 NA
ATOM     21  C   LIG    1        2.838   0.146  -0.246  0.00  0.00    +0.280 A 
BRANCH  19  22
ATOM     22  N   LIG    1        1.668   3.517  -0.106  0.00  0.00    -0.460 N 
ATOM     23  C   LIG    1        1.227   4.066   1.202  0.00  0.00    +0.180 C 
ATOM     24  C   LIG    1        1.783   5.512   1.184  0.00  0.00    +0.040 C 
ATOM     25  C   LIG    1        3.150   5.348   0.480  0.00  0.00    +0.020 C 
ATOM     26  C   LIG    1        3.034   4.040  -0.323  0.00  0.00    +0.200 C 
ENDBRANCH  19  22
ENDBRANCH  15  16
ENDBRANCH   5  15
TORSDOF 6
