REMARK  Name = ZINCvU00000004wk.0
REMARK                            x       y       z     vdW  Elec       q    Type
REMARK                         _______ _______ _______ _____ _____    ______ ____
ROOT
ATOM      1  C   LIG    1       -0.017  -5.472   0.554  0.00  0.00    +0.100 C 
ENDROOT
BRANCH   1   2
ATOM      2  C   LIG    1       -0.628  -6.421  -0.443  0.00  0.00    +0.450 C 
ATOM      3  O   LIG    1       -0.859  -6.047  -1.575  0.00  0.00    -0.460 OA
BRANCH   2   4
ATOM      4  C   LIG    1       -0.945  -7.795  -0.048  0.00  0.00    -0.260 A 
ATOM      5  C   LIG    1       -1.504  -8.782  -0.838  0.00  0.00    +0.110 A 
ATOM      6  N   LIG    1       -1.629  -9.895  -0.093  0.00  0.00    -0.430 N 
ATOM      7  C   LIG    1       -1.167  -9.676   1.173  0.00  0.00    +0.030 A 
ATOM      8  C   LIG    1       -1.148 -10.694   2.284  0.00  0.00    +0.140 C 
ATOM      9  C   LIG    1       -1.904  -8.636  -2.283  0.00  0.00    +0.150 C 
ATOM     10  C   LIG    1       -0.726  -8.410   1.268  0.00  0.00    -0.010 A 
BRANCH   6  11
ATOM     11  C   LIG    1       -2.182 -11.164  -0.573  0.00  0.00    +0.310 C 
BRANCH  11  12
ATOM     12  C   LIG    1       -1.056 -12.026  -1.147  0.00  0.00    +0.140 C 
ATOM     13  C   LIG    1       -1.632 -13.316  -1.773  0.00  0.00    +0.010 C 
ATOM     14  C   LIG    1       -0.587 -14.400  -1.427  0.00  0.00    +0.010 C 
ATOM     15  C   LIG    1        0.497 -13.637  -0.633  0.00  0.00    +0.200 C 
ATOM     16  O   LIG    1       -0.185 -12.485  -0.090  0.00  0.00    -0.360 OA
ENDBRANCH  11  12
ENDBRANCH   6  11
ENDBRANCH   2   4
ENDBRANCH   1   2
BRANCH   1  17
ATOM     17  S   LIG    1        0.254  -3.864  -0.231  0.00  0.00    +0.050 S 
BRANCH  17  19
ATOM     18  N   LIG    1        1.367  -1.676   1.111  0.00  0.00    -0.460 N 
ATOM     19  C   LIG    1        0.955  -2.977   1.121  0.00  0.00    +0.140 A 
ATOM     20  N   LIG    1        1.180  -3.443   2.327  0.00  0.00    -0.290 NA
ATOM     21  N   LIG    1        1.700  -2.525   3.060  0.00  0.00    -0.280 NA
ATOM     22  C   LIG    1        1.843  -1.429   2.370  0.00  0.00    +0.190 A 
BRANCH  22  23
ATOM     23  C   LIG    1        2.421  -0.129   2.867  0.00  0.00    +0.090 C 
ATOM     24  C   LIG    1        3.863  -0.355   3.327  0.00  0.00    +0.030 C 
ATOM     25  C   LIG    1        4.450   0.965   3.831  0.00  0.00    +0.010 C 
ATOM     26  C   LIG    1        3.615   1.478   5.006  0.00  0.00    +0.010 C 
ATOM     27  C   LIG    1        2.173   1.704   4.546  0.00  0.00    +0.010 C 
ATOM     28  C   LIG    1        1.586   0.385   4.042  0.00  0.00    +0.030 C 
ENDBRANCH  22  23
BRANCH  18  29
ATOM     29  C   LIG    1        1.317  -0.740  -0.015  0.00  0.00    +0.340 C 
BRANCH  29  31
ATOM     30  C   LIG    1       -0.016   1.306   0.009  0.00  0.00    +0.060 C 
ATOM     31  C   LIG    1        0.002  -0.004   0.002  0.00  0.00    -0.070 C 
ENDBRANCH  29  31
ENDBRANCH  18  29
ENDBRANCH  17  19
ENDBRANCH   1  17
TORSDOF 9
