REMARK  Name = ZINCrH000004pZib.0
REMARK                            x       y       z     vdW  Elec       q    Type
REMARK                         _______ _______ _______ _____ _____    ______ ____
ROOT
ATOM      1  C   LIG    1       -2.342   1.471   0.514  0.00  0.00    +0.540 C 
ATOM      2  N   LIG    1       -1.240   2.068   0.019  0.00  0.00    -0.660 N 
ATOM      3  H   LIG    1       -1.292   2.973  -0.327  0.00  0.00    +0.420 HD
ATOM      4  O   LIG    1       -2.258   0.379   1.034  0.00  0.00    -0.500 OA
ENDROOT
BRANCH   1   6
ATOM      5  C   LIG    1       -4.312   1.869  -0.940  0.00  0.00    +0.070 C 
ATOM      6  C   LIG    1       -3.679   2.162   0.422  0.00  0.00    +0.120 C 
ATOM      7  C   LIG    1       -4.596   1.647   1.532  0.00  0.00    +0.130 C 
ATOM      8  C   LIG    1       -5.840   2.493   1.617  0.00  0.00    -0.040 A 
ATOM      9  C   LIG    1       -6.977   1.986   2.213  0.00  0.00    +0.020 A 
ATOM     10  C   LIG    1       -8.121   2.760   2.296  0.00  0.00    +0.050 A 
ATOM     11  C   LIG    1       -8.138   4.045   1.784  0.00  0.00    +0.010 A 
ATOM     12  C   LIG    1       -7.008   4.564   1.183  0.00  0.00    +0.090 A 
ATOM     13  C   LIG    1       -5.854   3.788   1.097  0.00  0.00    -0.180 A 
ATOM     14  C   LIG    1       -4.635   4.327   0.452  0.00  0.00    +0.530 C 
ATOM     15  O   LIG    1       -4.653   5.375  -0.162  0.00  0.00    -0.440 OA
ATOM     16  O   LIG    1       -3.495   3.599   0.576  0.00  0.00    -0.350 OA
ENDBRANCH   1   6
BRANCH   2  17
ATOM     17  C   LIG    1       -0.018   1.382   0.004  0.00  0.00    +0.110 A 
ATOM     18  C   LIG    1        1.171   2.079   0.172  0.00  0.00    +0.020 A 
ATOM     19  C   LIG    1        2.376   1.404   0.152  0.00  0.00    -0.020 A 
ATOM     20  C   LIG    1        2.397   0.028  -0.036  0.00  0.00    +0.100 A 
ATOM     21  C   LIG    1        1.208  -0.669  -0.203  0.00  0.00    +0.010 A 
ATOM     22  C   LIG    1        0.004   0.007  -0.183  0.00  0.00    +0.050 A 
BRANCH  20  23
ATOM     23  N   LIG    1        3.617  -0.656  -0.056  0.00  0.00    -0.490 N 
ATOM     24  C   LIG    1        3.634  -1.731   0.944  0.00  0.00    +0.180 C 
ATOM     25  C   LIG    1        4.920  -2.548   0.796  0.00  0.00    +0.020 C 
ATOM     26  C   LIG    1        6.128  -1.627   0.988  0.00  0.00    +0.010 C 
ATOM     27  C   LIG    1        6.061  -0.489  -0.034  0.00  0.00    +0.020 C 
ATOM     28  C   LIG    1        4.742   0.268   0.139  0.00  0.00    +0.180 C 
ENDBRANCH  20  23
ENDBRANCH   2  17
TORSDOF 3
