REMARK  Name = ZINCvU00000006iq.0
REMARK                            x       y       z     vdW  Elec       q    Type
REMARK                         _______ _______ _______ _____ _____    ______ ____
ROOT
ATOM      1  C   LIG    1        3.826   5.465  -0.224  0.00  0.00    +0.280 A 
ATOM      2  N   LIG    1        2.550   5.237  -0.058  0.00  0.00    -0.490 NA
ATOM      3  C   LIG    1        2.310   3.922  -0.148  0.00  0.00    +0.260 A 
ATOM      4  N   LIG    1        3.445   3.301  -0.384  0.00  0.00    -0.280 NA
ATOM      5  N   LIG    1        4.442   4.288  -0.436  0.00  0.00    -0.360 N 
ENDROOT
BRANCH   3   6
ATOM      6  C   LIG    1        0.982   3.274  -0.011  0.00  0.00    -0.010 A 
ATOM      7  C   LIG    1       -0.137   4.047   0.236  0.00  0.00    +0.110 A 
ATOM      8  C   LIG    1       -1.388   3.427   0.364  0.00  0.00    -0.110 A 
ATOM      9  C   LIG    1       -2.553   4.178   0.616  0.00  0.00    +0.090 A 
ATOM     10  C   LIG    1       -3.739   3.509   0.728  0.00  0.00    -0.040 A 
ATOM     11  C   LIG    1       -3.770   2.123   0.594  0.00  0.00    +0.300 A 
ATOM     12  N   LIG    1       -2.684   1.428   0.359  0.00  0.00    -0.480 NA
ATOM     13  C   LIG    1       -1.492   2.019   0.232  0.00  0.00    +0.140 A 
ATOM     14  C   LIG    1       -0.333   1.262  -0.014  0.00  0.00    +0.050 A 
ATOM     15  C   LIG    1        0.871   1.880  -0.135  0.00  0.00    +0.070 A 
ENDBRANCH   3   6
BRANCH   5  16
ATOM     16  C   LIG    1        5.872   4.078  -0.674  0.00  0.00    +0.240 C 
ATOM     17  C   LIG    1        6.095   3.338  -2.016  0.00  0.00    +0.030 C 
ATOM     18  C   LIG    1        7.233   2.347  -1.652  0.00  0.00    +0.220 C 
ATOM     19  O   LIG    1        6.918   1.951  -0.300  0.00  0.00    -0.360 OA
ATOM     20  C   LIG    1        6.462   3.129   0.387  0.00  0.00    +0.150 C 
ATOM     21  C   LIG    1        5.384   2.753   1.405  0.00  0.00    +0.060 C 
ENDBRANCH   5  16
BRANCH   1  23
ATOM     22  C   LIG    1        4.596   7.297   1.260  0.00  0.00    +0.070 C 
ATOM     23  C   LIG    1        4.492   6.817  -0.189  0.00  0.00    +0.260 C 
BRANCH  23  24
ATOM     24  O   LIG    1        3.718   7.749  -0.946  0.00  0.00    -0.280 OA
BRANCH  24  25
ATOM     25  C   LIG    1        4.375   8.822  -1.461  0.00  0.00    +0.150 A 
ATOM     26  C   LIG    1        5.709   9.035  -1.149  0.00  0.00    -0.070 A 
ATOM     27  C   LIG    1        6.375  10.126  -1.675  0.00  0.00    +0.070 A 
ATOM     28  C   LIG    1        5.711  11.005  -2.510  0.00  0.00    -0.010 A 
ATOM     29  C   LIG    1        4.380  10.796  -2.822  0.00  0.00    +0.090 A 
ATOM     30  C   LIG    1        3.712   9.703  -2.305  0.00  0.00    -0.120 A 
ATOM     31 BR   LIG    1        1.894   9.412  -2.738  0.00  0.00    -0.030 Br
ENDBRANCH  24  25
ENDBRANCH  23  24
ENDBRANCH   1  23
TORSDOF 5
