REMARK  Name = ZINC9H0000000CDe.0
REMARK                            x       y       z     vdW  Elec       q    Type
REMARK                         _______ _______ _______ _____ _____    ______ ____
ROOT
ATOM      1 CL   LIG    1        1.149   3.822   0.011  0.00  0.00    -0.040 Cl
ATOM      2  C   LIG    1        1.172   2.087   0.002  0.00  0.00    -0.030 A 
ATOM      3  C   LIG    1       -0.017   1.379   0.010  0.00  0.00    +0.080 A 
ATOM      4  C   LIG    1        0.002  -0.004   0.002  0.00  0.00    -0.080 A 
ATOM      5  C   LIG    1        1.209  -0.679  -0.013  0.00  0.00    +0.100 A 
ATOM      6  C   LIG    1        2.397   0.028  -0.021  0.00  0.00    -0.090 A 
ATOM      7  I   LIG    1        4.225  -0.995  -0.043  0.00  0.00    -0.010 I 
ATOM      8 BR   LIG    1       -1.623  -0.972   0.013  0.00  0.00    -0.020 Br
ATOM      9  C   LIG    1        2.379   1.411  -0.013  0.00  0.00    +0.090 A 
ENDROOT
TORSDOF 0
