REMARK  Name = ZINCnE000001HB9a.0
REMARK                            x       y       z     vdW  Elec       q    Type
REMARK                         _______ _______ _______ _____ _____    ______ ____
ROOT
ATOM      1  N   LIG    1       -0.645   3.040   1.336  0.00  0.00    -0.730 N 
ATOM      2  H   LIG    1        0.060   3.462   1.852  0.00  0.00    +0.400 HD
ATOM      3  C   LIG    1       -1.547   3.799   0.682  0.00  0.00    +0.560 C 
ATOM      4  O   LIG    1       -2.431   3.270   0.034  0.00  0.00    -0.540 OA
ENDROOT
BRANCH   3   5
ATOM      5  C   LIG    1       -1.462   5.261   0.750  0.00  0.00    -0.120 C 
ATOM      6  C   LIG    1       -2.364   6.019   0.097  0.00  0.00    +0.150 C 
BRANCH   6   7
ATOM      7  C   LIG    1       -2.279   7.488   0.166  0.00  0.00    -0.110 A 
ATOM      8  C   LIG    1       -1.266   8.096   0.915  0.00  0.00    +0.010 A 
ATOM      9  C   LIG    1       -1.185   9.469   0.976  0.00  0.00    +0.040 A 
ATOM     10  C   LIG    1       -2.121  10.255   0.297  0.00  0.00    -0.110 A 
ATOM     11  C   LIG    1       -3.136   9.648  -0.448  0.00  0.00    +0.040 A 
ATOM     12  C   LIG    1       -3.215   8.276  -0.513  0.00  0.00    +0.010 A 
BRANCH  10  13
ATOM     13  C   LIG    1       -2.036  11.727   0.367  0.00  0.00    +0.520 C 
ATOM     14  O   LIG    1       -1.148  12.258   1.018  0.00  0.00    -0.680 OA
ATOM     15  O   LIG    1       -2.854  12.415  -0.227  0.00  0.00    -0.680 OA
ENDBRANCH  10  13
ENDBRANCH   6   7
ENDBRANCH   3   5
BRANCH   1  16
ATOM     16  C   LIG    1       -0.729   1.579   1.267  0.00  0.00    +0.340 C 
BRANCH  16  17
ATOM     17  C   LIG    1       -0.074   0.981   2.485  0.00  0.00    +0.040 A 
ATOM     18  N   LIG    1       -0.570   0.025   3.196  0.00  0.00    -0.460 NA
ATOM     19  C   LIG    1        0.137  -0.385   4.229  0.00  0.00    +0.070 A 
ATOM     20  C   LIG    1        1.290   0.268   4.406  0.00  0.00    -0.080 A 
ATOM     21  C   LIG    1       -0.319  -1.494   5.141  0.00  0.00    +0.160 C 
ATOM     22  S   LIG    1        1.431   1.474   3.129  0.00  0.00    +0.130 S 
ENDBRANCH  16  17
BRANCH  16  24
ATOM     23  C   LIG    1       -0.753   1.593  -1.232  0.00  0.00    +0.030 C 
ATOM     24  C   LIG    1       -0.013   1.086   0.008  0.00  0.00    +0.020 C 
ENDBRANCH  16  24
ENDBRANCH   1  16
TORSDOF 6
