REMARK  Name = ZINCrD00000756cl.0
REMARK                            x       y       z     vdW  Elec       q    Type
REMARK                         _______ _______ _______ _____ _____    ______ ____
ROOT
ATOM      1  C   LIG    1        1.524   3.158  -4.983  0.00  0.00    +0.160 C 
ATOM      2  C   LIG    1        1.092   1.772  -5.390  0.00  0.00    +0.120 A 
ATOM      3  N   LIG    1        1.469   1.138  -6.464  0.00  0.00    -0.270 NA
ATOM      4  N   LIG    1        0.857  -0.120  -6.493  0.00  0.00    -0.370 N 
ATOM      5  C   LIG    1        0.089  -0.247  -5.394  0.00  0.00    +0.300 A 
ATOM      6  C   LIG    1        1.027  -1.130  -7.540  0.00  0.00    +0.360 C 
ATOM      7  C   LIG    1        0.208   0.934  -4.671  0.00  0.00    -0.290 A 
ENDROOT
BRANCH   7   8
ATOM      8  C   LIG    1       -0.455   1.249  -3.398  0.00  0.00    +0.610 C 
ATOM      9  N   LIG    1        0.145   0.941  -2.232  0.00  0.00    -0.720 N 
ATOM     10  H   LIG    1        1.014   0.511  -2.232  0.00  0.00    +0.400 HD
ATOM     11  O   LIG    1       -1.545   1.789  -3.398  0.00  0.00    -0.520 OA
BRANCH   9  12
ATOM     12  C   LIG    1       -0.516   1.256  -0.963  0.00  0.00    +0.280 C 
BRANCH  12  13
ATOM     13  C   LIG    1        0.371   0.805   0.200  0.00  0.00    +0.040 C 
BRANCH  13  14
ATOM     14  C   LIG    1       -0.319   1.134   1.525  0.00  0.00    -0.100 C 
ATOM     15  C   LIG    1       -1.662   0.404   1.596  0.00  0.00    +0.060 C 
ATOM     16  C   LIG    1       -0.554   2.643   1.617  0.00  0.00    +0.060 C 
BRANCH  14  17
ATOM     17  C   LIG    1        0.568   0.684   2.688  0.00  0.00    +0.460 C 
ATOM     18  F   LIG    1        0.782  -0.696   2.603  0.00  0.00    -0.180 F 
ATOM     19  F   LIG    1       -0.064   0.984   3.899  0.00  0.00    -0.180 F 
ATOM     20  F   LIG    1        1.795   1.351   2.623  0.00  0.00    -0.180 F 
ENDBRANCH  14  17
ENDBRANCH  13  14
ENDBRANCH  12  13
ENDBRANCH   9  12
ENDBRANCH   7   8
BRANCH   5  21
ATOM     21  O   LIG    1       -0.659  -1.324  -5.058  0.00  0.00    -0.290 OA
BRANCH  21  22
ATOM     22  C   LIG    1       -0.009  -2.362  -4.322  0.00  0.00    +0.210 C 
BRANCH  22  23
ATOM     23  C   LIG    1       -0.998  -3.500  -4.063  0.00  0.00    +0.160 C 
ATOM     24  C   LIG    1       -0.271  -4.664  -3.385  0.00  0.00    +0.010 C 
ATOM     25  C   LIG    1       -1.279  -5.774  -3.074  0.00  0.00    +0.020 C 
ATOM     26  C   LIG    1       -2.400  -5.202  -2.201  0.00  0.00    -0.010 C 
ATOM     27  C   LIG    1       -3.045  -4.017  -2.924  0.00  0.00    +0.210 C 
ATOM     28  O   LIG    1       -2.047  -3.035  -3.211  0.00  0.00    -0.370 OA
ENDBRANCH  22  23
ENDBRANCH  21  22
ENDBRANCH   5  21
TORSDOF 8
