REMARK  Name = ZINCrH00000tj1mB.0
REMARK                            x       y       z     vdW  Elec       q    Type
REMARK                         _______ _______ _______ _____ _____    ______ ____
ROOT
ATOM      1  N   LIG    1       -0.155   1.381   2.643  0.00  0.00    -0.720 N 
ATOM      2  H   LIG    1       -0.478   0.633   3.169  0.00  0.00    +0.420 HD
ENDROOT
BRANCH   1  12
ATOM      3  C   LIG    1        1.516   1.845   4.327  0.00  0.00    +0.040 A 
ATOM      4  C   LIG    1        2.573   2.616   4.783  0.00  0.00    +0.020 A 
ATOM      5  C   LIG    1        3.027   3.679   4.031  0.00  0.00    -0.190 A 
ATOM      6  C   LIG    1        2.441   3.992   2.811  0.00  0.00    +0.120 A 
ATOM      7  O   LIG    1        3.051   5.064   2.232  0.00  0.00    -0.300 OA
ATOM      8  C   LIG    1        3.786   5.789   3.232  0.00  0.00    +0.170 C 
ATOM      9  C   LIG    1        5.059   6.394   2.637  0.00  0.00    +0.070 C 
ATOM     10  C   LIG    1        1.379   3.217   2.353  0.00  0.00    -0.060 A 
ATOM     11  C   LIG    1        4.133   4.690   4.265  0.00  0.00    +0.080 C 
ATOM     12  C   LIG    1        0.916   2.153   3.108  0.00  0.00    +0.230 A 
BRANCH   3  13
ATOM     13  O   LIG    1        1.067   0.794   5.066  0.00  0.00    -0.320 OA
BRANCH  13  15
ATOM     14  C   LIG    1        1.093  -0.670   6.989  0.00  0.00    +0.070 C 
ATOM     15  C   LIG    1        1.732   0.541   6.305  0.00  0.00    +0.180 C 
ENDBRANCH  13  15
ENDBRANCH   3  13
ENDBRANCH   1  12
BRANCH   1  16
ATOM     16  C   LIG    1       -0.787   1.702   1.361  0.00  0.00    +0.250 C 
ATOM     17  C   LIG    1       -0.006   1.038   0.226  0.00  0.00    +0.050 C 
BRANCH  16  18
ATOM     18  C   LIG    1       -2.206   1.194   1.360  0.00  0.00    +0.510 C 
ATOM     19  N   LIG    1       -2.986   1.377   0.276  0.00  0.00    -0.670 N 
ATOM     20  H   LIG    1       -2.662   1.903  -0.472  0.00  0.00    +0.420 HD
ATOM     21  O   LIG    1       -2.645   0.619   2.333  0.00  0.00    -0.500 OA
BRANCH  19  22
ATOM     22  C   LIG    1       -4.261   0.811   0.231  0.00  0.00    +0.180 A 
ATOM     23  C   LIG    1       -4.498  -0.415   0.843  0.00  0.00    +0.020 A 
ATOM     24  C   LIG    1       -5.756  -0.974   0.805  0.00  0.00    +0.090 A 
ATOM     25  C   LIG    1       -6.793  -0.312   0.140  0.00  0.00    -0.050 A 
ATOM     26  C   LIG    1       -6.550   0.917  -0.479  0.00  0.00    +0.090 A 
ATOM     27  C   LIG    1       -5.290   1.472  -0.431  0.00  0.00    -0.010 A 
BRANCH  25  28
ATOM     28  C   LIG    1       -8.101  -0.894   0.093  0.00  0.00    +0.250 C 
ATOM     29  N   LIG    1       -9.138  -1.355   0.055  0.00  0.00    -0.410 NA
ENDBRANCH  25  28
ENDBRANCH  19  22
ENDBRANCH  16  18
ENDBRANCH   1  16
TORSDOF 7
