REMARK  Name = ZINCrH000004vDnF.0
REMARK                            x       y       z     vdW  Elec       q    Type
REMARK                         _______ _______ _______ _____ _____    ______ ____
ROOT
ATOM      1  C   LIG    1        0.008  -0.024  -0.009  0.00  0.00    -0.190 A 
ATOM      2  C   LIG    1        0.914  -0.153   1.049  0.00  0.00    +0.140 A 
ATOM      3  C   LIG    1        2.091   0.575   0.999  0.00  0.00    -0.060 A 
ATOM      4  C   LIG    1        2.335   1.400  -0.083  0.00  0.00    +0.330 A 
ATOM      5  N   LIG    1        1.466   1.507  -1.070  0.00  0.00    -0.520 NA
ATOM      6  C   LIG    1        0.328   0.835  -1.073  0.00  0.00    +0.360 A 
ENDROOT
BRANCH   1   8
ATOM      7  O   LIG    1       -2.317  -0.186  -0.129  0.00  0.00    -0.520 OA
ATOM      8  C   LIG    1       -1.261  -0.776  -0.007  0.00  0.00    +0.580 C 
ATOM      9  N   LIG    1       -1.250  -2.116   0.131  0.00  0.00    -0.610 N 
ATOM     10  C   LIG    1        0.011  -2.834   0.364  0.00  0.00    +0.280 C 
ATOM     11  C   LIG    1        0.160  -3.934  -0.684  0.00  0.00    +0.040 C 
ATOM     12  C   LIG    1       -1.087  -4.822  -0.668  0.00  0.00    +0.260 C 
ATOM     13  O   LIG    1       -0.939  -5.877  -1.627  0.00  0.00    -0.380 OA
ATOM     14  C   LIG    1       -1.023  -7.124  -0.907  0.00  0.00    +0.200 C 
ATOM     15  C   LIG    1       -1.766  -6.728   0.394  0.00  0.00    +0.200 C 
ATOM     16  C   LIG    1       -2.324  -3.988  -1.008  0.00  0.00    +0.030 C 
ATOM     17  O   LIG    1       -1.245  -5.399   0.638  0.00  0.00    -0.370 OA
ATOM     18  C   LIG    1       -2.497  -2.888   0.044  0.00  0.00    +0.300 C 
ENDBRANCH   1   8
BRANCH   6  19
ATOM     19  O   LIG    1       -0.532   0.971  -2.110  0.00  0.00    -0.220 OA
BRANCH  19  20
ATOM     20  C   LIG    1       -0.235   1.887  -3.069  0.00  0.00    +0.110 A 
ATOM     21  C   LIG    1       -0.850   3.130  -3.055  0.00  0.00    +0.070 A 
ATOM     22  C   LIG    1       -0.544   4.063  -4.028  0.00  0.00    +0.020 A 
ATOM     23  C   LIG    1        0.369   3.753  -5.022  0.00  0.00    +0.110 A 
ATOM     24  C   LIG    1        0.980   2.511  -5.041  0.00  0.00    +0.030 A 
ATOM     25  F   LIG    1        0.663   4.664  -5.975  0.00  0.00    -0.130 F 
ATOM     26  C   LIG    1        0.680   1.578  -4.066  0.00  0.00    -0.060 A 
ATOM     27 BR   LIG    1        1.514  -0.119  -4.092  0.00  0.00    -0.020 Br
ENDBRANCH  19  20
ENDBRANCH   6  19
TORSDOF 3
