REMARK  Name = ZINCrH000004qXUJ.0
REMARK                            x       y       z     vdW  Elec       q    Type
REMARK                         _______ _______ _______ _____ _____    ______ ____
ROOT
ATOM      1  N   LIG    1       -4.288   6.075   0.334  0.00  0.00    -0.600 N 
ATOM      2  H   LIG    1       -4.806   5.271   0.175  0.00  0.00    +0.440 HD
ATOM      3  C   LIG    1       -2.951   5.998   0.483  0.00  0.00    +0.620 C 
ATOM      4  O   LIG    1       -2.302   7.006   0.682  0.00  0.00    -0.470 OA
ENDROOT
BRANCH   3   5
ATOM      5  C   LIG    1       -2.272   4.684   0.403  0.00  0.00    +0.240 A 
ATOM      6  N   LIG    1       -0.974   4.487   0.532  0.00  0.00    -0.250 NA
ATOM      7  N   LIG    1       -0.754   3.110   0.390  0.00  0.00    -0.330 N 
ATOM      8  C   LIG    1        0.365   2.336   0.427  0.00  0.00    +0.210 A 
ATOM      9  C   LIG    1        0.245   0.996   0.250  0.00  0.00    -0.030 A 
ATOM     10  C   LIG    1       -1.025   0.445   0.033  0.00  0.00    +0.240 A 
ATOM     11  N   LIG    1       -2.086   1.217  -0.003  0.00  0.00    -0.460 NA
ATOM     12  C   LIG    1       -1.173  -1.042  -0.165  0.00  0.00    +0.170 C 
ATOM     13  C   LIG    1        1.718   2.958   0.662  0.00  0.00    +0.180 C 
ATOM     14  C   LIG    1       -1.980   2.540   0.176  0.00  0.00    +0.460 A 
ATOM     15  N   LIG    1       -2.878   3.514   0.189  0.00  0.00    -0.500 NA
ENDBRANCH   3   5
BRANCH   1  19
ATOM     16  C   LIG    1       -6.633   8.750   0.383  0.00  0.00    +0.130 A 
ATOM     17  C   LIG    1       -5.681   9.673   0.608  0.00  0.00    -0.100 A 
ATOM     18  S   LIG    1       -4.126   8.850   0.699  0.00  0.00    +0.200 S 
ATOM     19  C   LIG    1       -4.925   7.307   0.409  0.00  0.00    +0.270 A 
ATOM     20  N   LIG    1       -6.200   7.501   0.281  0.00  0.00    -0.480 NA
BRANCH  16  25
ATOM     21  C   LIG    1      -12.203  10.126  -0.105  0.00  0.00    +0.090 C 
ATOM     22  C   LIG    1      -10.746   9.766   0.022  0.00  0.00    -0.070 A 
ATOM     23  C   LIG    1       -9.998  10.278   1.067  0.00  0.00    +0.000 A 
ATOM     24  C   LIG    1       -8.664   9.947   1.193  0.00  0.00    +0.030 A 
ATOM     25  C   LIG    1       -8.068   9.104   0.257  0.00  0.00    -0.030 A 
ATOM     26  C   LIG    1       -8.825   8.592  -0.795  0.00  0.00    -0.050 A 
ATOM     27  C   LIG    1       -8.188   7.676  -1.808  0.00  0.00    +0.090 C 
ATOM     28  C   LIG    1      -10.160   8.925  -0.907  0.00  0.00    +0.000 A 
ENDBRANCH  16  25
ENDBRANCH   1  19
TORSDOF 3
