REMARK  Name = ZINCrD000000fIKG.0
REMARK                            x       y       z     vdW  Elec       q    Type
REMARK                         _______ _______ _______ _____ _____    ______ ____
ROOT
ATOM      1  C   LIG    1        4.575   4.069  -0.286  0.00  0.00    +0.580 C 
ATOM      2  N   LIG    1        4.772   5.392  -0.121  0.00  0.00    -0.610 N 
ATOM      3  C   LIG    1        3.720   6.425  -0.129  0.00  0.00    +0.250 C 
ATOM      4  C   LIG    1        4.316   7.601   0.688  0.00  0.00    +0.040 C 
ATOM      5  C   LIG    1        5.805   7.556   0.254  0.00  0.00    +0.050 C 
ATOM      6  C   LIG    1        6.072   6.045   0.091  0.00  0.00    +0.270 C 
ATOM      7  O   LIG    1        3.444   3.625  -0.337  0.00  0.00    -0.530 OA
ENDROOT
BRANCH   6   8
ATOM      8  C   LIG    1        6.965   5.807  -1.099  0.00  0.00    -0.100 A 
ATOM      9  C   LIG    1        6.419   5.722  -2.365  0.00  0.00    +0.030 A 
ATOM     10  C   LIG    1        7.235   5.508  -3.460  0.00  0.00    +0.020 A 
ATOM     11  C   LIG    1        8.604   5.368  -3.289  0.00  0.00    +0.050 A 
ATOM     12  O   LIG    1        9.395   5.149  -4.375  0.00  0.00    -0.310 OA
ATOM     13  C   LIG    1       10.796   5.388  -4.209  0.00  0.00    +0.220 C 
ATOM     14  C   LIG    1       11.243   4.733  -2.895  0.00  0.00    +0.240 C 
ATOM     15  O   LIG    1       10.495   5.321  -1.825  0.00  0.00    -0.300 OA
ATOM     16  C   LIG    1        9.153   5.450  -2.014  0.00  0.00    +0.080 A 
ATOM     17  C   LIG    1        8.329   5.669  -0.921  0.00  0.00    +0.020 A 
ENDBRANCH   6   8
BRANCH   1  21
ATOM     18  C   LIG    1        7.902   1.453  -0.630  0.00  0.00    +0.170 A 
ATOM     19  C   LIG    1        8.081   2.743  -0.139  0.00  0.00    +0.010 A 
ATOM     20  C   LIG    1        7.005   3.595  -0.032  0.00  0.00    +0.070 A 
ATOM     21  C   LIG    1        5.731   3.160  -0.406  0.00  0.00    -0.150 A 
ATOM     22  C   LIG    1        5.554   1.863  -0.894  0.00  0.00    +0.100 A 
ATOM     23  C   LIG    1        6.635   1.017  -1.004  0.00  0.00    -0.030 A 
BRANCH  18  26
ATOM     24  C   LIG    1       11.363   0.144  -1.299  0.00  0.00    +0.110 C 
ATOM     25  C   LIG    1       10.205   1.083  -1.080  0.00  0.00    +0.510 C 
ATOM     26  N   LIG    1        8.995   0.594  -0.743  0.00  0.00    -0.670 N 
ATOM     27  H   LIG    1        8.885  -0.355  -0.576  0.00  0.00    +0.410 HD
ATOM     28  O   LIG    1       10.362   2.279  -1.206  0.00  0.00    -0.510 OA
ENDBRANCH  18  26
ENDBRANCH   1  21
TORSDOF 3
