REMARK  Name = ZINCrH000004sHxx.0
REMARK                            x       y       z     vdW  Elec       q    Type
REMARK                         _______ _______ _______ _____ _____    ______ ____
ROOT
ATOM      1  C   LIG    1        1.248   1.716  -0.001  0.00  0.00    +0.390 C 
ENDROOT
BRANCH   1   2
ATOM      2  C   LIG    1        2.406   0.752  -0.017  0.00  0.00    -0.010 A 
ATOM      3  C   LIG    1        2.996   0.251  -1.122  0.00  0.00    -0.020 A 
ATOM      4  C   LIG    1        4.029  -0.601  -0.689  0.00  0.00    +0.000 A 
ATOM      5  C   LIG    1        4.008  -0.580   0.674  0.00  0.00    +0.050 A 
ATOM      6  O   LIG    1        3.017   0.246   1.065  0.00  0.00    -0.140 OA
BRANCH   5   7
ATOM      7  C   LIG    1        4.910  -1.328   1.563  0.00  0.00    +0.170 A 
ATOM      8  N   LIG    1        4.871  -1.292   2.855  0.00  0.00    -0.450 NA
ATOM      9  C   LIG    1        5.764  -2.034   3.531  0.00  0.00    +0.080 A 
ATOM     10  C   LIG    1        5.927  -2.166   4.928  0.00  0.00    +0.080 A 
ATOM     11  C   LIG    1        6.905  -2.979   5.440  0.00  0.00    +0.030 A 
ATOM     12  C   LIG    1        7.750  -3.685   4.597  0.00  0.00    +0.050 A 
ATOM     13  C   LIG    1        7.612  -3.573   3.231  0.00  0.00    +0.060 A 
ATOM     14  C   LIG    1        6.625  -2.752   2.692  0.00  0.00    -0.170 A 
ATOM     15  S   LIG    1        6.190  -2.404   1.020  0.00  0.00    +0.120 S 
ENDBRANCH   5   7
ENDBRANCH   1   2
BRANCH   1  17
ATOM     16  C   LIG    1       -1.187   1.624   0.017  0.00  0.00    +0.510 C 
ATOM     17  N   LIG    1       -0.011   0.966   0.007  0.00  0.00    -0.730 N 
ATOM     18  H   LIG    1        0.002  -0.004   0.002  0.00  0.00    +0.400 HD
ATOM     19  O   LIG    1       -1.204   2.837   0.023  0.00  0.00    -0.520 OA
BRANCH  16  20
ATOM     20  C   LIG    1       -2.482   0.853   0.018  0.00  0.00    +0.140 C 
BRANCH  20  28
ATOM     21  C   LIG    1       -3.911   2.019   2.595  0.00  0.00    +0.150 C 
ATOM     22  C   LIG    1       -4.272   2.332   1.166  0.00  0.00    +0.090 A 
ATOM     23  N   LIG    1       -5.227   3.135   0.774  0.00  0.00    -0.300 NA
ATOM     24  N   LIG    1       -5.241   3.148  -0.627  0.00  0.00    -0.370 N 
ATOM     25  C   LIG    1       -4.258   2.331  -1.059  0.00  0.00    +0.100 A 
ATOM     26  C   LIG    1       -3.910   2.044  -2.497  0.00  0.00    +0.140 C 
ATOM     27  C   LIG    1       -6.160   3.914  -1.472  0.00  0.00    +0.350 C 
ATOM     28  C   LIG    1       -3.641   1.816   0.029  0.00  0.00    -0.230 A 
ENDBRANCH  20  28
ENDBRANCH  16  20
ENDBRANCH   1  17
TORSDOF 5
