REMARK  Name = ZINCrH000004oh75.0
REMARK                            x       y       z     vdW  Elec       q    Type
REMARK                         _______ _______ _______ _____ _____    ______ ____
ROOT
ATOM      1  N   LIG    1       -3.093   4.562  -0.890  0.00  0.00    -0.740 N 
ATOM      2  H   LIG    1       -2.950   4.778   0.045  0.00  0.00    +0.400 HD
ATOM      3  C   LIG    1       -2.442   3.523  -1.449  0.00  0.00    +0.730 C 
ATOM      4  N   LIG    1       -1.592   2.783  -0.710  0.00  0.00    -0.620 N 
ATOM      5  C   LIG    1       -1.283   2.998   0.716  0.00  0.00    +0.260 C 
ATOM      6  C   LIG    1       -0.802   1.617   1.234  0.00  0.00    +0.040 C 
ATOM      7  C   LIG    1       -0.013   1.086   0.008  0.00  0.00    +0.060 C 
ATOM      8  C   LIG    1       -0.821   1.627  -1.190  0.00  0.00    +0.340 C 
ATOM      9  O   LIG    1       -2.622   3.252  -2.621  0.00  0.00    -0.580 OA
ENDROOT
BRANCH   8  10
ATOM     10  C   LIG    1        0.117   2.058  -2.288  0.00  0.00    +0.170 A 
ATOM     11  N   LIG    1        0.850   3.140  -2.303  0.00  0.00    -0.280 NA
ATOM     12  N   LIG    1        1.535   3.186  -3.392  0.00  0.00    -0.290 NA
ATOM     13  C   LIG    1        1.273   2.136  -4.116  0.00  0.00    +0.180 A 
ATOM     14  C   LIG    1        1.866   1.781  -5.454  0.00  0.00    +0.150 C 
ATOM     15  C   LIG    1        0.741   1.364  -6.407  0.00  0.00    +0.030 C 
ATOM     16  C   LIG    1        0.481  -0.133  -6.266  0.00  0.00    +0.020 C 
ATOM     17  C   LIG    1        0.717  -0.584  -4.825  0.00  0.00    +0.030 C 
ATOM     18  C   LIG    1       -0.251   0.146  -3.890  0.00  0.00    +0.280 C 
ATOM     19  N   LIG    1        0.363   1.395  -3.440  0.00  0.00    -0.460 N 
ENDBRANCH   8  10
BRANCH   1  21
ATOM     20  C   LIG    1       -3.234   6.447  -2.441  0.00  0.00    +0.040 C 
ATOM     21  C   LIG    1       -4.017   5.366  -1.694  0.00  0.00    +0.310 C 
BRANCH  21  22
ATOM     22  C   LIG    1       -5.034   6.015  -0.792  0.00  0.00    -0.100 A 
ATOM     23  C   LIG    1       -4.646   6.524   0.433  0.00  0.00    +0.040 A 
ATOM     24  C   LIG    1       -5.577   7.125   1.260  0.00  0.00    -0.010 A 
ATOM     25  C   LIG    1       -6.901   7.206   0.865  0.00  0.00    +0.100 A 
ATOM     26  C   LIG    1       -7.290   6.691  -0.360  0.00  0.00    -0.010 A 
ATOM     27  F   LIG    1       -7.814   7.787   1.674  0.00  0.00    -0.140 F 
ATOM     28  C   LIG    1       -6.356   6.096  -1.187  0.00  0.00    +0.060 A 
ENDBRANCH  21  22
ENDBRANCH   1  21
TORSDOF 3
