REMARK  Name = ZINCpk00000xIl10.0
REMARK                            x       y       z     vdW  Elec       q    Type
REMARK                         _______ _______ _______ _____ _____    ______ ____
ROOT
ATOM      1  O   LIG    1       -2.500  -0.177  -0.078  0.00  0.00    -0.440 OA
ATOM      2  C   LIG    1       -2.491   1.036   0.022  0.00  0.00    +0.570 C 
ATOM      3  N   LIG    1       -3.653   1.711   0.133  0.00  0.00    -0.650 N 
ATOM      4  H   LIG    1       -3.651   2.681   0.136  0.00  0.00    +0.400 HD
ENDROOT
BRANCH   2   5
ATOM      5  C   LIG    1       -1.216   1.764   0.021  0.00  0.00    -0.170 A 
ATOM      6  C   LIG    1       -1.197   3.151   0.029  0.00  0.00    +0.170 A 
ATOM      7  C   LIG    1        0.034   3.809   0.031  0.00  0.00    -0.050 A 
ATOM      8  C   LIG    1        1.189   3.114   0.011  0.00  0.00    +0.330 A 
ATOM      9  N   LIG    1        1.232   1.747  -0.021  0.00  0.00    -0.510 N 
ATOM     10  C   LIG    1        2.565   1.142  -0.098  0.00  0.00    +0.340 C 
ATOM     11  C   LIG    1        2.611  -0.160   0.707  0.00  0.00    -0.390 C 
ATOM     12  S   LIG    1        1.319  -1.252   0.036  0.00  0.00    +2.550 S 
ATOM     13  N   LIG    1       -0.018  -0.276   0.034  0.00  0.00    -0.910 NA
ATOM     14  O   LIG    1        1.557  -1.533  -1.336  0.00  0.00    -0.960 OA
ATOM     15  O   LIG    1        1.004  -2.287   0.957  0.00  0.00    -0.930 OA
ATOM     16  C   LIG    1        0.069   1.029   0.007  0.00  0.00    +0.530 A 
ENDBRANCH   2   5
BRANCH   3  17
ATOM     17  C   LIG    1       -4.855   1.016   0.242  0.00  0.00    +0.300 A 
ATOM     18  C   LIG    1       -5.006  -0.338   0.244  0.00  0.00    -0.100 A 
ATOM     19  C   LIG    1       -6.369  -0.617   0.376  0.00  0.00    +0.250 A 
ATOM     20  N   LIG    1       -7.019   0.516   0.441  0.00  0.00    -0.280 NA
ATOM     21  N   LIG    1       -6.093   1.563   0.359  0.00  0.00    -0.380 N 
BRANCH  21  22
ATOM     22  C   LIG    1       -6.403   2.995   0.394  0.00  0.00    +0.250 C 
ATOM     23  C   LIG    1       -7.166   3.339   1.689  0.00  0.00    +0.030 C 
ATOM     24  C   LIG    1       -8.194   4.412   1.251  0.00  0.00    +0.020 C 
ATOM     25  C   LIG    1       -8.630   3.915  -0.150  0.00  0.00    +0.020 C 
ATOM     26  C   LIG    1       -7.333   3.361  -0.775  0.00  0.00    +0.020 C 
ENDBRANCH  21  22
ENDBRANCH   3  17
TORSDOF 3
