REMARK  Name = ZINCrD0000073lya.0
REMARK                            x       y       z     vdW  Elec       q    Type
REMARK                         _______ _______ _______ _____ _____    ______ ____
ROOT
ATOM      1  N   LIG    1       -1.521   7.574   0.055  0.00  0.00    -0.620 N 
ATOM      2  H   LIG    1       -0.757   8.171   0.051  0.00  0.00    +0.430 HD
ATOM      3  C   LIG    1       -1.333   6.239   0.046  0.00  0.00    +0.520 C 
ATOM      4  O   LIG    1       -2.289   5.492   0.052  0.00  0.00    -0.480 OA
ENDROOT
BRANCH   1   8
ATOM      5  C   LIG    1       -4.396   9.669   0.092  0.00  0.00    +0.140 A 
ATOM      6  C   LIG    1       -5.244   8.625   0.095  0.00  0.00    -0.110 A 
ATOM      7  S   LIG    1       -4.292   7.143   0.079  0.00  0.00    +0.210 S 
ATOM      8  C   LIG    1       -2.810   8.094   0.070  0.00  0.00    +0.270 A 
ATOM      9  N   LIG    1       -3.108   9.356   0.084  0.00  0.00    -0.500 NA
BRANCH   5  13
ATOM     10  C   LIG    1       -5.755  13.700   0.125  0.00  0.00    +0.140 A 
ATOM     11  C   LIG    1       -4.394  13.428   0.110  0.00  0.00    -0.020 A 
ATOM     12  C   LIG    1       -3.950  12.122   0.100  0.00  0.00    +0.090 A 
ATOM     13  C   LIG    1       -4.870  11.075   0.103  0.00  0.00    -0.060 A 
ATOM     14  C   LIG    1       -6.236  11.352   0.113  0.00  0.00    +0.070 A 
ATOM     15  C   LIG    1       -6.673  12.660   0.130  0.00  0.00    -0.080 A 
BRANCH  10  17
ATOM     16  C   LIG    1       -7.602  15.196   0.151  0.00  0.00    +0.250 C 
ATOM     17  O   LIG    1       -6.189  14.988   0.136  0.00  0.00    -0.320 OA
ENDBRANCH  10  17
ENDBRANCH   5  13
ENDBRANCH   1   8
BRANCH   3  18
ATOM     18  C   LIG    1        0.064   5.675   0.030  0.00  0.00    +0.300 C 
BRANCH  18  19
ATOM     19  O   LIG    1        0.000   4.225   0.024  0.00  0.00    -0.330 OA
BRANCH  19  20
ATOM     20  C   LIG    1        1.173   3.561   0.009  0.00  0.00    +0.510 C 
ATOM     21  O   LIG    1        2.220   4.177   0.003  0.00  0.00    -0.490 OA
BRANCH  20  22
ATOM     22  C   LIG    1        1.185   2.087   0.002  0.00  0.00    -0.160 A 
ATOM     23  C   LIG    1       -0.017   1.374   0.010  0.00  0.00    +0.110 A 
ATOM     24  C   LIG    1        0.002  -0.004   0.002  0.00  0.00    +0.000 A 
ATOM     25  C   LIG    1        1.207  -0.687  -0.013  0.00  0.00    +0.080 A 
ATOM     26  C   LIG    1        2.402   0.005  -0.021  0.00  0.00    -0.020 A 
ATOM     27  C   LIG    1        2.403   1.392  -0.014  0.00  0.00    +0.180 A 
BRANCH  27  28
ATOM     28  O   LIG    1        3.576   2.073  -0.021  0.00  0.00    -0.480 OA
ATOM     29  H   LIG    1        3.908   2.275  -0.907  0.00  0.00    +0.400 HD
ENDBRANCH  27  28
ENDBRANCH  20  22
ENDBRANCH  19  20
ENDBRANCH  18  19
ENDBRANCH   3  18
TORSDOF 8
