REMARK  Name = ZINCvU00000007zF.0
REMARK                            x       y       z     vdW  Elec       q    Type
REMARK                         _______ _______ _______ _____ _____    ______ ____
ROOT
ATOM      1  C   LIG    1        3.885   2.663  -0.836  0.00  0.00    +0.080 C 
ENDROOT
BRANCH   1   2
ATOM      2  C   LIG    1        5.309   3.009  -1.188  0.00  0.00    +0.450 C 
ATOM      3  O   LIG    1        6.135   2.127  -1.309  0.00  0.00    -0.460 OA
BRANCH   2   7
ATOM      4  C   LIG    1        5.152   8.089  -1.544  0.00  0.00    +0.120 C 
ATOM      5  C   LIG    1        5.609   6.653  -1.538  0.00  0.00    +0.010 A 
ATOM      6  C   LIG    1        4.831   5.589  -1.278  0.00  0.00    +0.000 A 
ATOM      7  C   LIG    1        5.697   4.407  -1.385  0.00  0.00    -0.260 A 
ATOM      8  C   LIG    1        6.953   4.886  -1.703  0.00  0.00    +0.120 A 
ATOM      9  C   LIG    1        8.191   4.052  -1.913  0.00  0.00    +0.150 C 
ATOM     10  N   LIG    1        6.880   6.226  -1.796  0.00  0.00    -0.430 N 
BRANCH  10  11
ATOM     11  C   LIG    1        8.006   7.104  -2.121  0.00  0.00    +0.390 C 
BRANCH  11  12
ATOM     12  C   LIG    1        8.708   7.513  -0.852  0.00  0.00    -0.220 A 
ATOM     13  C   LIG    1        9.716   6.849  -0.283  0.00  0.00    +0.030 A 
ATOM     14  C   LIG    1       10.206   7.417   0.881  0.00  0.00    +0.000 A 
ATOM     15  C   LIG    1        9.589   8.537   1.262  0.00  0.00    -0.030 A 
ATOM     16  S   LIG    1        8.319   8.932   0.111  0.00  0.00    +0.120 S 
ENDBRANCH  11  12
ENDBRANCH  10  11
ENDBRANCH   2   7
ENDBRANCH   1   2
BRANCH   1  17
ATOM     17  S   LIG    1        3.725   0.869  -0.661  0.00  0.00    +0.070 S 
BRANCH  17  18
ATOM     18  C   LIG    1        2.013   0.753  -0.261  0.00  0.00    +0.140 A 
ATOM     19  N   LIG    1        1.168   1.751  -0.145  0.00  0.00    -0.290 NA
ATOM     20  N   LIG    1        0.002   1.304   0.157  0.00  0.00    -0.270 NA
ATOM     21  C   LIG    1        0.031   0.005   0.250  0.00  0.00    +0.190 A 
ATOM     22  N   LIG    1        1.313  -0.393  -0.013  0.00  0.00    -0.430 N 
BRANCH  22  23
ATOM     23  C   LIG    1        1.829  -1.765  -0.025  0.00  0.00    +0.200 C 
ATOM     24  C   LIG    1        3.346  -1.950   0.046  0.00  0.00    +0.070 C 
ATOM     25  C   LIG    1        2.602  -2.217  -1.265  0.00  0.00    +0.060 C 
ENDBRANCH  22  23
BRANCH  21  26
ATOM     26  C   LIG    1       -1.132  -0.893   0.586  0.00  0.00    +0.250 C 
BRANCH  26  27
ATOM     27  C   LIG    1       -1.836  -1.299  -0.683  0.00  0.00    -0.190 A 
ATOM     28  C   LIG    1       -1.542  -2.375  -1.415  0.00  0.00    +0.010 A 
ATOM     29  C   LIG    1       -2.328  -2.547  -2.541  0.00  0.00    +0.000 A 
ATOM     30  C   LIG    1       -3.255  -1.606  -2.729  0.00  0.00    -0.040 A 
ATOM     31  S   LIG    1       -3.165  -0.423  -1.430  0.00  0.00    +0.130 S 
ENDBRANCH  26  27
ENDBRANCH  21  26
ENDBRANCH  17  18
ENDBRANCH   1  17
TORSDOF 9
