REMARK  Name = ZINCvU0000000Efa.0
REMARK                            x       y       z     vdW  Elec       q    Type
REMARK                         _______ _______ _______ _____ _____    ______ ____
ROOT
ATOM      1  C   LIG    1       -0.078   6.221   4.524  0.00  0.00    +0.530 C 
ATOM      2  N   LIG    1        0.651   5.417   3.725  0.00  0.00    -0.610 N 
ATOM      3  C   LIG    1        1.552   5.985   2.714  0.00  0.00    +0.270 C 
ATOM      4  C   LIG    1        1.215   5.372   1.351  0.00  0.00    +0.030 C 
ATOM      5  C   LIG    1        1.270   3.846   1.456  0.00  0.00    -0.030 C 
ATOM      6  C   LIG    1        0.232   3.365   2.473  0.00  0.00    +0.020 C 
ATOM      7  C   LIG    1        0.559   3.956   3.848  0.00  0.00    +0.260 C 
ATOM      8  O   LIG    1        0.075   7.423   4.478  0.00  0.00    -0.530 OA
ENDROOT
BRANCH   1   9
ATOM      9  C   LIG    1       -1.084   5.625   5.476  0.00  0.00    +0.030 C 
BRANCH   9  10
ATOM     10  C   LIG    1       -0.443   5.428   6.825  0.00  0.00    -0.080 A 
ATOM     11  C   LIG    1        0.066   6.512   7.514  0.00  0.00    +0.070 A 
ATOM     12  C   LIG    1        0.654   6.331   8.752  0.00  0.00    +0.020 A 
ATOM     13  C   LIG    1        0.732   5.065   9.302  0.00  0.00    +0.070 A 
ATOM     14  C   LIG    1        0.222   3.980   8.613  0.00  0.00    -0.180 A 
ATOM     15  C   LIG    1       -0.370   4.162   7.377  0.00  0.00    +0.070 A 
BRANCH  14  16
ATOM     16  C   LIG    1        0.306   2.600   9.212  0.00  0.00    +0.510 C 
ATOM     17  F   LIG    1        1.043   1.767   8.363  0.00  0.00    -0.180 F 
ATOM     18  F   LIG    1       -0.984   2.081   9.370  0.00  0.00    -0.180 F 
ATOM     19  F   LIG    1        0.936   2.671  10.459  0.00  0.00    -0.180 F 
ENDBRANCH  14  16
ENDBRANCH   9  10
BRANCH   9  21
ATOM     20  C   LIG    1       -3.013   6.663   4.273  0.00  0.00    +0.020 C 
ATOM     21  C   LIG    1       -2.279   6.572   5.612  0.00  0.00    +0.040 C 
ENDBRANCH   9  21
ENDBRANCH   1   9
BRANCH   5  22
ATOM     22  C   LIG    1        0.967   3.230   0.088  0.00  0.00    +0.270 C 
BRANCH  22  23
ATOM     23  C   LIG    1        1.021   1.728   0.191  0.00  0.00    -0.150 A 
ATOM     24  C   LIG    1       -0.149   1.000   0.301  0.00  0.00    +0.060 A 
ATOM     25  C   LIG    1       -0.102  -0.377   0.395  0.00  0.00    -0.020 A 
ATOM     26  C   LIG    1        1.122  -1.031   0.378  0.00  0.00    +0.130 A 
ATOM     27  C   LIG    1        2.295  -0.298   0.268  0.00  0.00    -0.070 A 
ATOM     28  C   LIG    1        2.242   1.079   0.174  0.00  0.00    +0.050 A 
BRANCH  26  29
ATOM     29  O   LIG    1        1.171  -2.386   0.470  0.00  0.00    -0.320 OA
ATOM     30  C   LIG    1        2.465  -2.991   0.447  0.00  0.00    +0.250 C 
ENDBRANCH  26  29
ENDBRANCH  22  23
BRANCH  22  31
ATOM     31  O   LIG    1        1.936   3.678  -0.861  0.00  0.00    -0.550 OA
ATOM     32  H   LIG    1        2.846   3.441  -0.636  0.00  0.00    +0.370 HD
ENDBRANCH  22  31
ENDBRANCH   5  22
TORSDOF 8
