REMARK  Name = ZINCpk00000KfLbM.0
REMARK                            x       y       z     vdW  Elec       q    Type
REMARK                         _______ _______ _______ _____ _____    ______ ____
ROOT
ATOM      1  N   LIG    1       -0.068   5.240   0.028  0.00  0.00    -0.670 N 
ATOM      2  H   LIG    1        0.763   5.736   0.089  0.00  0.00    +0.440 HD
ATOM      3  C   LIG    1       -1.241   5.899  -0.059  0.00  0.00    +0.510 C 
ATOM      4  O   LIG    1       -2.286   5.282  -0.052  0.00  0.00    -0.480 OA
ENDROOT
BRANCH   1  11
ATOM      5  C   LIG    1        0.993   3.159  -0.580  0.00  0.00    -0.670 A 
ATOM      6  C   LIG    1        1.007   1.778  -0.576  0.00  0.00    +0.170 A 
ATOM      7  C   LIG    1       -0.015   1.076   0.035  0.00  0.00    +0.030 A 
ATOM      8  C   LIG    1       -1.059   1.754   0.640  0.00  0.00    -0.020 A 
ATOM      9  C   LIG    1       -1.077   3.136   0.644  0.00  0.00    +0.050 A 
ATOM     10 BR   LIG    1       -2.459   0.789   1.468  0.00  0.00    -0.020 Br
ATOM     11  C   LIG    1       -0.051   3.843   0.031  0.00  0.00    +0.240 A 
BRANCH   5  13
ATOM     12  C   LIG    1        1.494   4.909  -2.743  0.00  0.00    -0.240 C 
ATOM     13  S   LIG    1        2.296   4.052  -1.360  0.00  0.00    +2.490 S 
ATOM     14  O   LIG    1        3.174   3.043  -1.840  0.00  0.00    -0.920 OA
ATOM     15  O   LIG    1        2.721   4.984  -0.375  0.00  0.00    -0.930 OA
ENDBRANCH   5  13
ENDBRANCH   1  11
BRANCH   3  16
ATOM     16  C   LIG    1       -1.254   7.389  -0.165  0.00  0.00    +0.510 C 
ATOM     17  N   LIG    1       -2.426   8.048  -0.253  0.00  0.00    -0.690 N 
ATOM     18  H   LIG    1       -3.261   7.555  -0.247  0.00  0.00    +0.410 HD
ATOM     19  O   LIG    1       -0.209   8.006  -0.172  0.00  0.00    -0.500 OA
BRANCH  17  20
ATOM     20  C   LIG    1       -2.439   9.509  -0.356  0.00  0.00    +0.250 C 
ATOM     21  C   LIG    1       -2.268   9.918  -1.821  0.00  0.00    +0.020 C 
ATOM     22  C   LIG    1       -3.416   9.338  -2.650  0.00  0.00    +0.010 C 
ATOM     23  C   LIG    1       -4.748   9.875  -2.123  0.00  0.00    +0.020 C 
ATOM     24  C   LIG    1       -4.919   9.466  -0.658  0.00  0.00    +0.030 C 
ATOM     25  C   LIG    1       -3.771  10.046   0.171  0.00  0.00    +0.010 C 
BRANCH  25  26
ATOM     26  C   LIG    1       -3.942   9.638   1.635  0.00  0.00    +0.180 C 
BRANCH  26  27
ATOM     27  O   LIG    1       -5.129  10.236   2.161  0.00  0.00    -0.570 OA
ATOM     28  H   LIG    1       -5.301  10.019   3.088  0.00  0.00    +0.380 HD
ENDBRANCH  26  27
ENDBRANCH  25  26
ENDBRANCH  17  20
ENDBRANCH   3  16
TORSDOF 6
