REMARK  Name = ZINCnE00000hdbgN.1
REMARK                            x       y       z     vdW  Elec       q    Type
REMARK                         _______ _______ _______ _____ _____    ______ ____
ROOT
ATOM      1  S   LIG    1        4.000   5.947   2.842  0.00  0.00    +2.570 S 
ATOM      2  O   LIG    1        2.750   6.555   3.140  0.00  0.00    -1.020 OA
ATOM      3  O   LIG    1        4.748   6.242   1.671  0.00  0.00    -1.030 OA
ENDROOT
BRANCH   1   4
ATOM      4  C   LIG    1        5.058   6.291   4.208  0.00  0.00    -0.580 A 
ATOM      5  C   LIG    1        4.516   6.582   5.447  0.00  0.00    +0.060 A 
ATOM      6  C   LIG    1        5.348   6.847   6.521  0.00  0.00    +0.040 A 
ATOM      7  C   LIG    1        6.720   6.832   6.353  0.00  0.00    -0.040 A 
ATOM      8  C   LIG    1        7.262   6.547   5.113  0.00  0.00    +0.040 A 
ATOM      9 BR   LIG    1        7.856   7.201   7.819  0.00  0.00    -0.030 Br
ATOM     10 CL   LIG    1        2.793   6.607   5.657  0.00  0.00    -0.000 Cl
ATOM     11  C   LIG    1        6.431   6.276   4.040  0.00  0.00    +0.060 A 
ATOM     12 CL   LIG    1        7.112   5.918   2.484  0.00  0.00    -0.010 Cl
ENDBRANCH   1   4
BRANCH   1  13
ATOM     13  N   LIG    1        3.734   4.313   2.828  0.00  0.00    -1.130 NA
BRANCH  13  15
ATOM     14  C   LIG    1        1.478   4.321   1.884  0.00  0.00    -0.020 C 
ATOM     15  C   LIG    1        2.881   3.719   1.795  0.00  0.00    +0.190 C 
BRANCH  15  16
ATOM     16  C   LIG    1        2.802   2.229   2.005  0.00  0.00    +0.540 C 
ATOM     17  N   LIG    1        2.448   1.422   0.985  0.00  0.00    -0.630 N 
ATOM     18  C   LIG    1        2.472  -0.038   1.142  0.00  0.00    +0.260 C 
ATOM     19  C   LIG    1        3.317  -0.642   0.016  0.00  0.00    +0.010 C 
ATOM     20  C   LIG    1        2.777  -0.164  -1.334  0.00  0.00    +0.000 C 
ATOM     21  C   LIG    1        2.881   1.361  -1.416  0.00  0.00    +0.000 C 
ATOM     22  C   LIG    1        2.031   1.987  -0.306  0.00  0.00    +0.260 C 
ATOM     23  O   LIG    1        3.057   1.755   3.092  0.00  0.00    -0.520 OA
ENDBRANCH  15  16
ENDBRANCH  13  15
ENDBRANCH   1  13
TORSDOF 4
