REMARK  Name = ZINCb80000002Hrf.0
REMARK                            x       y       z     vdW  Elec       q    Type
REMARK                         _______ _______ _______ _____ _____    ______ ____
ROOT
ATOM      1  O   LIG    1       -2.611   1.885  -2.316  0.00  0.00    -0.490 OA
ATOM      2  C   LIG    1       -2.040   1.619  -1.275  0.00  0.00    +0.590 C 
ATOM      3  N   LIG    1       -0.688   1.554  -1.196  0.00  0.00    -0.730 N 
ATOM      4  H   LIG    1       -0.156   1.825  -1.961  0.00  0.00    +0.410 HD
ATOM      5  C   LIG    1       -0.013   1.086   0.008  0.00  0.00    +0.300 C 
ATOM      6  C   LIG    1       -0.696   1.563   1.289  0.00  0.00    +0.340 C 
ATOM      7  N   LIG    1       -2.138   1.323   1.188  0.00  0.00    -0.280 N 
ATOM      8  N   LIG    1       -2.992   1.072   2.101  0.00  0.00    -0.250 NA
ATOM      9  C   LIG    1       -4.192   0.919   1.592  0.00  0.00    +0.230 A 
ATOM     10  C   LIG    1       -4.099   1.092   0.204  0.00  0.00    -0.140 A 
ATOM     11  I   LIG    1       -5.647   0.980  -1.203  0.00  0.00    +0.030 I 
ATOM     12  C   LIG    1       -2.778   1.349  -0.032  0.00  0.00    -0.020 A 
ENDROOT
TORSDOF 0
