REMARK  Name = ZINCrD00000752Dt.0
REMARK                            x       y       z     vdW  Elec       q    Type
REMARK                         _______ _______ _______ _____ _____    ______ ____
ROOT
ATOM      1  C   LIG    1       -1.217  -0.890   0.008  0.00  0.00    +0.210 C 
ATOM      2  C   LIG    1        0.002  -0.004   0.002  0.00  0.00    +0.260 A 
ATOM      3  N   LIG    1        1.242  -0.425  -0.012  0.00  0.00    -0.320 NA
ATOM      4  N   LIG    1        2.063   0.710  -0.014  0.00  0.00    -0.370 N 
ATOM      5  C   LIG    1        3.418   0.899  -0.025  0.00  0.00    +0.650 A 
ATOM      6  N   LIG    1        3.967   2.086  -0.023  0.00  0.00    -0.550 NA
ATOM      7  C   LIG    1        3.226   3.220  -0.010  0.00  0.00    +0.180 A 
ATOM      8  C   LIG    1        1.816   3.125   0.002  0.00  0.00    -0.120 A 
ATOM      9  C   LIG    1        1.039   4.282   0.015  0.00  0.00    +0.100 A 
ATOM     10  C   LIG    1        1.654   5.514   0.015  0.00  0.00    +0.000 A 
ATOM     11  C   LIG    1        3.039   5.612   0.003  0.00  0.00    +0.070 A 
ATOM     12  C   LIG    1        3.825   4.483  -0.009  0.00  0.00    +0.020 A 
ATOM     13  C   LIG    1        1.217   1.786   0.000  0.00  0.00    +0.350 A 
ATOM     14  N   LIG    1       -0.016   1.326   0.009  0.00  0.00    -0.520 NA
ENDROOT
BRANCH   5  15
ATOM     15  N   LIG    1        4.236  -0.205  -0.039  0.00  0.00    -0.690 N 
ATOM     16  H   LIG    1        3.850  -1.095  -0.040  0.00  0.00    +0.420 HD
BRANCH  15  17
ATOM     17  C   LIG    1        5.692  -0.038  -0.052  0.00  0.00    +0.260 C 
ATOM     18  C   LIG    1        6.200   0.133   1.383  0.00  0.00    -0.000 C 
ATOM     19  C   LIG    1        7.728   0.228   1.367  0.00  0.00    +0.230 C 
ATOM     20  O   LIG    1        8.270  -0.943   0.753  0.00  0.00    -0.370 OA
ATOM     21  C   LIG    1        7.867  -1.129  -0.606  0.00  0.00    +0.220 C 
ATOM     22  C   LIG    1        6.345  -1.278  -0.670  0.00  0.00    +0.010 C 
BRANCH  21  23
ATOM     23  C   LIG    1        8.518  -2.372  -1.157  0.00  0.00    -0.040 A 
ATOM     24  C   LIG    1        8.644  -3.512  -0.378  0.00  0.00    -0.010 A 
ATOM     25  C   LIG    1        9.242  -4.634  -0.919  0.00  0.00    +0.260 A 
ATOM     26  N   LIG    1        9.698  -4.625  -2.157  0.00  0.00    -0.480 NA
ATOM     27  C   LIG    1        9.600  -3.557  -2.924  0.00  0.00    +0.260 A 
ATOM     28  C   LIG    1        9.009  -2.400  -2.453  0.00  0.00    -0.020 A 
ENDBRANCH  21  23
ENDBRANCH  15  17
ENDBRANCH   5  15
TORSDOF 3
