REMARK  Name = ZINCrg000000r5Np.0
REMARK                            x       y       z     vdW  Elec       q    Type
REMARK                         _______ _______ _______ _____ _____    ______ ____
ROOT
ATOM      1  C   LIG    1        2.144  -6.624   0.049  0.00  0.00    +0.560 C 
ATOM      2  N   LIG    1        3.055  -5.636  -0.056  0.00  0.00    -0.660 N 
ATOM      3  H   LIG    1        3.996  -5.852  -0.144  0.00  0.00    +0.420 HD
ATOM      4  O   LIG    1        0.958  -6.358   0.062  0.00  0.00    -0.510 OA
ENDROOT
BRANCH   1   8
ATOM      5  C   LIG    1        3.417 -10.666   0.334  0.00  0.00    -0.050 A 
ATOM      6  C   LIG    1        2.066 -10.367   0.349  0.00  0.00    +0.020 A 
ATOM      7  C   LIG    1        1.646  -9.056   0.257  0.00  0.00    +0.090 A 
ATOM      8  C   LIG    1        2.587  -8.030   0.148  0.00  0.00    -0.140 A 
ATOM      9  C   LIG    1        3.948  -8.340   0.128  0.00  0.00    +0.050 A 
ATOM     10  C   LIG    1        4.355  -9.654   0.226  0.00  0.00    +0.010 A 
BRANCH   5  11
ATOM     11  C   LIG    1        3.869 -12.100   0.434  0.00  0.00    +0.090 C 
BRANCH  11  12
ATOM     12  C   LIG    1        3.979 -12.699  -0.969  0.00  0.00    +0.280 C 
BRANCH  12  13
ATOM     13  N   LIG    1        4.419 -14.094  -0.872  0.00  0.00    -1.120 NA
ATOM     14  H   LIG    1        4.795 -14.427  -0.042  0.00  0.00    +0.420 HD
BRANCH  13  16
ATOM     15  C   LIG    1        5.392 -14.398  -3.420  0.00  0.00    -0.280 C 
ATOM     16  S   LIG    1        4.272 -15.101  -2.178  0.00  0.00    +2.620 S 
ATOM     17  O   LIG    1        2.919 -14.953  -2.585  0.00  0.00    -0.950 OA
ATOM     18  O   LIG    1        4.765 -16.351  -1.713  0.00  0.00    -0.960 OA
ENDBRANCH  13  16
ENDBRANCH  12  13
ENDBRANCH  11  12
ENDBRANCH   5  11
ENDBRANCH   1   8
BRANCH   2  19
ATOM     19  C   LIG    1        2.642  -4.299  -0.039  0.00  0.00    +0.090 A 
ATOM     20  C   LIG    1        1.536  -3.911   0.714  0.00  0.00    +0.100 A 
ATOM     21  C   LIG    1        1.168  -2.577   0.706  0.00  0.00    +0.030 A 
ATOM     22  C   LIG    1        1.901  -1.677  -0.057  0.00  0.00    +0.340 A 
ATOM     23  N   LIG    1        2.947  -2.080  -0.760  0.00  0.00    -0.480 NA
ATOM     24  C   LIG    1        3.330  -3.341  -0.772  0.00  0.00    +0.280 A 
BRANCH  22  25
ATOM     25  N   LIG    1        1.534  -0.327  -0.076  0.00  0.00    -0.330 N 
ATOM     26  C   LIG    1        2.140   0.666  -0.756  0.00  0.00    +0.520 A 
ATOM     27  N   LIG    1        1.494   1.777  -0.511  0.00  0.00    -0.540 NA
ATOM     28  C   LIG    1        0.476   1.536   0.314  0.00  0.00    +0.450 A 
ATOM     29  N   LIG    1        0.459   0.263   0.609  0.00  0.00    -0.310 NA
ENDBRANCH  22  25
ENDBRANCH   2  19
TORSDOF 7
