REMARK  Name = ZINCrD000000BNOj.0
REMARK                            x       y       z     vdW  Elec       q    Type
REMARK                         _______ _______ _______ _____ _____    ______ ____
ROOT
ATOM      1  O   LIG    1        0.776   5.900   1.316  0.00  0.00    -0.560 OA
ATOM      2  C   LIG    1        1.894   5.429   1.411  0.00  0.00    +0.590 C 
ATOM      3  N   LIG    1        2.179   4.247   0.829  0.00  0.00    -0.710 N 
ATOM      4  H   LIG    1        3.046   3.836   0.965  0.00  0.00    +0.420 HD
ENDROOT
BRANCH   2   5
ATOM      5  C   LIG    1        2.935   6.149   2.161  0.00  0.00    -0.350 A 
ATOM      6  C   LIG    1        2.694   7.414   2.655  0.00  0.00    +0.430 A 
ATOM      7  N   LIG    1        3.616   8.098   3.346  0.00  0.00    -0.590 N 
ATOM      8  H   LIG    1        3.390   8.983   3.673  0.00  0.00    +0.430 HD
ATOM      9  C   LIG    1        4.874   7.600   3.609  0.00  0.00    +0.180 A 
ATOM     10  C   LIG    1        5.797   8.354   4.328  0.00  0.00    -0.030 A 
ATOM     11  C   LIG    1        7.052   7.845   4.584  0.00  0.00    +0.080 A 
ATOM     12  C   LIG    1        7.410   6.583   4.132  0.00  0.00    -0.010 A 
ATOM     13  C   LIG    1        6.513   5.819   3.418  0.00  0.00    +0.110 A 
ATOM     14  C   LIG    1        5.239   6.322   3.152  0.00  0.00    -0.180 A 
ATOM     15  C   LIG    1        4.252   5.534   2.392  0.00  0.00    +0.440 A 
ATOM     16  O   LIG    1        4.514   4.420   1.972  0.00  0.00    -0.480 OA
ENDBRANCH   2   5
BRANCH   3  17
ATOM     17  C   LIG    1        1.177   3.583  -0.009  0.00  0.00    +0.290 C 
BRANCH  17  18
ATOM     18  C   LIG    1        1.394   2.092   0.034  0.00  0.00    -0.100 A 
ATOM     19  C   LIG    1        0.308   1.238   0.094  0.00  0.00    +0.050 A 
ATOM     20  C   LIG    1        0.506  -0.129   0.133  0.00  0.00    -0.010 A 
ATOM     21  C   LIG    1        1.792  -0.643   0.113  0.00  0.00    +0.100 A 
ATOM     22  C   LIG    1        2.878   0.214   0.054  0.00  0.00    -0.010 A 
ATOM     23  F   LIG    1        1.986  -1.980   0.152  0.00  0.00    -0.140 F 
ATOM     24  C   LIG    1        2.678   1.580   0.015  0.00  0.00    +0.080 A 
ENDBRANCH  17  18
BRANCH  17  25
ATOM     25  C   LIG    1        1.311   4.076  -1.451  0.00  0.00    +0.170 C 
ATOM     26  C   LIG    1        0.191   3.464  -2.320  0.00  0.00    +0.020 C 
ATOM     27  C   LIG    1        0.935   3.159  -3.649  0.00  0.00    +0.010 C 
ATOM     28  C   LIG    1        2.341   2.781  -3.119  0.00  0.00    +0.190 C 
ATOM     29  O   LIG    1        2.565   3.649  -1.996  0.00  0.00    -0.370 OA
ENDBRANCH  17  25
ENDBRANCH   3  17
TORSDOF 4
