REMARK  Name = ZINCqH0000035RPI.1
REMARK                            x       y       z     vdW  Elec       q    Type
REMARK                         _______ _______ _______ _____ _____    ______ ____
ROOT
ATOM      1  S   LIG    1       -0.186  -2.824   0.011  0.00  0.00    +2.700 S 
ATOM      2  O   LIG    1        0.002  -4.165  -0.420  0.00  0.00    -0.950 OA
ATOM      3  O   LIG    1       -1.468  -2.244   0.211  0.00  0.00    -0.940 OA
ENDROOT
BRANCH   1   9
ATOM      4  C   LIG    1        0.675  -0.427  -0.984  0.00  0.00    +0.220 A 
ATOM      5  C   LIG    1        1.335   0.373  -1.905  0.00  0.00    -0.080 A 
ATOM      6  C   LIG    1        1.955  -0.201  -2.998  0.00  0.00    +0.120 A 
ATOM      7  C   LIG    1        1.919  -1.571  -3.174  0.00  0.00    -0.120 A 
ATOM      8  C   LIG    1        1.261  -2.371  -2.258  0.00  0.00    +0.170 A 
ATOM      9  C   LIG    1        0.645  -1.803  -1.160  0.00  0.00    -0.700 A 
BRANCH   7  10
ATOM     10  C   LIG    1        2.596  -2.195  -4.367  0.00  0.00    -0.030 C 
ATOM     11  C   LIG    1        1.561  -2.947  -5.207  0.00  0.00    +0.040 C 
ATOM     12  C   LIG    1        3.673  -3.172  -3.890  0.00  0.00    +0.040 C 
ATOM     13  C   LIG    1        3.243  -1.099  -5.217  0.00  0.00    +0.030 C 
ENDBRANCH   7  10
BRANCH   4  15
ATOM     14  C   LIG    1        0.042   1.563   0.153  0.00  0.00    +0.260 C 
ATOM     15  O   LIG    1        0.064   0.135   0.091  0.00  0.00    -0.310 OA
ENDBRANCH   4  15
ENDBRANCH   1   9
BRANCH   1  16
ATOM     16  N   LIG    1        0.623  -2.677   1.449  0.00  0.00    -1.050 N 
ATOM     17  H   LIG    1        0.185  -2.270   2.213  0.00  0.00    +0.430 HD
BRANCH  16  18
ATOM     18  C   LIG    1        1.938  -3.140   1.562  0.00  0.00    +0.130 A 
ATOM     19  C   LIG    1        2.276  -4.397   1.076  0.00  0.00    +0.030 A 
ATOM     20  C   LIG    1        3.575  -4.852   1.184  0.00  0.00    +0.010 A 
ATOM     21  C   LIG    1        4.541  -4.058   1.788  0.00  0.00    +0.140 A 
ATOM     22  C   LIG    1        4.202  -2.804   2.278  0.00  0.00    +0.040 A 
ATOM     23  C   LIG    1        2.905  -2.347   2.166  0.00  0.00    +0.020 A 
BRANCH  21  24
ATOM     24  N   LIG    1        5.859  -4.523   1.902  0.00  0.00    -0.680 N 
ATOM     25  H   LIG    1        6.238  -5.081   1.205  0.00  0.00    +0.410 HD
ATOM     26  C   LIG    1        6.598  -4.194   2.980  0.00  0.00    +0.510 C 
ATOM     27  O   LIG    1        6.097  -3.570   3.891  0.00  0.00    -0.520 OA
ATOM     28  C   LIG    1        8.047  -4.601   3.052  0.00  0.00    +0.110 C 
ENDBRANCH  21  24
ENDBRANCH  16  18
ENDBRANCH   1  16
TORSDOF 6
