REMARK  Name = ZINCkj000005gPaG.1
REMARK                            x       y       z     vdW  Elec       q    Type
REMARK                         _______ _______ _______ _____ _____    ______ ____
ROOT
ATOM      1  C   LIG    1       -3.630   3.014   3.120  0.00  0.00    +0.620 C 
ATOM      2  N   LIG    1       -4.695   3.050   2.294  0.00  0.00    -0.630 N 
ATOM      3  C   LIG    1       -4.575   2.638   0.887  0.00  0.00    +0.330 C 
ATOM      4  C   LIG    1       -5.695   1.631   0.584  0.00  0.00    +0.250 C 
ATOM      5  N   LIG    1       -6.992   2.225   0.932  0.00  0.00    -0.380 N 
ATOM      6  C   LIG    1       -7.059   2.465   2.379  0.00  0.00    +0.270 C 
ATOM      7  H   LIG    1       -7.100   3.101   0.442  0.00  0.00    +0.430 HD
ATOM      8  C   LIG    1       -6.008   3.507   2.773  0.00  0.00    +0.330 C 
ATOM      9  O   LIG    1       -3.771   3.253   4.305  0.00  0.00    -0.490 OA
ENDROOT
BRANCH   1  13
ATOM     10  C   LIG    1       -0.681   2.242   1.180  0.00  0.00    +0.040 A 
ATOM     11  C   LIG    1       -0.141   2.202   2.418  0.00  0.00    -0.060 A 
ATOM     12  C   LIG    1       -1.171   2.487   3.328  0.00  0.00    +0.090 A 
ATOM     13  C   LIG    1       -2.302   2.688   2.590  0.00  0.00    -0.110 A 
ATOM     14  O   LIG    1       -1.982   2.541   1.287  0.00  0.00    -0.170 OA
BRANCH  10  16
ATOM     15  C   LIG    1        0.001   0.508  -0.456  0.00  0.00    +0.040 C 
ATOM     16  C   LIG    1        0.059   1.997  -0.109  0.00  0.00    +0.150 C 
ENDBRANCH  10  16
ENDBRANCH   1  13
BRANCH   5  17
ATOM     17  C   LIG    1       -8.070   1.309   0.538  0.00  0.00    +0.230 C 
BRANCH  17  18
ATOM     18  C   LIG    1       -9.423   1.990   0.758  0.00  0.00    +0.200 C 
BRANCH  18  19
ATOM     19  C   LIG    1      -10.547   1.033   0.355  0.00  0.00    +0.010 C 
ATOM     20  C   LIG    1      -11.899   1.664   0.690  0.00  0.00    +0.040 C 
ENDBRANCH  18  19
BRANCH  18  21
ATOM     21  O   LIG    1       -9.496   3.173  -0.040  0.00  0.00    -0.550 OA
ATOM     22  H   LIG    1       -9.408   3.013  -0.990  0.00  0.00    +0.390 HD
ENDBRANCH  18  21
ENDBRANCH  17  18
ENDBRANCH   5  17
TORSDOF 6
