REMARK  Name = ZINCpe00000gMXLY.0
REMARK                            x       y       z     vdW  Elec       q    Type
REMARK                         _______ _______ _______ _____ _____    ______ ____
ROOT
ATOM      1  C   LIG    1       -0.017   1.425   0.010  0.00  0.00    +0.230 C 
ENDROOT
BRANCH   1   2
ATOM      2  C   LIG    1       -0.733   1.918   1.269  0.00  0.00    +0.250 C 
BRANCH   2   3
ATOM      3  O   LIG    1        0.033   1.538   2.442  0.00  0.00    -0.350 OA
BRANCH   3   4
ATOM      4  C   LIG    1       -0.463   1.898   3.636  0.00  0.00    +0.460 C 
ATOM      5  O   LIG    1       -1.502   2.511   3.699  0.00  0.00    -0.500 OA
BRANCH   4   6
ATOM      6  C   LIG    1        0.278   1.538   4.899  0.00  0.00    +0.190 C 
BRANCH   6  14
ATOM      7  C   LIG    1       -1.957  -0.033   6.504  0.00  0.00    +0.150 C 
ATOM      8  C   LIG    1       -1.470   1.362   6.801  0.00  0.00    +0.090 A 
ATOM      9  N   LIG    1       -1.897   2.134   7.768  0.00  0.00    -0.290 NA
ATOM     10  N   LIG    1       -1.195   3.344   7.704  0.00  0.00    -0.370 N 
ATOM     11  C   LIG    1       -0.330   3.268   6.671  0.00  0.00    +0.110 A 
ATOM     12  C   LIG    1        0.632   4.344   6.237  0.00  0.00    +0.140 C 
ATOM     13  C   LIG    1       -1.365   4.488   8.604  0.00  0.00    +0.360 C 
ATOM     14  C   LIG    1       -0.484   2.055   6.092  0.00  0.00    -0.240 A 
ENDBRANCH   6  14
ENDBRANCH   4   6
ENDBRANCH   3   4
ENDBRANCH   2   3
ENDBRANCH   1   2
BRANCH   1  15
ATOM     15  O   LIG    1        0.002  -0.004   0.002  0.00  0.00    -0.300 OA
BRANCH  15  16
ATOM     16  C   LIG    1        0.606  -0.607  -1.056  0.00  0.00    +0.190 A 
ATOM     17  C   LIG    1        1.163   0.161  -2.068  0.00  0.00    -0.090 A 
ATOM     18  C   LIG    1        1.781  -0.455  -3.140  0.00  0.00    +0.180 A 
ATOM     19  C   LIG    1        1.835  -1.835  -3.209  0.00  0.00    -0.720 A 
ATOM     20  C   LIG    1        1.275  -2.602  -2.204  0.00  0.00    +0.170 A 
ATOM     21  C   LIG    1        0.661  -1.992  -1.128  0.00  0.00    -0.030 A 
BRANCH  19  22
ATOM     22  S   LIG    1        2.618  -2.616  -4.580  0.00  0.00    +2.710 S 
ATOM     23  O   LIG    1        3.006  -3.909  -4.137  0.00  0.00    -0.960 OA
ATOM     24  O   LIG    1        3.534  -1.670  -5.112  0.00  0.00    -0.960 OA
BRANCH  22  25
ATOM     25  N   LIG    1        1.458  -2.848  -5.740  0.00  0.00    -1.250 NA
ATOM     26  H   LIG    1        0.534  -2.986  -5.480  0.00  0.00    +0.420 HD
ATOM     27  H   LIG    1        1.704  -2.846  -6.678  0.00  0.00    +0.420 HD
ENDBRANCH  22  25
ENDBRANCH  19  22
ENDBRANCH  15  16
ENDBRANCH   1  15
TORSDOF 9
