REMARK  Name = ZINCnE000005reGM.1
REMARK                            x       y       z     vdW  Elec       q    Type
REMARK                         _______ _______ _______ _____ _____    ______ ____
ROOT
ATOM      1  N   LIG    1       -3.251   1.977   2.126  0.00  0.00    -0.610 N 
ATOM      2  C   LIG    1       -2.561   2.347   3.223  0.00  0.00    +0.650 C 
ATOM      3  N   LIG    1       -2.843   3.515   3.833  0.00  0.00    -0.690 NA
ATOM      4  O   LIG    1       -1.685   1.628   3.661  0.00  0.00    -0.650 OA
ENDROOT
BRANCH   3   5
ATOM      5  C   LIG    1       -2.133   3.897   4.962  0.00  0.00    +0.290 A 
ATOM      6  C   LIG    1       -2.297   5.044   5.684  0.00  0.00    -0.230 A 
ATOM      7  C   LIG    1       -1.341   4.935   6.714  0.00  0.00    +0.010 A 
ATOM      8  N   LIG    1       -0.720   3.805   6.527  0.00  0.00    -0.430 NA
ATOM      9  C   LIG    1       -1.084   5.933   7.814  0.00  0.00    +0.130 C 
ATOM     10  O   LIG    1       -1.144   3.214   5.561  0.00  0.00    +0.030 OA
ENDBRANCH   3   5
BRANCH   1  12
ATOM     11  C   LIG    1       -5.642   2.475   2.247  0.00  0.00    -0.010 C 
ATOM     12  C   LIG    1       -4.307   2.844   1.597  0.00  0.00    +0.260 C 
ENDBRANCH   1  12
BRANCH   1  13
ATOM     13  C   LIG    1       -2.944   0.707   1.462  0.00  0.00    +0.260 C 
ATOM     14  C   LIG    1       -4.189  -0.183   1.464  0.00  0.00    +0.010 C 
BRANCH  13  15
ATOM     15  C   LIG    1       -2.513   0.977   0.019  0.00  0.00    +0.050 C 
BRANCH  15  16
ATOM     16  C   LIG    1       -1.220   1.750   0.017  0.00  0.00    -0.100 A 
ATOM     17  C   LIG    1       -0.013   1.076   0.008  0.00  0.00    +0.040 A 
ATOM     18  C   LIG    1        1.175   1.782   0.000  0.00  0.00    -0.030 A 
ATOM     19  C   LIG    1        1.155   3.169   0.008  0.00  0.00    +0.120 A 
ATOM     20  C   LIG    1       -0.057   3.844   0.023  0.00  0.00    -0.080 A 
ATOM     21  C   LIG    1       -1.242   3.133   0.031  0.00  0.00    +0.060 A 
BRANCH  19  22
ATOM     22  O   LIG    1        2.322   3.866   0.000  0.00  0.00    -0.320 OA
ATOM     23  C   LIG    1        2.225   5.292   0.009  0.00  0.00    +0.240 C 
ENDBRANCH  19  22
ENDBRANCH  15  16
ENDBRANCH  13  15
ENDBRANCH   1  13
TORSDOF 6
