REMARK  Name = ZINCpk00000KfLQ0.0
REMARK                            x       y       z     vdW  Elec       q    Type
REMARK                         _______ _______ _______ _____ _____    ______ ____
ROOT
ATOM      1  C   LIG    1        5.181   0.948  -1.628  0.00  0.00    +0.150 C 
ATOM      2  C   LIG    1        6.385   0.013  -1.768  0.00  0.00    +0.180 C 
ATOM      3  N   LIG    1        6.769  -0.075  -3.184  0.00  0.00    -0.530 NA
ATOM      4  C   LIG    1        7.099   1.254  -3.717  0.00  0.00    +0.150 C 
ATOM      5  C   LIG    1        5.888   2.178  -3.558  0.00  0.00    +0.230 C 
ATOM      6  O   LIG    1        5.510   2.226  -2.180  0.00  0.00    -0.380 OA
ENDROOT
BRANCH   1   7
ATOM      7  C   LIG    1        4.826   1.107  -0.148  0.00  0.00    +0.340 C 
BRANCH   7   8
ATOM      8  N   LIG    1        3.607   1.909  -0.022  0.00  0.00    -0.590 N 
BRANCH   8   9
ATOM      9  C   LIG    1        2.363   1.287  -0.014  0.00  0.00    +0.340 A 
ATOM     10  C   LIG    1        1.198   2.052   0.002  0.00  0.00    -0.030 A 
ATOM     11  C   LIG    1       -0.017   1.383   0.010  0.00  0.00    +0.070 A 
ATOM     12  C   LIG    1        0.002  -0.004   0.002  0.00  0.00    +0.150 A 
ATOM     13  N   LIG    1        1.152  -0.648  -0.013  0.00  0.00    -0.200 NA
ATOM     14  N   LIG    1        2.280  -0.036  -0.020  0.00  0.00    -0.310 NA
ENDBRANCH   8   9
BRANCH   8  16
ATOM     15  C   LIG    1        3.799   3.753   1.573  0.00  0.00    +0.020 C 
ATOM     16  C   LIG    1        3.698   3.366   0.096  0.00  0.00    +0.280 C 
ENDBRANCH   8  16
ENDBRANCH   7   8
ENDBRANCH   1   7
BRANCH   3  17
ATOM     17  C   LIG    1        7.888  -1.010  -3.369  0.00  0.00    +0.350 C 
BRANCH  17  18
ATOM     18  C   LIG    1        8.098  -1.256  -4.841  0.00  0.00    +0.170 A 
ATOM     19  N   LIG    1        8.870  -0.570  -5.635  0.00  0.00    -0.280 NA
ATOM     20  N   LIG    1        8.808  -1.062  -6.822  0.00  0.00    -0.290 NA
ATOM     21  C   LIG    1        7.987  -2.074  -6.828  0.00  0.00    +0.200 A 
ATOM     22  O   LIG    1        7.519  -2.220  -5.577  0.00  0.00    -0.210 OA
BRANCH  21  23
ATOM     23  C   LIG    1        7.628  -2.924  -8.019  0.00  0.00    +0.050 C 
ATOM     24  C   LIG    1        8.428  -2.711  -9.306  0.00  0.00    +0.080 C 
ATOM     25  C   LIG    1        6.980  -2.225  -9.216  0.00  0.00    +0.060 C 
ENDBRANCH  21  23
ENDBRANCH  17  18
ENDBRANCH   3  17
TORSDOF 7
