REMARK  Name = ZINCqH0000036TyS.0
REMARK                            x       y       z     vdW  Elec       q    Type
REMARK                         _______ _______ _______ _____ _____    ______ ____
ROOT
ATOM      1  C   LIG    1        2.708   3.864  -0.033  0.00  0.00    +0.240 A 
ATOM      2  C   LIG    1        1.648   3.115  -0.547  0.00  0.00    -0.090 A 
ATOM      3  C   LIG    1        1.697   1.740  -0.470  0.00  0.00    +0.330 A 
ATOM      4  N   LIG    1        2.729   1.127   0.081  0.00  0.00    -0.540 NA
ATOM      5  C   LIG    1        3.754   1.800   0.581  0.00  0.00    +0.340 A 
ATOM      6  C   LIG    1        3.776   3.186   0.545  0.00  0.00    -0.030 A 
ENDROOT
BRANCH   1  16
ATOM      7  C   LIG    1        6.811   9.392   0.452  0.00  0.00    +0.040 C 
ATOM      8  C   LIG    1        5.825   8.242   0.669  0.00  0.00    +0.020 C 
ATOM      9  C   LIG    1        5.027   8.020  -0.626  0.00  0.00    +0.310 C 
ATOM     10  N   LIG    1        3.818   7.276  -0.431  0.00  0.00    -0.620 N 
ATOM     11  C   LIG    1        2.532   8.029  -0.394  0.00  0.00    +0.320 C 
ATOM     12  C   LIG    1        2.275   8.566   0.922  0.00  0.00    -0.260 C 
ATOM     13  S   LIG    1        3.592   9.716   1.450  0.00  0.00    +1.260 S 
ATOM     14  O   LIG    1        3.174  10.413   2.615  0.00  0.00    -0.850 OA
ATOM     15  C   LIG    1        3.842   5.936  -0.280  0.00  0.00    +0.710 C 
ATOM     16  N   LIG    1        2.693   5.258  -0.092  0.00  0.00    -0.680 N 
ATOM     17  H   LIG    1        1.856   5.739   0.001  0.00  0.00    +0.410 HD
ATOM     18  O   LIG    1        4.902   5.340  -0.314  0.00  0.00    -0.550 OA
ATOM     19  C   LIG    1        4.913   8.584   1.875  0.00  0.00    -0.250 C 
ENDBRANCH   1  16
BRANCH   5  20
ATOM     20  O   LIG    1        4.792   1.126   1.137  0.00  0.00    -0.240 OA
BRANCH  20  21
ATOM     21  C   LIG    1        4.783  -0.231   1.065  0.00  0.00    +0.110 A 
ATOM     22  C   LIG    1        4.371  -0.982   2.156  0.00  0.00    +0.040 A 
ATOM     23  C   LIG    1        4.357  -2.362   2.078  0.00  0.00    +0.040 A 
ATOM     24  C   LIG    1        4.765  -2.995   0.919  0.00  0.00    +0.040 A 
ATOM     25  C   LIG    1        5.183  -2.249  -0.169  0.00  0.00    +0.040 A 
ATOM     26  C   LIG    1        5.192  -0.869  -0.099  0.00  0.00    -0.040 A 
ATOM     27 CL   LIG    1        5.716   0.067  -1.464  0.00  0.00    -0.050 Cl
ENDBRANCH  20  21
ENDBRANCH   5  20
TORSDOF 3
