REMARK  Name = ZINCtV00001bB33A.0
REMARK                            x       y       z     vdW  Elec       q    Type
REMARK                         _______ _______ _______ _____ _____    ______ ____
ROOT
ATOM      1  N   LIG    1        1.288  -0.374  -0.012  0.00  0.00    -0.470 N 
ATOM      2  C   LIG    1        2.134   0.523   0.465  0.00  0.00    +0.550 C 
ATOM      3  C   LIG    1        1.659   1.908   0.421  0.00  0.00    -0.280 C 
ATOM      4  S   LIG    1        0.042   1.787  -0.302  0.00  0.00    +0.140 S 
ATOM      5  C   LIG    1        2.309   3.032   0.839  0.00  0.00    +0.270 C 
ATOM      6  O   LIG    1        3.227   0.220   0.908  0.00  0.00    -0.450 OA
ATOM      7  C   LIG    1        0.101   0.025  -0.485  0.00  0.00    +0.240 C 
ATOM      8  S   LIG    1       -1.124  -0.974  -1.141  0.00  0.00    -0.350 S 
ENDROOT
BRANCH   5   9
ATOM      9  C   LIG    1        1.686   4.296   0.716  0.00  0.00    -0.110 A 
ATOM     10  C   LIG    1        1.118   4.698  -0.514  0.00  0.00    -0.000 A 
ATOM     11  C   LIG    1        1.147   3.853  -1.635  0.00  0.00    +0.000 A 
ATOM     12  C   LIG    1        0.585   4.268  -2.804  0.00  0.00    +0.050 A 
ATOM     13  C   LIG    1       -0.026   5.514  -2.920  0.00  0.00    +0.010 A 
ATOM     14  C   LIG    1       -0.092   6.375  -1.870  0.00  0.00    +0.050 A 
ATOM     15  C   LIG    1        0.471   6.006  -0.630  0.00  0.00    -0.060 A 
ATOM     16  C   LIG    1        0.420   6.868   0.467  0.00  0.00    +0.100 A 
ATOM     17  C   LIG    1        0.983   6.482   1.685  0.00  0.00    -0.070 A 
ATOM     18  C   LIG    1        0.942   7.338   2.806  0.00  0.00    +0.040 A 
ATOM     19  C   LIG    1        1.498   6.934   3.979  0.00  0.00    +0.010 A 
ATOM     20  C   LIG    1        2.113   5.690   4.105  0.00  0.00    +0.040 A 
ATOM     21  C   LIG    1        2.184   4.820   3.061  0.00  0.00    +0.000 A 
ATOM     22  C   LIG    1        1.629   5.176   1.821  0.00  0.00    +0.010 A 
ENDBRANCH   5   9
BRANCH   1  27
ATOM     23  C   LIG    1        2.677  -5.877  -0.058  0.00  0.00    +0.100 C 
ATOM     24  C   LIG    1        2.309  -4.415  -0.045  0.00  0.00    -0.060 A 
ATOM     25  C   LIG    1        1.659  -3.877   1.050  0.00  0.00    +0.020 A 
ATOM     26  C   LIG    1        1.319  -2.538   1.064  0.00  0.00    +0.050 A 
ATOM     27  C   LIG    1        1.631  -1.733  -0.023  0.00  0.00    +0.090 A 
ATOM     28  C   LIG    1        2.279  -2.278  -1.124  0.00  0.00    +0.050 A 
ATOM     29  C   LIG    1        2.620  -3.616  -1.130  0.00  0.00    +0.020 A 
ENDBRANCH   1  27
TORSDOF 2
