REMARK  Name = ZINCpk000000nIrH.0
REMARK                            x       y       z     vdW  Elec       q    Type
REMARK                         _______ _______ _______ _____ _____    ______ ____
ROOT
ATOM      1  C   LIG    1        0.138   1.365   0.712  0.00  0.00    +0.500 C 
ATOM      2  N   LIG    1        1.325   1.646   0.137  0.00  0.00    -0.670 N 
ATOM      3  H   LIG    1        1.389   2.353  -0.523  0.00  0.00    +0.410 HD
ATOM      4  O   LIG    1        0.052   0.461   1.516  0.00  0.00    -0.500 OA
ENDROOT
BRANCH   2   5
ATOM      5  C   LIG    1        2.465   0.915   0.494  0.00  0.00    +0.120 A 
ATOM      6  C   LIG    1        2.349  -0.419   0.860  0.00  0.00    +0.060 A 
ATOM      7  C   LIG    1        3.474  -1.141   1.206  0.00  0.00    +0.000 A 
ATOM      8  C   LIG    1        4.720  -0.529   1.201  0.00  0.00    +0.160 A 
ATOM      9  C   LIG    1        4.836   0.807   0.840  0.00  0.00    +0.010 A 
ATOM     10  C   LIG    1        3.712   1.527   0.488  0.00  0.00    +0.020 A 
BRANCH   8  11
ATOM     11  N   LIG    1        5.861  -1.259   1.558  0.00  0.00    -0.570 N 
ATOM     12  C   LIG    1        6.070  -2.638   1.981  0.00  0.00    +0.300 C 
ATOM     13  C   LIG    1        7.557  -2.323   2.085  0.00  0.00    +0.070 C 
ATOM     14  C   LIG    1        7.159  -0.946   1.643  0.00  0.00    +0.520 C 
ATOM     15  O   LIG    1        7.783   0.074   1.439  0.00  0.00    -0.490 OA
ENDBRANCH   8  11
ENDBRANCH   2   5
BRANCH   1  16
ATOM     16  C   LIG    1       -1.083   2.171   0.350  0.00  0.00    +0.290 C 
BRANCH  16  17
ATOM     17  N   LIG    1       -2.283   1.482   0.831  0.00  0.00    -0.970 NA
ATOM     18  C   LIG    1       -2.659   1.264   2.236  0.00  0.00    +0.260 C 
ATOM     19  C   LIG    1       -4.195   1.195   2.366  0.00  0.00    +0.080 C 
ATOM     20  C   LIG    1       -4.635   0.263   1.200  0.00  0.00    -0.310 C 
ATOM     21  S   LIG    1       -3.472   0.791  -0.117  0.00  0.00    +2.570 S 
ATOM     22  O   LIG    1       -2.852  -0.327  -0.735  0.00  0.00    -0.950 OA
ATOM     23  O   LIG    1       -4.010   1.864  -0.878  0.00  0.00    -0.950 OA
ENDBRANCH  16  17
BRANCH  16  25
ATOM     24  C   LIG    1        0.140   4.350   0.355  0.00  0.00    +0.040 C 
ATOM     25  C   LIG    1       -0.994   3.553   1.002  0.00  0.00    -0.020 C 
ATOM     26  C   LIG    1       -2.316   4.296   0.806  0.00  0.00    +0.050 C 
ENDBRANCH  16  25
ENDBRANCH   1  16
TORSDOF 5
