REMARK  Name = ZINCtV000002EAT5.0
REMARK                            x       y       z     vdW  Elec       q    Type
REMARK                         _______ _______ _______ _____ _____    ______ ____
ROOT
ATOM      1  C   LIG    1       -0.863  -0.615   1.946  0.00  0.00    +0.200 A 
ATOM      2  N   LIG    1       -0.515  -1.182   0.816  0.00  0.00    -0.460 NA
ATOM      3  C   LIG    1        0.738  -1.670   0.919  0.00  0.00    +0.110 A 
ATOM      4  C   LIG    1        1.195  -1.386   2.197  0.00  0.00    +0.070 A 
ATOM      5  N   LIG    1        0.165  -0.715   2.836  0.00  0.00    -0.540 N 
ATOM      6  H   LIG    1        0.174  -0.380   3.746  0.00  0.00    +0.430 HD
ENDROOT
BRANCH   4   7
ATOM      7  C   LIG    1        2.507  -1.728   2.760  0.00  0.00    -0.140 A 
ATOM      8  C   LIG    1        3.299  -0.885   3.482  0.00  0.00    +0.030 A 
ATOM      9  C   LIG    1        4.487  -1.444   3.906  0.00  0.00    +0.000 A 
ATOM     10  C   LIG    1        4.682  -2.713   3.538  0.00  0.00    -0.040 A 
ATOM     11  S   LIG    1        3.307  -3.286   2.603  0.00  0.00    +0.180 S 
ENDBRANCH   4   7
BRANCH   3  12
ATOM     12  C   LIG    1        1.488  -2.377  -0.136  0.00  0.00    -0.120 A 
ATOM     13  C   LIG    1        0.948  -3.215  -1.047  0.00  0.00    +0.030 A 
ATOM     14  C   LIG    1        1.853  -3.757  -1.937  0.00  0.00    +0.000 A 
ATOM     15  C   LIG    1        3.120  -3.372  -1.761  0.00  0.00    -0.050 A 
ATOM     16  S   LIG    1        3.221  -2.254  -0.408  0.00  0.00    +0.140 S 
ENDBRANCH   3  12
BRANCH   1  17
ATOM     17  S   LIG    1       -2.412   0.162   2.263  0.00  0.00    +0.060 S 
BRANCH  17  19
ATOM     18  C   LIG    1       -3.438  -1.585   0.429  0.00  0.00    +0.090 C 
ATOM     19  C   LIG    1       -3.222  -0.088   0.663  0.00  0.00    +0.030 C 
BRANCH  19  20
ATOM     20  C   LIG    1       -4.553   0.618   0.658  0.00  0.00    +0.540 C 
ATOM     21  N   LIG    1       -5.150   0.922  -0.511  0.00  0.00    -0.670 N 
ATOM     22  H   LIG    1       -4.691   0.752  -1.349  0.00  0.00    +0.420 HD
ATOM     23  O   LIG    1       -5.087   0.914   1.706  0.00  0.00    -0.500 OA
BRANCH  21  24
ATOM     24  C   LIG    1       -6.435   1.482  -0.517  0.00  0.00    +0.060 A 
ATOM     25  C   LIG    1       -7.554   0.659  -0.545  0.00  0.00    +0.140 A 
ATOM     26  C   LIG    1       -8.821   1.216  -0.546  0.00  0.00    -0.010 A 
ATOM     27  C   LIG    1       -8.974   2.590  -0.530  0.00  0.00    +0.100 A 
ATOM     28  C   LIG    1       -7.863   3.412  -0.507  0.00  0.00    -0.010 A 
ATOM     29  F   LIG    1       -7.406  -0.684  -0.567  0.00  0.00    -0.120 F 
ATOM     30  C   LIG    1       -6.593   2.863  -0.501  0.00  0.00    +0.140 A 
ATOM     31  F   LIG    1       -5.508   3.668  -0.479  0.00  0.00    -0.120 F 
ENDBRANCH  21  24
ENDBRANCH  19  20
ENDBRANCH  17  19
ENDBRANCH   1  17
TORSDOF 6
