REMARK  Name = ZINCrH00000No4Hh.0
REMARK                            x       y       z     vdW  Elec       q    Type
REMARK                         _______ _______ _______ _____ _____    ______ ____
ROOT
ATOM      1  C   LIG    1        1.429   2.737  10.534  0.00  0.00    +0.100 C 
ATOM      2  C   LIG    1        0.224   3.026   9.677  0.00  0.00    -0.050 A 
ATOM      3  C   LIG    1       -0.616   4.067  10.009  0.00  0.00    -0.010 A 
ATOM      4  C   LIG    1       -1.725   4.334   9.223  0.00  0.00    +0.110 A 
ATOM      5  C   LIG    1       -1.983   3.549   8.115  0.00  0.00    -0.010 A 
ATOM      6  C   LIG    1       -1.139   2.498   7.785  0.00  0.00    -0.070 A 
ATOM      7  C   LIG    1       -1.484   1.674   6.570  0.00  0.00    +0.340 C 
ATOM      8  N   LIG    1       -0.354   0.805   6.225  0.00  0.00    -0.610 N 
ATOM      9  C   LIG    1        0.057   0.664   4.949  0.00  0.00    +0.530 C 
ATOM     10  O   LIG    1        0.994  -0.061   4.691  0.00  0.00    -0.540 OA
ATOM     11  C   LIG    1        0.309   0.089   7.327  0.00  0.00    +0.290 C 
ATOM     12  C   LIG    1        0.947   1.137   8.245  0.00  0.00    +0.080 C 
ATOM     13  F   LIG    1       -2.551   5.356   9.538  0.00  0.00    -0.140 F 
ATOM     14  C   LIG    1       -0.031   2.239   8.560  0.00  0.00    -0.080 A 
ENDROOT
BRANCH   9  15
ATOM     15  C   LIG    1       -0.648   1.407   3.843  0.00  0.00    +0.050 C 
BRANCH  15  16
ATOM     16  C   LIG    1        0.011   1.073   2.504  0.00  0.00    +0.280 C 
BRANCH  16  17
ATOM     17  C   LIG    1       -0.780   1.727   1.369  0.00  0.00    -0.010 C 
ATOM     18  C   LIG    1       -2.177   1.106   1.297  0.00  0.00    +0.010 C 
ATOM     19  C   LIG    1       -2.968   1.760   0.163  0.00  0.00    +0.000 C 
ATOM     20  C   LIG    1       -2.240   1.532  -1.164  0.00  0.00    +0.000 C 
ATOM     21  C   LIG    1       -0.843   2.153  -1.092  0.00  0.00    +0.000 C 
ATOM     22  C   LIG    1       -0.052   1.499   0.043  0.00  0.00    +0.010 C 
ENDBRANCH  16  17
BRANCH  16  23
ATOM     23  N   LIG    1        1.386   1.579   2.496  0.00  0.00    -0.710 N 
ATOM     24  H   LIG    1        2.130   0.963   2.414  0.00  0.00    +0.410 HD
ATOM     25  C   LIG    1        1.616   2.903   2.603  0.00  0.00    +0.510 C 
ATOM     26  O   LIG    1        0.694   3.666   2.798  0.00  0.00    -0.510 OA
BRANCH  25  27
ATOM     27  C   LIG    1        3.021   3.435   2.479  0.00  0.00    +0.170 C 
ATOM     28 CL   LIG    1        3.002   5.229   2.665  0.00  0.00    -0.130 Cl
ENDBRANCH  25  27
ENDBRANCH  16  23
ENDBRANCH  15  16
ENDBRANCH   9  15
TORSDOF 5
