REMARK  Name = ZINCqH00000333Uw.0
REMARK                            x       y       z     vdW  Elec       q    Type
REMARK                         _______ _______ _______ _____ _____    ______ ____
ROOT
ATOM      1  C   LIG    1       -0.271   2.992  -6.542  0.00  0.00    +0.510 C 
ATOM      2  N   LIG    1       -0.841   3.668  -7.558  0.00  0.00    -0.680 N 
ATOM      3  H   LIG    1       -1.573   3.271  -8.056  0.00  0.00    +0.410 HD
ATOM      4  O   LIG    1        0.704   3.447  -5.981  0.00  0.00    -0.500 OA
ENDROOT
BRANCH   2   5
ATOM      5  C   LIG    1       -0.379   4.946  -7.895  0.00  0.00    +0.140 A 
ATOM      6  C   LIG    1       -0.401   5.366  -9.219  0.00  0.00    +0.000 A 
ATOM      7  C   LIG    1        0.054   6.627  -9.555  0.00  0.00    +0.030 A 
ATOM      8  C   LIG    1        0.535   7.475  -8.578  0.00  0.00    +0.050 A 
ATOM      9  C   LIG    1        0.561   7.062  -7.247  0.00  0.00    +0.000 A 
ATOM     10  C   LIG    1        0.097   5.794  -6.906  0.00  0.00    +0.050 A 
BRANCH   9  11
ATOM     11  C   LIG    1        1.077   7.973  -6.195  0.00  0.00    +0.270 A 
ATOM     12  N   LIG    1        1.146   7.699  -4.910  0.00  0.00    -0.300 NA
ATOM     13  N   LIG    1        1.694   8.831  -4.285  0.00  0.00    -0.480 N 
ATOM     14  H   LIG    1        1.874   8.941  -3.338  0.00  0.00    +0.440 HD
ATOM     15  C   LIG    1        1.916   9.734  -5.257  0.00  0.00    +0.290 A 
ATOM     16  C   LIG    1        2.496  11.112  -5.065  0.00  0.00    +0.190 C 
ATOM     17  N   LIG    1        1.544   9.212  -6.396  0.00  0.00    -0.530 NA
ENDBRANCH   9  11
ENDBRANCH   2   5
BRANCH   1  18
ATOM     18  C   LIG    1       -0.844   1.669  -6.101  0.00  0.00    +0.120 C 
BRANCH  18  23
ATOM     19  C   LIG    1        0.384   0.940  -2.603  0.00  0.00    +0.130 A 
ATOM     20  C   LIG    1        1.477   0.124  -2.860  0.00  0.00    -0.080 A 
ATOM     21  C   LIG    1        1.807  -0.195  -4.163  0.00  0.00    +0.050 A 
ATOM     22  C   LIG    1        1.058   0.307  -5.210  0.00  0.00    -0.020 A 
ATOM     23  C   LIG    1       -0.029   1.124  -4.957  0.00  0.00    -0.030 A 
ATOM     24  C   LIG    1       -0.367   1.442  -3.656  0.00  0.00    -0.010 A 
BRANCH  19  25
ATOM     25  O   LIG    1        0.053   1.250  -1.322  0.00  0.00    -0.320 OA
BRANCH  25  26
ATOM     26  C   LIG    1        0.871   0.698  -0.288  0.00  0.00    +0.180 C 
BRANCH  26  28
ATOM     27  C   LIG    1        1.224   0.564   2.181  0.00  0.00    +0.040 C 
ATOM     28  C   LIG    1        0.348   1.155   1.075  0.00  0.00    +0.020 C 
ENDBRANCH  26  28
ENDBRANCH  25  26
ENDBRANCH  19  25
ENDBRANCH  18  23
ENDBRANCH   1  18
TORSDOF 7
