REMARK  Name = ZINCpe000000Yx2n.0
REMARK                            x       y       z     vdW  Elec       q    Type
REMARK                         _______ _______ _______ _____ _____    ______ ____
ROOT
ATOM      1  C   LIG    1        0.409  -2.794   4.670  0.00  0.00    +0.520 C 
ATOM      2  N   LIG    1        0.109  -1.491   4.840  0.00  0.00    -0.710 N 
ATOM      3  H   LIG    1       -0.554  -1.228   5.497  0.00  0.00    +0.410 HD
ATOM      4  O   LIG    1        1.238  -3.124   3.849  0.00  0.00    -0.490 OA
ENDROOT
BRANCH   2   5
ATOM      5  C   LIG    1        0.783  -0.473   4.031  0.00  0.00    +0.250 C 
ATOM      6  C   LIG    1        0.702   0.908   4.721  0.00  0.00    +0.050 C 
ATOM      7  C   LIG    1        0.541   1.855   3.509  0.00  0.00    +0.270 C 
ATOM      8  N   LIG    1       -0.071   1.037   2.455  0.00  0.00    -0.620 N 
ATOM      9  C   LIG    1        0.059  -0.275   2.717  0.00  0.00    +0.500 C 
ATOM     10  O   LIG    1       -0.346  -1.169   2.005  0.00  0.00    -0.500 OA
BRANCH   8  11
ATOM     11  C   LIG    1       -0.732   1.581   1.266  0.00  0.00    +0.250 C 
ATOM     12  C   LIG    1       -0.013   1.086   0.008  0.00  0.00    -0.000 C 
ATOM     13  C   LIG    1       -0.756   1.594  -1.230  0.00  0.00    +0.220 C 
ATOM     14  O   LIG    1       -2.111   1.144  -1.189  0.00  0.00    -0.380 OA
ATOM     15  C   LIG    1       -2.849   1.615  -0.059  0.00  0.00    +0.220 C 
ATOM     16  C   LIG    1       -2.190   1.107   1.226  0.00  0.00    -0.010 C 
ENDBRANCH   8  11
ENDBRANCH   2   5
BRANCH   1  17
ATOM     17  C   LIG    1       -0.285  -3.842   5.503  0.00  0.00    +0.240 C 
BRANCH  17  18
ATOM     18  O   LIG    1        0.201  -5.136   5.141  0.00  0.00    -0.280 OA
BRANCH  18  24
ATOM     19  C   LIG    1        0.099  -7.499   5.495  0.00  0.00    -0.050 A 
ATOM     20  C   LIG    1       -0.447  -8.584   6.185  0.00  0.00    +0.110 A 
ATOM     21  C   LIG    1       -1.405  -8.370   7.153  0.00  0.00    -0.020 A 
ATOM     22  C   LIG    1       -1.826  -7.085   7.449  0.00  0.00    +0.090 A 
ATOM     23  C   LIG    1       -1.290  -6.003   6.778  0.00  0.00    -0.070 A 
ATOM     24  C   LIG    1       -0.326  -6.198   5.801  0.00  0.00    +0.170 A 
BRANCH  19  26
ATOM     25  N   LIG    1        1.876  -7.884   3.682  0.00  0.00    -0.410 NA
ATOM     26  C   LIG    1        1.090  -7.713   4.484  0.00  0.00    +0.250 C 
ENDBRANCH  19  26
ENDBRANCH  18  24
ENDBRANCH  17  18
ENDBRANCH   1  17
TORSDOF 6
