REMARK  Name = ZINCvU0000000AYy.0
REMARK                            x       y       z     vdW  Elec       q    Type
REMARK                         _______ _______ _______ _____ _____    ______ ____
ROOT
ATOM      1  O   LIG    1        2.483  -3.481  -1.063  0.00  0.00    -0.510 OA
ATOM      2  C   LIG    1        1.324  -3.640  -0.728  0.00  0.00    +0.560 A 
ATOM      3  C   LIG    1        0.505  -4.716  -1.302  0.00  0.00    -0.200 A 
ATOM      4  C   LIG    1        1.015  -5.601  -2.251  0.00  0.00    +0.100 A 
ATOM      5  C   LIG    1        0.206  -6.593  -2.759  0.00  0.00    -0.010 A 
ATOM      6  C   LIG    1       -1.110  -6.719  -2.333  0.00  0.00    +0.070 A 
ATOM      7  C   LIG    1       -1.634  -5.857  -1.397  0.00  0.00    +0.030 A 
ATOM      8  C   LIG    1       -0.834  -4.841  -0.867  0.00  0.00    +0.170 A 
ATOM      9  N   LIG    1       -1.311  -3.973   0.056  0.00  0.00    -0.540 NA
ATOM     10  C   LIG    1       -0.559  -3.024   0.557  0.00  0.00    +0.380 A 
ATOM     11  N   LIG    1        0.742  -2.831   0.188  0.00  0.00    -0.520 N 
ENDROOT
BRANCH  10  12
ATOM     12  S   LIG    1       -1.260  -1.943   1.759  0.00  0.00    +0.070 S 
BRANCH  12  13
ATOM     13  C   LIG    1       -2.931  -2.631   1.863  0.00  0.00    +0.240 C 
BRANCH  13  14
ATOM     14  C   LIG    1       -3.738  -1.841   2.862  0.00  0.00    +0.200 A 
ATOM     15  N   LIG    1       -4.456  -0.787   2.590  0.00  0.00    -0.450 NA
ATOM     16  C   LIG    1       -5.034  -0.353   3.720  0.00  0.00    +0.180 A 
ATOM     17  C   LIG    1       -4.640  -1.178   4.724  0.00  0.00    +0.010 A 
ATOM     18  O   LIG    1       -3.828  -2.106   4.172  0.00  0.00    -0.190 OA
BRANCH  17  19
ATOM     19  C   LIG    1       -5.026  -1.079   6.148  0.00  0.00    -0.000 A 
ATOM     20  C   LIG    1       -5.873  -0.056   6.575  0.00  0.00    +0.050 A 
ATOM     21  C   LIG    1       -6.234   0.028   7.904  0.00  0.00    +0.040 A 
ATOM     22  C   LIG    1       -5.750  -0.893   8.815  0.00  0.00    +0.040 A 
ATOM     23  C   LIG    1       -4.903  -1.908   8.399  0.00  0.00    -0.030 A 
ATOM     24 CL   LIG    1       -4.300  -3.059   9.550  0.00  0.00    -0.060 Cl
ATOM     25  C   LIG    1       -4.539  -2.006   7.071  0.00  0.00    +0.050 A 
ENDBRANCH  17  19
ENDBRANCH  13  14
ENDBRANCH  12  13
ENDBRANCH  10  12
BRANCH  11  26
ATOM     26  C   LIG    1        1.514  -1.742   0.791  0.00  0.00    +0.310 C 
BRANCH  26  27
ATOM     27  C   LIG    1        1.358  -0.476  -0.054  0.00  0.00    +0.140 C 
ATOM     28  C   LIG    1        2.211   0.674   0.537  0.00  0.00    +0.020 C 
ATOM     29  C   LIG    1        1.448   1.915  -0.002  0.00  0.00    +0.020 C 
ATOM     30  C   LIG    1       -0.017   1.428   0.010  0.00  0.00    +0.190 C 
ATOM     31  O   LIG    1        0.002  -0.004   0.002  0.00  0.00    -0.360 OA
ENDBRANCH  26  27
ENDBRANCH  11  26
TORSDOF 6
