REMARK  Name = ZINCrD00000lbFhn.0
REMARK                            x       y       z     vdW  Elec       q    Type
REMARK                         _______ _______ _______ _____ _____    ______ ____
ROOT
ATOM      1  O   LIG    1        3.041   5.070   0.278  0.00  0.00    -0.490 OA
ATOM      2  C   LIG    1        3.120   5.467   1.422  0.00  0.00    +0.500 C 
ATOM      3  N   LIG    1        3.459   6.748   1.668  0.00  0.00    -0.550 N 
ATOM      4  C   LIG    1        3.637   7.221   3.048  0.00  0.00    +0.280 C 
ATOM      5  C   LIG    1        2.931   8.578   3.172  0.00  0.00    +0.030 C 
ATOM      6  C   LIG    1        3.616   9.579   2.242  0.00  0.00    +0.100 C 
ATOM      7  C   LIG    1        3.725   9.016   0.850  0.00  0.00    -0.080 A 
ATOM      8  C   LIG    1        3.908   9.886  -0.211  0.00  0.00    +0.040 A 
ATOM      9  C   LIG    1        4.015   9.399  -1.504  0.00  0.00    +0.090 A 
ATOM     10  C   LIG    1        3.940   8.034  -1.740  0.00  0.00    -0.030 A 
ATOM     11  C   LIG    1        3.757   7.164  -0.685  0.00  0.00    +0.070 A 
ATOM     12  C   LIG    1        3.654   7.651   0.611  0.00  0.00    +0.140 A 
ENDROOT
BRANCH   9  13
ATOM     13  O   LIG    1        4.194  10.259  -2.542  0.00  0.00    -0.310 OA
BRANCH  13  14
ATOM     14  C   LIG    1        4.296   9.688  -3.848  0.00  0.00    +0.600 C 
ATOM     15  F   LIG    1        5.388   8.816  -3.891  0.00  0.00    -0.160 F 
ATOM     16  F   LIG    1        4.476  10.707  -4.790  0.00  0.00    -0.130 F 
ATOM     17  F   LIG    1        3.124   8.983  -4.142  0.00  0.00    -0.160 F 
ENDBRANCH  13  14
ENDBRANCH   9  13
BRANCH   2  18
ATOM     18  C   LIG    1        2.840   4.528   2.566  0.00  0.00    +0.390 C 
BRANCH  18  19
ATOM     19  N   LIG    1        2.382   3.240   2.040  0.00  0.00    -0.390 N 
ATOM     20  N   LIG    1        1.056   2.864   1.776  0.00  0.00    +0.000 NA
ATOM     21  N   LIG    1        1.035   1.661   1.323  0.00  0.00    -0.210 NA
ATOM     22  C   LIG    1        2.286   1.164   1.252  0.00  0.00    -0.020 A 
ATOM     23  C   LIG    1        2.804  -0.070   0.838  0.00  0.00    +0.110 A 
ATOM     24  C   LIG    1        4.149  -0.294   0.884  0.00  0.00    +0.010 A 
ATOM     25  C   LIG    1        5.019   0.694   1.329  0.00  0.00    +0.080 A 
ATOM     26  C   LIG    1        4.535   1.915   1.743  0.00  0.00    +0.000 A 
ATOM     27  C   LIG    1        3.167   2.161   1.708  0.00  0.00    +0.100 A 
ENDBRANCH  18  19
ENDBRANCH   2  18
TORSDOF 4
