REMARK  Name = ZINCpe000000Z2hk.0
REMARK                            x       y       z     vdW  Elec       q    Type
REMARK                         _______ _______ _______ _____ _____    ______ ____
ROOT
ATOM      1  C   LIG    1       -3.065  -1.637  -3.395  0.00  0.00    +0.330 C 
ENDROOT
BRANCH   1   2
ATOM      2  C   LIG    1       -2.889  -1.389  -1.919  0.00  0.00    +0.530 C 
ATOM      3  N   LIG    1       -1.738  -0.861  -1.457  0.00  0.00    -0.610 N 
ATOM      4  C   LIG    1       -0.575  -0.482  -2.281  0.00  0.00    +0.290 C 
ATOM      5  C   LIG    1        0.637  -0.537  -1.310  0.00  0.00    +0.050 C 
ATOM      6  C   LIG    1        0.002  -0.004   0.002  0.00  0.00    +0.080 C 
ATOM      7  C   LIG    1       -1.433  -0.569  -0.049  0.00  0.00    +0.330 C 
ATOM      8  O   LIG    1       -3.782  -1.665  -1.147  0.00  0.00    -0.530 OA
BRANCH   6   9
ATOM      9  C   LIG    1        0.752  -0.540   1.223  0.00  0.00    +0.440 C 
ATOM     10  F   LIG    1        2.065  -0.056   1.214  0.00  0.00    -0.180 F 
ATOM     11  F   LIG    1        0.770  -1.938   1.183  0.00  0.00    -0.170 F 
ATOM     12  F   LIG    1        0.107  -0.116   2.390  0.00  0.00    -0.170 F 
ENDBRANCH   6   9
BRANCH   6  13
ATOM     13  O   LIG    1       -0.017   1.425   0.010  0.00  0.00    -0.520 OA
ATOM     14  H   LIG    1        0.861   1.830   0.004  0.00  0.00    +0.390 HD
ENDBRANCH   6  13
ENDBRANCH   1   2
BRANCH   1  17
ATOM     15  O   LIG    1       -4.017  -2.316  -5.825  0.00  0.00    -0.520 OA
ATOM     16  C   LIG    1       -4.773  -2.516  -4.894  0.00  0.00    +0.570 C 
ATOM     17  N   LIG    1       -4.391  -2.210  -3.639  0.00  0.00    -0.710 N 
ATOM     18  H   LIG    1       -4.994  -2.370  -2.896  0.00  0.00    +0.410 HD
BRANCH  16  19
ATOM     19  C   LIG    1       -6.111  -3.095  -5.140  0.00  0.00    -0.130 A 
ATOM     20  C   LIG    1       -6.979  -3.332  -4.073  0.00  0.00    +0.110 A 
ATOM     21  C   LIG    1       -8.228  -3.867  -4.310  0.00  0.00    +0.040 A 
ATOM     22  C   LIG    1       -8.617  -4.179  -5.601  0.00  0.00    +0.130 A 
ATOM     23  C   LIG    1       -7.759  -3.953  -6.662  0.00  0.00    -0.050 A 
ATOM     24  C   LIG    1       -6.509  -3.413  -6.440  0.00  0.00    +0.170 A 
BRANCH  23  25
ATOM     25  N   LIG    1       -8.182  -4.290  -8.040  0.00  0.00    +0.030 N 
ATOM     26  O   LIG    1       -9.286  -4.767  -8.238  0.00  0.00    -0.150 OA
ATOM     27  O   LIG    1       -7.428  -4.092  -8.975  0.00  0.00    -0.150 OA
ENDBRANCH  23  25
ENDBRANCH  16  19
ENDBRANCH   1  17
TORSDOF 6
