REMARK  Name = ZINCpe000000Z50E.0
REMARK                            x       y       z     vdW  Elec       q    Type
REMARK                         _______ _______ _______ _____ _____    ______ ____
ROOT
ATOM      1  C   LIG    1       -7.427   2.438   3.713  0.00  0.00    +0.020 C 
ATOM      2  C   LIG    1       -7.422   3.965   3.607  0.00  0.00    +0.080 C 
ATOM      3  C   LIG    1       -8.362   4.556   4.616  0.00  0.00    -0.020 C 
ATOM      4  C   LIG    1       -9.290   3.888   5.222  0.00  0.00    -0.050 C 
ATOM      5  C   LIG    1       -9.550   2.425   5.007  0.00  0.00    +0.100 C 
ATOM      6  C   LIG    1       -8.883   1.956   3.712  0.00  0.00    +0.000 C 
ENDROOT
BRANCH   6   7
ATOM      7  C   LIG    1       -9.610   2.542   2.529  0.00  0.00    +0.530 C 
ATOM      8  N   LIG    1      -10.072   1.734   1.554  0.00  0.00    -0.600 N 
ATOM      9  C   LIG    1       -9.985   0.270   1.679  0.00  0.00    +0.260 C 
ATOM     10  C   LIG    1      -11.374  -0.320   1.387  0.00  0.00    +0.200 C 
ATOM     11  O   LIG    1      -11.842   0.183   0.133  0.00  0.00    -0.380 OA
ATOM     12  C   LIG    1      -12.025   1.601   0.102  0.00  0.00    +0.220 C 
ATOM     13  C   LIG    1      -10.674   2.289   0.332  0.00  0.00    +0.250 C 
ATOM     14  O   LIG    1       -9.778   3.741   2.453  0.00  0.00    -0.530 OA
ENDBRANCH   6   7
BRANCH   1  16
ATOM     15  O   LIG    1       -7.274   1.095   1.779  0.00  0.00    -0.530 OA
ATOM     16  C   LIG    1       -6.697   1.846   2.536  0.00  0.00    +0.520 C 
ATOM     17  N   LIG    1       -5.401   2.151   2.324  0.00  0.00    -0.730 N 
ATOM     18  H   LIG    1       -4.939   2.752   2.929  0.00  0.00    +0.400 HD
BRANCH  17  19
ATOM     19  C   LIG    1       -4.691   1.575   1.179  0.00  0.00    +0.260 C 
BRANCH  19  20
ATOM     20  C   LIG    1       -3.246   2.079   1.169  0.00  0.00    +0.030 C 
BRANCH  20  21
ATOM     21  C   LIG    1       -2.505   1.478  -0.027  0.00  0.00    +0.330 C 
BRANCH  21  22
ATOM     22  N   LIG    1       -1.121   1.960  -0.036  0.00  0.00    -0.380 N 
ATOM     23  C   LIG    1       -0.012   1.192  -0.055  0.00  0.00    +0.220 A 
ATOM     24  C   LIG    1        1.061   2.016  -0.063  0.00  0.00    -0.120 A 
ATOM     25  C   LIG    1        0.592   3.333  -0.043  0.00  0.00    +0.230 A 
ATOM     26  N   LIG    1       -0.716   3.301  -0.024  0.00  0.00    -0.300 NA
ENDBRANCH  21  22
ENDBRANCH  20  21
ENDBRANCH  19  20
ENDBRANCH  17  19
ENDBRANCH   1  16
TORSDOF 6
