REMARK  Name = ZINCvU00000005G2.0
REMARK                            x       y       z     vdW  Elec       q    Type
REMARK                         _______ _______ _______ _____ _____    ______ ____
ROOT
ATOM      1  C   LIG    1       -2.543   3.868   0.062  0.00  0.00    +0.290 C 
ATOM      2  C   LIG    1       -3.049   4.018  -1.394  0.00  0.00    +0.020 C 
ATOM      3  C   LIG    1       -4.182   4.955  -1.448  0.00  0.00    +0.000 C 
ATOM      4  C   LIG    1       -5.410   4.500  -0.666  0.00  0.00    +0.010 C 
ATOM      5  C   LIG    1       -5.263   4.907   0.779  0.00  0.00    +0.020 C 
ATOM      6  C   LIG    1       -4.604   3.772   1.584  0.00  0.00    +0.250 C 
ATOM      7  N   LIG    1       -3.510   3.123   0.836  0.00  0.00    -0.610 N 
ATOM      8  C   LIG    1       -3.407   1.779   0.877  0.00  0.00    +0.500 C 
ATOM      9  O   LIG    1       -2.474   1.226   0.336  0.00  0.00    -0.470 OA
ENDROOT
BRANCH   1  13
ATOM     10  C   LIG    1        1.190   1.789   0.065  0.00  0.00    +0.120 A 
ATOM     11  C   LIG    1        0.677   2.297   1.249  0.00  0.00    -0.030 A 
ATOM     12  C   LIG    1       -0.533   2.963   1.247  0.00  0.00    +0.030 A 
ATOM     13  C   LIG    1       -1.226   3.135   0.063  0.00  0.00    -0.080 A 
ATOM     14  C   LIG    1       -0.717   2.629  -1.119  0.00  0.00    +0.070 A 
ATOM     15  C   LIG    1        0.490   1.957  -1.121  0.00  0.00    -0.070 A 
BRANCH  10  17
ATOM     16  C   LIG    1        2.845   0.632  -1.191  0.00  0.00    +0.240 C 
ATOM     17  O   LIG    1        2.378   1.128   0.065  0.00  0.00    -0.320 OA
ENDBRANCH  10  17
ENDBRANCH   1  13
BRANCH   8  18
ATOM     18  C   LIG    1       -4.452   0.966   1.596  0.00  0.00    +0.040 C 
BRANCH  18  19
ATOM     19  C   LIG    1       -4.101  -0.520   1.493  0.00  0.00    +0.320 C 
ATOM     20  C   LIG    1       -5.207  -1.343   2.104  0.00  0.00    -0.100 A 
ATOM     21  C   LIG    1       -6.290  -1.736   1.350  0.00  0.00    +0.020 A 
ATOM     22  C   LIG    1       -7.303  -2.481   1.931  0.00  0.00    +0.000 A 
ATOM     23  C   LIG    1       -7.236  -2.833   3.267  0.00  0.00    +0.010 A 
ATOM     24  C   LIG    1       -6.153  -2.450   4.032  0.00  0.00    +0.020 A 
ATOM     25  C   LIG    1       -5.127  -1.706   3.452  0.00  0.00    -0.030 A 
ATOM     26  C   LIG    1       -3.947  -1.302   4.241  0.00  0.00    -0.040 C 
ATOM     27  C   LIG    1       -2.862  -0.844   3.607  0.00  0.00    +0.240 C 
ATOM     28  N   LIG    1       -2.853  -0.781   2.219  0.00  0.00    -0.560 N 
ATOM     29  C   LIG    1       -1.702  -0.960   1.542  0.00  0.00    +0.520 C 
ATOM     30  O   LIG    1       -1.696  -0.905   0.330  0.00  0.00    -0.480 OA
ATOM     31  C   LIG    1       -0.421  -1.228   2.290  0.00  0.00    +0.090 C 
ENDBRANCH  18  19
ENDBRANCH   8  18
TORSDOF 4
