REMARK  Name = ZINCrH000004p2Ko.0
REMARK                            x       y       z     vdW  Elec       q    Type
REMARK                         _______ _______ _______ _____ _____    ______ ____
ROOT
ATOM      1  S   LIG    1       -3.250   1.546  -3.841  0.00  0.00    +2.680 S 
ATOM      2  O   LIG    1       -2.031   0.964  -4.282  0.00  0.00    -0.930 OA
ATOM      3  O   LIG    1       -3.749   2.778  -4.344  0.00  0.00    -0.940 OA
ENDROOT
BRANCH   1   4
ATOM      4  C   LIG    1       -4.507   0.345  -4.127  0.00  0.00    -0.700 A 
ATOM      5  C   LIG    1       -5.680   0.710  -4.760  0.00  0.00    +0.250 A 
ATOM      6  C   LIG    1       -6.665  -0.233  -4.988  0.00  0.00    -0.680 A 
ATOM      7  C   LIG    1       -6.481  -1.539  -4.575  0.00  0.00    +0.200 A 
ATOM      8  C   LIG    1       -5.310  -1.904  -3.937  0.00  0.00    +0.010 A 
ATOM      9  C   LIG    1       -4.322  -0.962  -3.713  0.00  0.00    +0.100 A 
ATOM     10 CL   LIG    1       -2.852  -1.419  -2.911  0.00  0.00    -0.020 Cl
BRANCH   6  11
ATOM     11  S   LIG    1       -8.158   0.231  -5.799  0.00  0.00    +2.500 S 
ATOM     12  O   LIG    1       -8.621  -0.972  -6.398  0.00  0.00    -0.930 OA
ATOM     13  O   LIG    1       -7.792   1.351  -6.594  0.00  0.00    -0.920 OA
ATOM     14  C   LIG    1       -9.265   0.740  -4.455  0.00  0.00    -0.240 C 
ENDBRANCH   6  11
ENDBRANCH   1   4
BRANCH   1  15
ATOM     15  N   LIG    1       -3.113   1.732  -2.201  0.00  0.00    -0.980 NA
BRANCH  15  17
ATOM     16  C   LIG    1       -2.953   0.085  -0.400  0.00  0.00    +0.030 C 
ATOM     17  C   LIG    1       -2.180   0.893  -1.445  0.00  0.00    +0.280 C 
BRANCH  17  18
ATOM     18  C   LIG    1       -1.150   1.781  -0.743  0.00  0.00    -0.040 C 
ATOM     19  C   LIG    1       -0.013   1.086   0.008  0.00  0.00    +0.020 C 
ATOM     20  C   LIG    1       -1.136   1.773   0.788  0.00  0.00    +0.010 C 
ENDBRANCH  17  18
ENDBRANCH  15  17
BRANCH  15  21
ATOM     21  C   LIG    1       -3.925   2.735  -1.507  0.00  0.00    +0.340 C 
BRANCH  21  22
ATOM     22  C   LIG    1       -3.130   4.006  -1.356  0.00  0.00    -0.120 A 
ATOM     23  C   LIG    1       -2.350   4.204  -0.232  0.00  0.00    +0.030 A 
ATOM     24  C   LIG    1       -1.618   5.369  -0.095  0.00  0.00    -0.010 A 
ATOM     25  C   LIG    1       -1.674   6.340  -1.077  0.00  0.00    +0.010 A 
ATOM     26  C   LIG    1       -2.458   6.144  -2.199  0.00  0.00    -0.010 A 
ATOM     27  C   LIG    1       -3.186   4.977  -2.338  0.00  0.00    +0.040 A 
ENDBRANCH  21  22
ENDBRANCH  15  21
ENDBRANCH   1  15
TORSDOF 7
