REMARK  Name = ZINCrg000000tumN.1
REMARK                            x       y       z     vdW  Elec       q    Type
REMARK                         _______ _______ _______ _____ _____    ______ ____
ROOT
ATOM      1  O   LIG    1       -2.075   3.593   2.662  0.00  0.00    -0.540 OA
ATOM      2  C   LIG    1       -2.672   2.788   1.972  0.00  0.00    +0.580 C 
ATOM      3  N   LIG    1       -1.991   1.991   1.125  0.00  0.00    -0.710 N 
ATOM      4  H   LIG    1       -2.467   1.350   0.574  0.00  0.00    +0.410 HD
ENDROOT
BRANCH   2   5
ATOM      5  C   LIG    1       -4.138   2.686   2.062  0.00  0.00    -0.220 A 
ATOM      6  C   LIG    1       -4.843   3.492   2.921  0.00  0.00    +0.380 A 
ATOM      7  N   LIG    1       -6.197   3.415   3.022  0.00  0.00    -0.510 N 
ATOM      8  C   LIG    1       -6.809   4.294   4.024  0.00  0.00    +0.340 C 
ATOM      9  C   LIG    1       -8.153   4.827   3.520  0.00  0.00    -0.380 C 
ATOM     10  S   LIG    1       -9.197   3.381   3.154  0.00  0.00    +2.550 S 
ATOM     11  N   LIG    1       -8.213   2.452   2.204  0.00  0.00    -0.960 NA
ATOM     12  O   LIG    1       -9.405   2.600   4.323  0.00  0.00    -0.960 OA
ATOM     13  O   LIG    1      -10.277   3.741   2.305  0.00  0.00    -0.940 OA
ATOM     14  C   LIG    1       -6.904   2.552   2.232  0.00  0.00    +0.520 A 
ATOM     15  C   LIG    1       -6.214   1.677   1.338  0.00  0.00    +0.020 A 
ATOM     16  C   LIG    1       -4.869   1.726   1.232  0.00  0.00    +0.140 A 
ENDBRANCH   2   5
BRANCH   3  17
ATOM     17  C   LIG    1       -0.532   2.094   1.035  0.00  0.00    +0.290 C 
BRANCH  17  18
ATOM     18  C   LIG    1       -0.013   1.086   0.008  0.00  0.00    +0.270 C 
BRANCH  18  19
ATOM     19  N   LIG    1       -0.695   1.299  -1.276  0.00  0.00    -0.510 NA
ATOM     20  C   LIG    1       -0.603   2.720  -1.697  0.00  0.00    +0.170 C 
ATOM     21  C   LIG    1       -0.873   2.655  -3.222  0.00  0.00    +0.030 C 
ATOM     22  C   LIG    1       -0.162   1.349  -3.644  0.00  0.00    +0.010 C 
ATOM     23  C   LIG    1       -0.052   0.516  -2.353  0.00  0.00    +0.160 C 
ENDBRANCH  18  19
BRANCH  18  24
ATOM     24  C   LIG    1        1.471   1.274  -0.174  0.00  0.00    -0.050 A 
ATOM     25  C   LIG    1        2.431   0.449   0.280  0.00  0.00    -0.040 A 
ATOM     26  C   LIG    1        3.670   1.005  -0.113  0.00  0.00    -0.060 A 
ATOM     27  C   LIG    1        3.393   2.137  -0.784  0.00  0.00    +0.160 A 
ATOM     28  O   LIG    1        2.060   2.292  -0.823  0.00  0.00    -0.170 OA
ENDBRANCH  18  24
ENDBRANCH  17  18
ENDBRANCH   3  17
TORSDOF 5
