REMARK  Name = ZINCqH0000004YCC.0
REMARK                            x       y       z     vdW  Elec       q    Type
REMARK                         _______ _______ _______ _____ _____    ______ ____
ROOT
ATOM      1  C   LIG    1        1.588   3.055   0.019  0.00  0.00    +0.290 C 
ATOM      2  N   LIG    1        1.356   1.608  -0.002  0.00  0.00    -0.600 N 
ATOM      3  C   LIG    1        2.401   0.758  -0.031  0.00  0.00    +0.520 C 
ATOM      4  O   LIG    1        2.209  -0.439  -0.049  0.00  0.00    -0.530 OA
ENDROOT
BRANCH   2   5
ATOM      5  C   LIG    1       -0.013   1.086   0.008  0.00  0.00    +0.350 C 
ATOM      6  C   LIG    1       -0.752   1.589   1.224  0.00  0.00    -0.100 A 
ATOM      7  C   LIG    1       -0.523   1.436   2.575  0.00  0.00    +0.040 A 
ATOM      8  C   LIG    1       -1.380   2.018   3.492  0.00  0.00    +0.020 A 
ATOM      9  C   LIG    1       -2.467   2.755   3.057  0.00  0.00    +0.020 A 
ATOM     10  C   LIG    1       -2.705   2.912   1.703  0.00  0.00    +0.020 A 
ATOM     11  C   LIG    1       -1.844   2.328   0.773  0.00  0.00    -0.050 A 
ATOM     12  C   LIG    1       -1.857   2.336  -0.711  0.00  0.00    -0.050 A 
ATOM     13  C   LIG    1       -2.735   2.930  -1.619  0.00  0.00    +0.020 A 
ATOM     14  C   LIG    1       -2.524   2.787  -2.975  0.00  0.00    +0.020 A 
ATOM     15  C   LIG    1       -1.446   2.056  -3.439  0.00  0.00    +0.020 A 
ATOM     16  C   LIG    1       -0.572   1.464  -2.545  0.00  0.00    +0.040 A 
ATOM     17  C   LIG    1       -0.775   1.602  -1.188  0.00  0.00    -0.100 A 
ENDBRANCH   2   5
BRANCH   3  18
ATOM     18  C   LIG    1        3.809   1.296  -0.042  0.00  0.00    +0.000 C 
ATOM     19  C   LIG    1        4.799   0.130  -0.078  0.00  0.00    +0.050 C 
ATOM     20  C   LIG    1        6.207   0.654  -0.384  0.00  0.00    +0.140 C 
ATOM     21  C   LIG    1        6.504   1.790   0.565  0.00  0.00    +0.080 A 
ATOM     22  N   LIG    1        7.658   2.318   0.856  0.00  0.00    -0.290 NA
ATOM     23  N   LIG    1        7.445   3.345   1.788  0.00  0.00    -0.480 N 
ATOM     24  H   LIG    1        8.130   3.908   2.181  0.00  0.00    +0.440 HD
ATOM     25  C   LIG    1        6.119   3.411   2.042  0.00  0.00    +0.250 A 
ATOM     26  C   LIG    1        5.515   2.465   1.300  0.00  0.00    -0.240 A 
ATOM     27  C   LIG    1        4.045   2.135   1.221  0.00  0.00    +0.110 C 
ENDBRANCH   3  18
TORSDOF 2
