REMARK  Name = ZINCkj000005lqFJ.0
REMARK                            x       y       z     vdW  Elec       q    Type
REMARK                         _______ _______ _______ _____ _____    ______ ____
ROOT
ATOM      1  C   LIG    1        7.852  -4.701  -1.776  0.00  0.00    +0.180 C 
ATOM      2  C   LIG    1        8.995  -4.118  -2.631  0.00  0.00    +0.050 C 
ATOM      3  C   LIG    1        8.626  -2.623  -2.792  0.00  0.00    +0.070 C 
ATOM      4  C   LIG    1        8.042  -2.264  -1.406  0.00  0.00    +0.020 C 
ATOM      5  C   LIG    1        6.991  -1.159  -1.567  0.00  0.00    +0.290 C 
ATOM      6  N   LIG    1        5.670  -1.792  -1.626  0.00  0.00    -1.010 NA
ATOM      7  C   LIG    1        5.826  -3.249  -1.561  0.00  0.00    +0.290 C 
ATOM      8  C   LIG    1        7.234  -3.525  -0.999  0.00  0.00    +0.000 C 
ENDROOT
BRANCH   1   9
ATOM      9  N   LIG    1        8.384  -5.699  -0.839  0.00  0.00    -0.640 N 
ATOM     10  H   LIG    1        9.093  -5.274  -0.261  0.00  0.00    +0.430 HD
ATOM     11  H   LIG    1        8.787  -6.466  -1.357  0.00  0.00    +0.440 HD
ATOM     12  H   LIG    1        7.636  -6.044  -0.255  0.00  0.00    +0.440 HD
ENDBRANCH   1   9
BRANCH   6  13
ATOM     13  S   LIG    1        4.228  -0.988  -1.753  0.00  0.00    +2.620 S 
ATOM     14  O   LIG    1        4.565   0.239  -2.384  0.00  0.00    -0.930 OA
ATOM     15  O   LIG    1        3.361  -1.922  -2.384  0.00  0.00    -0.930 OA
BRANCH  13  16
ATOM     16  C   LIG    1        3.716  -0.703  -0.037  0.00  0.00    -0.290 C 
BRANCH  16  17
ATOM     17  C   LIG    1        2.399   0.031  -0.021  0.00  0.00    -0.140 A 
ATOM     18  C   LIG    1        2.378   1.413  -0.013  0.00  0.00    +0.060 A 
ATOM     19  C   LIG    1        1.171   2.086   0.002  0.00  0.00    +0.020 A 
ATOM     20  C   LIG    1       -0.017   1.378   0.010  0.00  0.00    +0.070 A 
ATOM     21  C   LIG    1        0.002  -0.004   0.002  0.00  0.00    +0.000 A 
ATOM     22  C   LIG    1        1.210  -0.679  -0.013  0.00  0.00    +0.110 A 
ATOM     23  F   LIG    1        1.230  -2.030  -0.021  0.00  0.00    -0.130 F 
ENDBRANCH  16  17
ENDBRANCH  13  16
ENDBRANCH   6  13
TORSDOF 4
