REMARK  Name = ZINCrD000006fiye.0
REMARK                            x       y       z     vdW  Elec       q    Type
REMARK                         _______ _______ _______ _____ _____    ______ ____
ROOT
ATOM      1  C   LIG    1       -3.851   2.437  -1.786  0.00  0.00    +0.550 C 
ATOM      2  N   LIG    1       -4.062   2.013  -0.524  0.00  0.00    -0.600 N 
ATOM      3  C   LIG    1       -4.824   2.738   0.509  0.00  0.00    +0.260 C 
ATOM      4  C   LIG    1       -5.299   1.641   1.494  0.00  0.00    +0.040 C 
ATOM      5  C   LIG    1       -4.078   0.683   1.506  0.00  0.00    +0.060 C 
ATOM      6  C   LIG    1       -3.571   0.752   0.050  0.00  0.00    +0.320 C 
ATOM      7  O   LIG    1       -3.206   1.756  -2.555  0.00  0.00    -0.520 OA
ENDROOT
BRANCH   6   8
ATOM      8  C   LIG    1       -2.064   0.733   0.030  0.00  0.00    +0.290 A 
ATOM      9  N   LIG    1       -1.305   1.790   0.029  0.00  0.00    -0.470 NA
ATOM     10  C   LIG    1       -0.001   1.415   0.006  0.00  0.00    +0.060 A 
ATOM     11  C   LIG    1        1.204   2.122  -0.007  0.00  0.00    +0.090 A 
ATOM     12  C   LIG    1        2.399   1.437  -0.023  0.00  0.00    -0.040 A 
ATOM     13  C   LIG    1        2.415   0.048  -0.028  0.00  0.00    +0.050 A 
ATOM     14  C   LIG    1        1.235  -0.664  -0.016  0.00  0.00    +0.030 A 
ATOM     15 CL   LIG    1        3.896   2.315  -0.037  0.00  0.00    -0.060 Cl
ATOM     16  C   LIG    1        0.022   0.010   0.001  0.00  0.00    +0.050 A 
ATOM     17  N   LIG    1       -1.300  -0.392   0.016  0.00  0.00    -0.590 N 
ATOM     18  H   LIG    1       -1.623  -1.307   0.018  0.00  0.00    +0.420 HD
ENDBRANCH   6   8
BRANCH   1  24
ATOM     19  C   LIG    1       -4.930   7.065  -1.121  0.00  0.00    +0.550 C 
ATOM     20  N   LIG    1       -4.304   6.173  -1.914  0.00  0.00    -0.610 N 
ATOM     21  C   LIG    1       -4.067   6.470  -3.333  0.00  0.00    +0.260 C 
ATOM     22  C   LIG    1       -4.634   5.324  -4.178  0.00  0.00    +0.010 C 
ATOM     23  C   LIG    1       -4.033   3.999  -3.704  0.00  0.00    +0.050 C 
ATOM     24  C   LIG    1       -4.417   3.757  -2.243  0.00  0.00    -0.010 C 
ATOM     25  C   LIG    1       -3.847   4.884  -1.375  0.00  0.00    +0.300 C 
ATOM     26  O   LIG    1       -5.206   6.771   0.026  0.00  0.00    -0.540 OA
BRANCH  19  28
ATOM     27  C   LIG    1       -5.807   9.309  -0.835  0.00  0.00    +0.140 C 
ATOM     28  C   LIG    1       -5.280   8.395  -1.644  0.00  0.00    -0.090 C 
ENDBRANCH  19  28
ENDBRANCH   1  24
TORSDOF 3
