REMARK  Name = ZINCrD000006fiye.1
REMARK                            x       y       z     vdW  Elec       q    Type
REMARK                         _______ _______ _______ _____ _____    ______ ____
ROOT
ATOM      1  C   LIG    1        0.831   8.340   1.877  0.00  0.00    +0.550 C 
ATOM      2  N   LIG    1        1.293   8.347   0.611  0.00  0.00    -0.600 N 
ATOM      3  C   LIG    1        1.005   9.378  -0.403  0.00  0.00    +0.260 C 
ATOM      4  C   LIG    1        2.188   9.294  -1.401  0.00  0.00    +0.040 C 
ATOM      5  C   LIG    1        2.454   7.766  -1.440  0.00  0.00    +0.060 C 
ATOM      6  C   LIG    1        2.167   7.328   0.012  0.00  0.00    +0.320 C 
ATOM      7  O   LIG    1        1.133   7.437   2.628  0.00  0.00    -0.520 OA
ENDROOT
BRANCH   6   8
ATOM      8  C   LIG    1        1.472   5.991   0.016  0.00  0.00    +0.290 A 
ATOM      9  N   LIG    1        0.182   5.821   0.031  0.00  0.00    -0.470 NA
ATOM     10  C   LIG    1       -0.104   4.494   0.030  0.00  0.00    +0.050 A 
ATOM     11  C   LIG    1       -1.296   3.765   0.042  0.00  0.00    +0.090 A 
ATOM     12  C   LIG    1       -1.260   2.400   0.032  0.00  0.00    +0.020 A 
ATOM     13  C   LIG    1       -0.047   1.724   0.020  0.00  0.00    -0.020 A 
ATOM     14  C   LIG    1        1.143   2.423   0.007  0.00  0.00    +0.030 A 
ATOM     15 CL   LIG    1       -0.027  -0.012   0.013  0.00  0.00    -0.060 Cl
ATOM     16  C   LIG    1        1.124   3.811   0.012  0.00  0.00    +0.060 A 
ATOM     17  N   LIG    1        2.102   4.785   0.004  0.00  0.00    -0.590 N 
ATOM     18  H   LIG    1        3.061   4.637  -0.009  0.00  0.00    +0.420 HD
ENDBRANCH   6   8
BRANCH   1  24
ATOM     19  C   LIG    1       -2.743  11.489   1.296  0.00  0.00    +0.550 C 
ATOM     20  N   LIG    1       -2.245  10.503   2.068  0.00  0.00    -0.610 N 
ATOM     21  C   LIG    1       -2.607  10.410   3.489  0.00  0.00    +0.260 C 
ATOM     22  C   LIG    1       -1.322  10.355   4.322  0.00  0.00    +0.010 C 
ATOM     23  C   LIG    1       -0.443   9.207   3.821  0.00  0.00    +0.050 C 
ATOM     24  C   LIG    1       -0.061   9.455   2.360  0.00  0.00    -0.010 C 
ATOM     25  C   LIG    1       -1.331   9.500   1.504  0.00  0.00    +0.300 C 
ATOM     26  O   LIG    1       -2.363  11.612   0.147  0.00  0.00    -0.540 OA
BRANCH  19  28
ATOM     27  C   LIG    1       -4.309  13.327   1.054  0.00  0.00    +0.140 C 
ATOM     28  C   LIG    1       -3.745  12.417   1.842  0.00  0.00    -0.090 C 
ENDBRANCH  19  28
ENDBRANCH   1  24
TORSDOF 3
