REMARK  Name = ZINCvU00000004cR.0
REMARK                            x       y       z     vdW  Elec       q    Type
REMARK                         _______ _______ _______ _____ _____    ______ ____
ROOT
ATOM      1  C   LIG    1        1.401   1.607  -0.003  0.00  0.00    +0.280 A 
ATOM      2  N   LIG    1        1.746   2.832   0.271  0.00  0.00    -0.450 NA
ATOM      3  C   LIG    1        3.094   2.960   0.170  0.00  0.00    +0.060 A 
ATOM      4  C   LIG    1        3.976   4.028   0.355  0.00  0.00    +0.090 A 
ATOM      5  C   LIG    1        5.327   3.838   0.168  0.00  0.00    -0.040 A 
ATOM      6  C   LIG    1        5.820   2.594  -0.202  0.00  0.00    +0.050 A 
ATOM      7  C   LIG    1        4.963   1.530  -0.388  0.00  0.00    +0.030 A 
ATOM      8 CL   LIG    1        6.423   5.165   0.397  0.00  0.00    -0.060 Cl
ATOM      9  C   LIG    1        3.598   1.703  -0.204  0.00  0.00    +0.060 A 
ATOM     10  N   LIG    1        2.502   0.868  -0.306  0.00  0.00    -0.470 N 
ENDROOT
BRANCH   1  12
ATOM     11  C   LIG    1       -0.753   1.593  -1.232  0.00  0.00    +0.070 C 
ATOM     12  C   LIG    1       -0.013   1.086   0.008  0.00  0.00    +0.270 C 
BRANCH  12  13
ATOM     13  O   LIG    1       -0.692   1.554   1.203  0.00  0.00    -0.330 OA
BRANCH  13  14
ATOM     14  C   LIG    1       -1.655   0.765   1.705  0.00  0.00    +0.500 C 
ATOM     15  O   LIG    1       -1.921  -0.283   1.165  0.00  0.00    -0.500 OA
BRANCH  14  16
ATOM     16  C   LIG    1       -2.404   1.185   2.943  0.00  0.00    -0.080 C 
ATOM     17  C   LIG    1       -3.567   0.247   3.388  0.00  0.00    +0.050 C 
ATOM     18  C   LIG    1       -4.443   1.155   4.314  0.00  0.00    +0.030 C 
ATOM     19  C   LIG    1       -3.709   2.530   4.334  0.00  0.00    -0.070 C 
ATOM     20  C   LIG    1       -2.407   2.266   5.151  0.00  0.00    +0.040 C 
ATOM     21  C   LIG    1       -3.133   2.573   2.875  0.00  0.00    +0.070 C 
ATOM     22  C   LIG    1       -1.543   1.375   4.229  0.00  0.00    +0.040 C 
BRANCH  19  23
ATOM     23  C   LIG    1       -4.548   3.729   4.782  0.00  0.00    +0.210 C 
BRANCH  23  24
ATOM     24  O   LIG    1       -4.979   3.532   6.130  0.00  0.00    -0.570 OA
ATOM     25  H   LIG    1       -5.517   4.255   6.481  0.00  0.00    +0.380 HD
ENDBRANCH  23  24
ENDBRANCH  19  23
ENDBRANCH  14  16
ENDBRANCH  13  14
ENDBRANCH  12  13
ENDBRANCH   1  12
BRANCH  10  26
ATOM     26  C   LIG    1        2.522  -0.550  -0.672  0.00  0.00    +0.360 C 
BRANCH  26  27
ATOM     27  C   LIG    1        2.388  -0.684  -2.167  0.00  0.00    -0.120 A 
ATOM     28  C   LIG    1        1.136  -0.797  -2.742  0.00  0.00    +0.020 A 
ATOM     29  C   LIG    1        1.013  -0.915  -4.114  0.00  0.00    +0.010 A 
ATOM     30  C   LIG    1        2.142  -0.931  -4.910  0.00  0.00    +0.020 A 
ATOM     31  C   LIG    1        3.395  -0.824  -4.335  0.00  0.00    +0.010 A 
ATOM     32  C   LIG    1        3.518  -0.701  -2.964  0.00  0.00    +0.020 A 
ENDBRANCH  26  27
ENDBRANCH  10  26
TORSDOF 8
