REMARK  Name = ZINCrH000004rLHp.0
REMARK                            x       y       z     vdW  Elec       q    Type
REMARK                         _______ _______ _______ _____ _____    ______ ____
ROOT
ATOM      1  C   LIG    1        4.617   2.993  -1.811  0.00  0.00    +0.330 C 
ENDROOT
BRANCH   1   7
ATOM      2  C   LIG    1        8.226   6.224  -3.070  0.00  0.00    +0.090 C 
ATOM      3  C   LIG    1        7.472   5.455  -2.015  0.00  0.00    -0.080 A 
ATOM      4  C   LIG    1        7.815   5.591  -0.683  0.00  0.00    +0.000 A 
ATOM      5  C   LIG    1        7.123   4.887   0.284  0.00  0.00    +0.000 A 
ATOM      6  C   LIG    1        6.088   4.046  -0.081  0.00  0.00    +0.010 A 
ATOM      7  C   LIG    1        5.745   3.910  -1.413  0.00  0.00    -0.080 A 
ATOM      8  C   LIG    1        6.441   4.611  -2.381  0.00  0.00    +0.020 A 
ENDBRANCH   1   7
BRANCH   1   9
ATOM      9  C   LIG    1        5.111   1.569  -1.832  0.00  0.00    -0.080 A 
ATOM     10  C   LIG    1        5.225   0.860  -0.651  0.00  0.00    +0.010 A 
ATOM     11  C   LIG    1        5.678  -0.446  -0.670  0.00  0.00    +0.010 A 
ATOM     12  C   LIG    1        6.016  -1.043  -1.870  0.00  0.00    +0.000 A 
ATOM     13  C   LIG    1        5.901  -0.334  -3.051  0.00  0.00    -0.080 A 
ATOM     14  C   LIG    1        6.271  -0.984  -4.359  0.00  0.00    +0.090 C 
ATOM     15  C   LIG    1        5.444   0.971  -3.033  0.00  0.00    +0.010 A 
ENDBRANCH   1   9
BRANCH   1  16
ATOM     16  N   LIG    1        3.523   3.117  -0.845  0.00  0.00    -0.710 N 
ATOM     17  H   LIG    1        3.459   2.495  -0.103  0.00  0.00    +0.410 HD
ATOM     18  C   LIG    1        2.607   4.094  -0.987  0.00  0.00    +0.530 C 
ATOM     19  O   LIG    1        2.687   4.872  -1.914  0.00  0.00    -0.530 OA
BRANCH  18  20
ATOM     20  C   LIG    1        1.481   4.221   0.008  0.00  0.00    +0.110 C 
ATOM     21  C   LIG    1        0.564   5.385  -0.393  0.00  0.00    +0.070 C 
ATOM     22  C   LIG    1       -0.705   5.362   0.462  0.00  0.00    +0.030 C 
ATOM     23  C   LIG    1       -1.591   4.180   0.046  0.00  0.00    +0.140 C 
ATOM     24  C   LIG    1       -0.738   2.939   0.027  0.00  0.00    +0.020 A 
ATOM     25  N   LIG    1       -1.084   1.684   0.016  0.00  0.00    -0.270 NA
ATOM     26  N   LIG    1       -0.011   0.966   0.007  0.00  0.00    -0.260 N 
ATOM     27  H   LIG    1        0.002  -0.004   0.002  0.00  0.00    +0.470 HD
ATOM     28  N   LIG    1        1.042   1.713   0.001  0.00  0.00    -0.270 NA
ATOM     29  C   LIG    1        0.662   2.958   0.012  0.00  0.00    +0.010 A 
ENDBRANCH  18  20
ENDBRANCH   1  16
TORSDOF 4
