REMARK  Name = ZINCrH000004rLHp.1
REMARK                            x       y       z     vdW  Elec       q    Type
REMARK                         _______ _______ _______ _____ _____    ______ ____
ROOT
ATOM      1  C   LIG    1       -2.559   4.295   0.048  0.00  0.00    +0.340 C 
ENDROOT
BRANCH   1   7
ATOM      2  C   LIG    1        0.002  -0.004   0.002  0.00  0.00    +0.090 C 
ATOM      3  C   LIG    1       -0.018   1.503   0.010  0.00  0.00    -0.080 A 
ATOM      4  C   LIG    1        1.169   2.210   0.003  0.00  0.00    +0.000 A 
ATOM      5  C   LIG    1        1.151   3.592   0.010  0.00  0.00    +0.010 A 
ATOM      6  C   LIG    1       -0.056   4.267   0.025  0.00  0.00    -0.010 A 
ATOM      7  C   LIG    1       -1.244   3.560   0.032  0.00  0.00    -0.090 A 
ATOM      8  C   LIG    1       -1.225   2.178   0.020  0.00  0.00    +0.020 A 
ENDBRANCH   1   7
BRANCH   1   9
ATOM      9  C   LIG    1       -2.889   4.764  -1.345  0.00  0.00    -0.090 A 
ATOM     10  C   LIG    1       -2.296   5.907  -1.849  0.00  0.00    -0.010 A 
ATOM     11  C   LIG    1       -2.600   6.337  -3.127  0.00  0.00    +0.020 A 
ATOM     12  C   LIG    1       -3.496   5.625  -3.902  0.00  0.00    +0.010 A 
ATOM     13  C   LIG    1       -4.089   4.482  -3.398  0.00  0.00    -0.080 A 
ATOM     14  C   LIG    1       -5.066   3.705  -4.242  0.00  0.00    +0.090 C 
ATOM     15  C   LIG    1       -3.782   4.049  -2.122  0.00  0.00    +0.030 A 
ENDBRANCH   1   9
BRANCH   1  16
ATOM     16  N   LIG    1       -2.460   5.452   0.942  0.00  0.00    -0.730 N 
ATOM     17  H   LIG    1       -2.240   6.325   0.583  0.00  0.00    +0.390 HD
ATOM     18  C   LIG    1       -2.675   5.302   2.264  0.00  0.00    +0.520 C 
ATOM     19  O   LIG    1       -2.950   4.210   2.714  0.00  0.00    -0.510 OA
BRANCH  18  20
ATOM     20  C   LIG    1       -2.574   6.491   3.184  0.00  0.00    +0.090 C 
ATOM     21  C   LIG    1       -2.833   6.050   4.630  0.00  0.00    +0.070 C 
ATOM     22  C   LIG    1       -2.474   7.192   5.586  0.00  0.00    +0.040 C 
ATOM     23  C   LIG    1       -0.952   7.385   5.608  0.00  0.00    +0.140 C 
ATOM     24  C   LIG    1       -0.465   7.470   4.185  0.00  0.00    +0.000 A 
ATOM     25  N   LIG    1        0.695   7.922   3.721  0.00  0.00    -0.250 NA
ATOM     26  N   LIG    1        0.694   7.816   2.435  0.00  0.00    -0.070 NA
ATOM     27  N   LIG    1       -0.422   7.311   2.029  0.00  0.00    -0.380 N 
ATOM     28  H   LIG    1       -0.666   7.133   1.107  0.00  0.00    +0.440 HD
ATOM     29  C   LIG    1       -1.188   7.075   3.108  0.00  0.00    -0.020 A 
ENDBRANCH  18  20
ENDBRANCH   1  16
TORSDOF 4
