REMARK  Name = ZINCpk00001AZj5G.0
REMARK                            x       y       z     vdW  Elec       q    Type
REMARK                         _______ _______ _______ _____ _____    ______ ____
ROOT
ATOM      1  O   LIG    1       -0.647   3.594   0.025  0.00  0.00    -0.520 OA
ATOM      2  C   LIG    1       -0.966   2.424   0.020  0.00  0.00    +0.550 C 
ATOM      3  N   LIG    1       -0.018   1.466   0.010  0.00  0.00    -0.620 N 
ATOM      4  C   LIG    1        0.002  -0.004   0.002  0.00  0.00    +0.300 C 
ATOM      5  C   LIG    1        1.360   0.072  -0.710  0.00  0.00    +0.070 C 
ATOM      6  C   LIG    1        1.452   1.432  -0.004  0.00  0.00    +0.330 C 
ENDROOT
BRANCH   6   7
ATOM      7  C   LIG    1        2.070   2.510  -0.857  0.00  0.00    +0.170 A 
ATOM      8  N   LIG    1        1.697   2.856  -2.061  0.00  0.00    -0.270 NA
ATOM      9  N   LIG    1        2.440   3.818  -2.486  0.00  0.00    -0.290 NA
ATOM     10  C   LIG    1        3.320   4.123  -1.576  0.00  0.00    +0.190 A 
ATOM     11  C   LIG    1        4.371   5.200  -1.651  0.00  0.00    +0.150 C 
ATOM     12  C   LIG    1        5.711   4.625  -1.185  0.00  0.00    +0.020 C 
ATOM     13  C   LIG    1        5.838   4.782   0.327  0.00  0.00    +0.030 C 
ATOM     14  C   LIG    1        4.470   4.652   0.995  0.00  0.00    +0.030 C 
ATOM     15  C   LIG    1        3.889   3.262   0.719  0.00  0.00    +0.280 C 
ATOM     16  N   LIG    1        3.116   3.297  -0.523  0.00  0.00    -0.460 N 
ENDBRANCH   6   7
BRANCH   2  17
ATOM     17  C   LIG    1       -2.424   2.041   0.025  0.00  0.00    +0.270 C 
ATOM     18  C   LIG    1       -3.288   3.307   0.037  0.00  0.00    +0.070 C 
ATOM     19  C   LIG    1       -4.749   2.927   0.295  0.00  0.00    +0.050 C 
ATOM     20  C   LIG    1       -4.895   2.431   1.739  0.00  0.00    +0.160 C 
ATOM     21  C   LIG    1       -3.810   1.415   2.001  0.00  0.00    +0.290 A 
ATOM     22  N   LIG    1       -3.740   0.551   2.975  0.00  0.00    -0.540 NA
ATOM     23  C   LIG    1       -2.625  -0.172   2.855  0.00  0.00    +0.420 A 
ATOM     24  N   LIG    1       -1.969   0.227   1.794  0.00  0.00    -0.320 NA
ATOM     25  N   LIG    1       -2.721   1.258   1.225  0.00  0.00    -0.370 N 
ENDBRANCH   2  17
TORSDOF 2
