REMARK  Name = ZINCqH0000031qwS.0
REMARK                            x       y       z     vdW  Elec       q    Type
REMARK                         _______ _______ _______ _____ _____    ______ ____
ROOT
ATOM      1  N   LIG    1        4.018  -1.137  -1.403  0.00  0.00    -0.730 N 
ATOM      2  H   LIG    1        3.398  -0.939  -2.122  0.00  0.00    +0.400 HD
ATOM      3  C   LIG    1        5.154  -1.815  -1.661  0.00  0.00    +0.710 C 
ATOM      4  N   LIG    1        5.427  -2.219  -2.917  0.00  0.00    -0.660 N 
ATOM      5  H   LIG    1        4.807  -2.021  -3.636  0.00  0.00    +0.400 HD
ATOM      6  O   LIG    1        5.931  -2.064  -0.760  0.00  0.00    -0.560 OA
ENDROOT
BRANCH   4   7
ATOM      7  C   LIG    1        6.603  -2.922  -3.184  0.00  0.00    +0.320 A 
ATOM      8  C   LIG    1        7.556  -3.267  -2.276  0.00  0.00    -0.110 A 
ATOM      9  C   LIG    1        8.563  -3.960  -2.956  0.00  0.00    +0.250 A 
ATOM     10  N   LIG    1        8.232  -4.031  -4.220  0.00  0.00    -0.290 NA
ATOM     11  N   LIG    1        6.998  -3.389  -4.390  0.00  0.00    -0.380 N 
BRANCH  11  12
ATOM     12  C   LIG    1        6.267  -3.247  -5.651  0.00  0.00    +0.260 C 
ATOM     13  C   LIG    1        5.942  -4.633  -6.212  0.00  0.00    +0.020 C 
ATOM     14  C   LIG    1        5.179  -4.484  -7.529  0.00  0.00    +0.010 C 
ATOM     15  C   LIG    1        6.041  -3.718  -8.534  0.00  0.00    +0.020 C 
ATOM     16  C   LIG    1        6.366  -2.332  -7.974  0.00  0.00    +0.010 C 
ATOM     17  C   LIG    1        7.129  -2.480  -6.656  0.00  0.00    +0.020 C 
ENDBRANCH  11  12
ENDBRANCH   4   7
BRANCH   1  18
ATOM     18  C   LIG    1        3.721  -0.698  -0.038  0.00  0.00    +0.350 C 
BRANCH  18  24
ATOM     19  C   LIG    1        1.213  -0.680  -0.013  0.00  0.00    +0.150 A 
ATOM     20  C   LIG    1        0.002  -0.004   0.002  0.00  0.00    -0.080 A 
ATOM     21  C   LIG    1       -0.017   1.377   0.010  0.00  0.00    +0.060 A 
ATOM     22  C   LIG    1        1.170   2.086   0.002  0.00  0.00    -0.030 A 
ATOM     23  C   LIG    1        2.379   1.415  -0.013  0.00  0.00    +0.070 A 
ATOM     24  C   LIG    1        2.403   0.034  -0.021  0.00  0.00    -0.140 A 
BRANCH  19  25
ATOM     25  O   LIG    1        1.234  -2.039  -0.021  0.00  0.00    -0.300 OA
BRANCH  25  26
ATOM     26  C   LIG    1       -0.029  -2.707  -0.013  0.00  0.00    +0.360 C 
BRANCH  26  28
ATOM     27  C   LIG    1        0.359  -5.325  -0.032  0.00  0.00    +0.080 C 
ATOM     28  C   LIG    1        0.187  -4.163  -0.023  0.00  0.00    -0.210 C 
ENDBRANCH  26  28
ENDBRANCH  25  26
ENDBRANCH  19  25
ENDBRANCH  18  24
ENDBRANCH   1  18
TORSDOF 7
