REMARK  Name = ZINCtV00001bB3Mu.0
REMARK                            x       y       z     vdW  Elec       q    Type
REMARK                         _______ _______ _______ _____ _____    ______ ____
ROOT
ATOM      1  C   LIG    1        3.008  -2.242  -0.716  0.00  0.00    -0.200 A 
ATOM      2  C   LIG    1        3.083  -3.595  -0.452  0.00  0.00    +0.300 A 
ATOM      3  N   LIG    1        2.035  -3.922   0.328  0.00  0.00    -0.300 N 
ATOM      4  N   LIG    1        1.267  -2.784   0.586  0.00  0.00    -0.260 NA
ATOM      5  C   LIG    1        1.809  -1.751  -0.025  0.00  0.00    +0.190 A 
ENDROOT
BRANCH   5   6
ATOM      6  C   LIG    1        1.309  -0.362  -0.012  0.00  0.00    +0.110 A 
ATOM      7  C   LIG    1        0.002  -0.004   0.002  0.00  0.00    +0.000 A 
ATOM      8  C   LIG    1       -0.018   1.460   0.010  0.00  0.00    -0.140 A 
ATOM      9  C   LIG    1       -1.031   2.420   0.030  0.00  0.00    +0.060 A 
ATOM     10  C   LIG    1       -0.707   3.748   0.029  0.00  0.00    -0.010 A 
ATOM     11  C   LIG    1        0.622   4.146   0.018  0.00  0.00    +0.040 A 
ATOM     12  C   LIG    1        1.638   3.213   0.004  0.00  0.00    +0.020 A 
ATOM     13  C   LIG    1        1.331   1.859  -0.001  0.00  0.00    +0.070 A 
ATOM     14  O   LIG    1        2.085   0.740  -0.014  0.00  0.00    -0.140 OA
ENDBRANCH   5   6
BRANCH   3  15
ATOM     15  C   LIG    1        1.760  -5.208   0.811  0.00  0.00    +0.150 A 
ATOM     16  C   LIG    1        2.598  -6.267   0.488  0.00  0.00    -0.010 A 
ATOM     17  C   LIG    1        2.327  -7.532   0.971  0.00  0.00    +0.050 A 
ATOM     18  C   LIG    1        1.217  -7.747   1.766  0.00  0.00    +0.010 A 
ATOM     19  C   LIG    1        0.377  -6.695   2.086  0.00  0.00    +0.050 A 
ATOM     20  C   LIG    1        0.646  -5.427   1.611  0.00  0.00    +0.030 A 
ENDBRANCH   3  15
BRANCH   1  22
ATOM     21  N   LIG    1        3.743  -0.172  -1.690  0.00  0.00    -0.460 NA
ATOM     22  C   LIG    1        3.942  -1.450  -1.527  0.00  0.00    +0.350 C 
BRANCH  21  29
ATOM     23  F   LIG    1        4.472   2.376  -0.902  0.00  0.00    -0.120 F 
ATOM     24  C   LIG    1        4.978   1.855  -2.041  0.00  0.00    +0.120 A 
ATOM     25  C   LIG    1        5.862   2.590  -2.807  0.00  0.00    +0.000 A 
ATOM     26  C   LIG    1        6.376   2.059  -3.977  0.00  0.00    +0.030 A 
ATOM     27  C   LIG    1        6.015   0.788  -4.385  0.00  0.00    +0.010 A 
ATOM     28  C   LIG    1        5.138   0.038  -3.627  0.00  0.00    +0.000 A 
ATOM     29  C   LIG    1        4.614   0.566  -2.446  0.00  0.00    +0.060 A 
ENDBRANCH  21  29
ENDBRANCH   1  22
TORSDOF 4
