REMARK  Name = ZINCtV00001bB3MU.1
REMARK                            x       y       z     vdW  Elec       q    Type
REMARK                         _______ _______ _______ _____ _____    ______ ____
ROOT
ATOM      1  C   LIG    1        1.221   1.532  -0.001  0.00  0.00    +0.160 A 
ATOM      2  C   LIG    1        1.860   1.821   1.189  0.00  0.00    +0.050 A 
ATOM      3  C   LIG    1        3.131   2.402   1.172  0.00  0.00    +0.090 A 
ATOM      4  C   LIG    1        3.752   2.701  -0.048  0.00  0.00    +0.030 A 
ATOM      5  C   LIG    1        3.124   2.423  -1.225  0.00  0.00    +0.070 A 
ATOM      6  C   LIG    1        1.851   1.834  -1.223  0.00  0.00    -0.090 A 
ENDROOT
BRANCH   1   7
ATOM      7  O   LIG    1       -0.011   0.963   0.007  0.00  0.00    -0.460 OA
ATOM      8  H   LIG    1        0.002  -0.004   0.002  0.00  0.00    +0.400 HD
ENDBRANCH   1   7
BRANCH   3   9
ATOM      9  N   LIG    1        3.767   2.684   2.347  0.00  0.00    -0.220 NA
ATOM     10  N   LIG    1        4.938   3.224   2.333  0.00  0.00    -0.190 NA
BRANCH  10  11
ATOM     11  C   LIG    1        5.574   3.506   3.509  0.00  0.00    +0.040 A 
ATOM     12  C   LIG    1        4.956   3.215   4.729  0.00  0.00    +0.050 A 
ATOM     13  C   LIG    1        5.607   3.498   5.911  0.00  0.00    +0.000 A 
ATOM     14  C   LIG    1        6.864   4.078   5.892  0.00  0.00    +0.050 A 
ATOM     15  C   LIG    1        7.479   4.373   4.689  0.00  0.00    +0.010 A 
ATOM     16  C   LIG    1        6.844   4.091   3.498  0.00  0.00    +0.090 A 
ENDBRANCH  10  11
ENDBRANCH   3   9
BRANCH   6  17
ATOM     17  C   LIG    1        1.179   1.536  -2.489  0.00  0.00    +0.340 C 
ATOM     18  N   LIG    1       -0.013   0.986  -2.486  0.00  0.00    -0.340 NA
BRANCH  18  19
ATOM     19  N   LIG    1       -0.606   0.724  -3.601  0.00  0.00    -0.290 NA
ATOM     20  C   LIG    1       -1.794   0.175  -3.598  0.00  0.00    +0.240 C 
ATOM     21  C   LIG    1       -2.623  -0.189  -4.818  0.00  0.00    +0.120 C 
ATOM     22  C   LIG    1       -3.889  -0.787  -4.163  0.00  0.00    +0.140 C 
ATOM     23  N   LIG    1       -3.609  -0.671  -2.724  0.00  0.00    -0.090 NA
ATOM     24  N   LIG    1       -2.512  -0.167  -2.515  0.00  0.00    -0.170 NA
BRANCH  22  25
ATOM     25  C   LIG    1       -5.109   0.017  -4.534  0.00  0.00    -0.070 A 
ATOM     26  C   LIG    1       -5.334   1.245  -3.940  0.00  0.00    +0.020 A 
ATOM     27  C   LIG    1       -6.450   1.984  -4.283  0.00  0.00    +0.020 A 
ATOM     28  C   LIG    1       -7.346   1.492  -5.214  0.00  0.00    +0.020 A 
ATOM     29  C   LIG    1       -7.123   0.263  -5.805  0.00  0.00    +0.010 A 
ATOM     30  C   LIG    1       -6.005  -0.475  -5.464  0.00  0.00    +0.030 A 
ENDBRANCH  22  25
ENDBRANCH  18  19
ENDBRANCH   6  17
TORSDOF 6
