REMARK  Name = ZINCqH0000037wOi.0
REMARK                            x       y       z     vdW  Elec       q    Type
REMARK                         _______ _______ _______ _____ _____    ______ ____
ROOT
ATOM      1  C   LIG    1       -1.771   0.546  -1.708  0.00  0.00    +0.040 C 
ATOM      2  C   LIG    1       -0.821   1.627  -1.190  0.00  0.00    +0.170 C 
ATOM      3  C   LIG    1       -0.013   1.086   0.008  0.00  0.00    +0.030 C 
ATOM      4  C   LIG    1       -0.802   1.617   1.234  0.00  0.00    +0.040 C 
ATOM      5  C   LIG    1       -1.283   2.998   0.716  0.00  0.00    +0.250 C 
ATOM      6  N   LIG    1       -1.592   2.783  -0.710  0.00  0.00    -0.610 N 
ATOM      7  C   LIG    1       -2.442   3.523  -1.449  0.00  0.00    +0.530 C 
ATOM      8  O   LIG    1       -2.621   3.253  -2.618  0.00  0.00    -0.520 OA
ENDROOT
BRANCH   2   9
ATOM      9  C   LIG    1        0.132   2.061  -2.306  0.00  0.00    +0.070 C 
BRANCH   9  10
ATOM     10  C   LIG    1        0.927   0.872  -2.778  0.00  0.00    -0.090 A 
ATOM     11  C   LIG    1        2.139   0.572  -2.184  0.00  0.00    +0.060 A 
ATOM     12  C   LIG    1        2.868  -0.521  -2.611  0.00  0.00    -0.060 A 
ATOM     13  C   LIG    1        2.388  -1.312  -3.645  0.00  0.00    +0.100 A 
ATOM     14  C   LIG    1        1.175  -1.006  -4.244  0.00  0.00    +0.020 A 
ATOM     15  C   LIG    1        0.447   0.085  -3.809  0.00  0.00    +0.070 A 
BRANCH  13  16
ATOM     16  O   LIG    1        3.106  -2.385  -4.071  0.00  0.00    -0.310 OA
BRANCH  16  17
ATOM     17  C   LIG    1        4.346  -2.640  -3.408  0.00  0.00    +0.600 C 
ATOM     18  F   LIG    1        5.192  -1.536  -3.562  0.00  0.00    -0.160 F 
ATOM     19  F   LIG    1        4.949  -3.772  -3.967  0.00  0.00    -0.130 F 
ATOM     20  F   LIG    1        4.111  -2.861  -2.047  0.00  0.00    -0.160 F 
ENDBRANCH  16  17
ENDBRANCH  13  16
ENDBRANCH   9  10
ENDBRANCH   2   9
BRANCH   7  21
ATOM     21  C   LIG    1       -3.170   4.685  -0.824  0.00  0.00    +0.160 C 
BRANCH  21  22
ATOM     22  C   LIG    1       -4.051   5.340  -1.857  0.00  0.00    +0.020 A 
ATOM     23  N   LIG    1       -3.682   5.801  -3.017  0.00  0.00    -0.340 NA
ATOM     24  O   LIG    1       -4.615   6.270  -3.626  0.00  0.00    +0.110 OA
ATOM     25  C   LIG    1       -5.756   6.179  -2.928  0.00  0.00    +0.160 A 
ATOM     26  C   LIG    1       -5.442   5.570  -1.759  0.00  0.00    -0.060 A 
ENDBRANCH  21  22
ENDBRANCH   7  21
TORSDOF 6
