REMARK  Name = ZINCpe000000YC8g.0
REMARK                            x       y       z     vdW  Elec       q    Type
REMARK                         _______ _______ _______ _____ _____    ______ ____
ROOT
ATOM      1  C   LIG    1        3.799   8.453  -1.433  0.00  0.00    +0.060 C 
ENDROOT
BRANCH   1   7
ATOM      2  C   LIG    1        6.634  10.497  -4.663  0.00  0.00    -0.020 C 
ATOM      3  C   LIG    1        7.195  11.438  -3.595  0.00  0.00    +0.030 C 
ATOM      4  C   LIG    1        6.920  10.858  -2.206  0.00  0.00    +0.030 C 
ATOM      5  C   LIG    1        5.407  10.738  -1.997  0.00  0.00    +0.270 C 
ATOM      6  N   LIG    1        4.838   9.954  -3.102  0.00  0.00    -0.610 N 
ATOM      7  C   LIG    1        4.076   8.870  -2.854  0.00  0.00    +0.520 C 
ATOM      8  O   LIG    1        3.612   8.232  -3.775  0.00  0.00    -0.530 OA
ATOM      9  C   LIG    1        5.122  10.369  -4.483  0.00  0.00    +0.310 C 
BRANCH   2  13
ATOM     10  N   LIG    1        8.210  11.253  -6.413  0.00  0.00    -0.850 N 
ATOM     11  H   LIG    1        8.403  11.611  -7.293  0.00  0.00    +0.400 HD
ATOM     12  H   LIG    1        8.937  11.039  -5.806  0.00  0.00    +0.400 HD
ATOM     13  C   LIG    1        6.933  11.053  -6.031  0.00  0.00    +0.520 C 
ATOM     14  O   LIG    1        6.025  11.321  -6.789  0.00  0.00    -0.540 OA
ENDBRANCH   2  13
ENDBRANCH   1   7
BRANCH   1  15
ATOM     15  C   LIG    1        2.916   7.204  -1.431  0.00  0.00    +0.060 C 
BRANCH  15  16
ATOM     16  C   LIG    1        2.635   6.780   0.012  0.00  0.00    +0.370 C 
BRANCH  16  17
ATOM     17  N   LIG    1        1.789   5.584   0.014  0.00  0.00    -0.140 N 
ATOM     18  N   LIG    1        0.502   5.582   0.026  0.00  0.00    -0.050 NA
ATOM     19  N   LIG    1        0.085   4.361   0.018  0.00  0.00    -0.270 NA
ATOM     20  C   LIG    1        1.168   3.571   0.010  0.00  0.00    +0.210 A 
ATOM     21  N   LIG    1        2.217   4.368   0.004  0.00  0.00    -0.300 NA
BRANCH  20  22
ATOM     22  C   LIG    1        1.182   2.086   0.002  0.00  0.00    -0.020 A 
ATOM     23  C   LIG    1       -0.017   1.376   0.010  0.00  0.00    +0.060 A 
ATOM     24  C   LIG    1        0.002  -0.004   0.002  0.00  0.00    +0.010 A 
ATOM     25  C   LIG    1        1.208  -0.682  -0.013  0.00  0.00    +0.030 A 
ATOM     26  C   LIG    1        2.400   0.019  -0.021  0.00  0.00    +0.010 A 
ATOM     27  C   LIG    1        2.393   1.399  -0.013  0.00  0.00    +0.050 A 
ENDBRANCH  20  22
ENDBRANCH  16  17
ENDBRANCH  15  16
ENDBRANCH   1  15
TORSDOF 6
