REMARK  Name = ZINCpk00000KfKi1.0
REMARK                            x       y       z     vdW  Elec       q    Type
REMARK                         _______ _______ _______ _____ _____    ______ ____
ROOT
ATOM      1  C   LIG    1        1.310   3.341   0.724  0.00  0.00    +0.520 C 
ATOM      2  N   LIG    1        2.444   4.070   0.739  0.00  0.00    -0.600 N 
ATOM      3  C   LIG    1        2.478   5.279   1.533  0.00  0.00    +0.280 C 
ATOM      4  C   LIG    1        2.034   6.482   0.663  0.00  0.00    +0.040 C 
ATOM      5  C   LIG    1        3.066   6.770  -0.352  0.00  0.00    +0.200 C 
ATOM      6  N   LIG    1        3.300   5.681  -1.300  0.00  0.00    -0.460 N 
ATOM      7  C   LIG    1        4.294   4.763  -0.786  0.00  0.00    +0.200 C 
ATOM      8  C   LIG    1        3.599   3.596  -0.051  0.00  0.00    +0.280 C 
ATOM      9  O   LIG    1        0.321   3.746   1.296  0.00  0.00    -0.510 OA
ENDROOT
BRANCH   6  10
ATOM     10  C   LIG    1        3.675   6.176  -2.544  0.00  0.00    +0.260 A 
ATOM     11  C   LIG    1        3.952   5.299  -3.592  0.00  0.00    +0.010 A 
ATOM     12  C   LIG    1        4.316   5.842  -4.814  0.00  0.00    +0.060 A 
ATOM     13  C   LIG    1        4.393   7.224  -4.917  0.00  0.00    +0.180 A 
ATOM     14  N   LIG    1        4.118   7.979  -3.871  0.00  0.00    -0.220 NA
ATOM     15  N   LIG    1        3.776   7.483  -2.738  0.00  0.00    -0.280 NA
ENDBRANCH   6  10
BRANCH   1  17
ATOM     16  C   LIG    1        1.278   2.274  -1.515  0.00  0.00    +0.050 C 
ATOM     17  C   LIG    1        1.272   2.023  -0.005  0.00  0.00    +0.150 C 
BRANCH  17  18
ATOM     18  O   LIG    1        0.085   1.313   0.355  0.00  0.00    -0.350 OA
BRANCH  18  19
ATOM     19  C   LIG    1        0.223  -0.108   0.315  0.00  0.00    +0.190 C 
BRANCH  19  20
ATOM     20  C   LIG    1       -1.101  -0.761   0.717  0.00  0.00    +0.160 C 
ATOM     21  C   LIG    1       -0.920  -2.279   0.794  0.00  0.00    +0.000 C 
ATOM     22  C   LIG    1       -2.264  -2.929   1.137  0.00  0.00    +0.020 C 
ATOM     23  C   LIG    1       -3.300  -2.520   0.086  0.00  0.00    -0.020 C 
ATOM     24  C   LIG    1       -3.389  -0.992   0.037  0.00  0.00    +0.200 C 
ATOM     25  O   LIG    1       -2.100  -0.450  -0.257  0.00  0.00    -0.370 OA
ENDBRANCH  19  20
ENDBRANCH  18  19
ENDBRANCH  17  18
ENDBRANCH   1  17
TORSDOF 5
