REMARK  Name = ZINCrg00000IY9aj.0
REMARK                            x       y       z     vdW  Elec       q    Type
REMARK                         _______ _______ _______ _____ _____    ______ ____
ROOT
ATOM      1  S   LIG    1       -2.764   4.013  -0.008  0.00  0.00    +2.710 S 
ATOM      2  O   LIG    1       -2.501   5.298   0.538  0.00  0.00    -0.940 OA
ATOM      3  O   LIG    1       -3.734   3.124   0.528  0.00  0.00    -0.940 OA
ENDROOT
BRANCH   1   7
ATOM      4  C   LIG    1        1.175   1.778   0.025  0.00  0.00    +0.330 A 
ATOM      5  C   LIG    1       -0.024   1.076   0.015  0.00  0.00    -0.050 A 
ATOM      6  C   LIG    1       -1.223   1.760  -0.000  0.00  0.00    +0.220 A 
ATOM      7  C   LIG    1       -1.232   3.143   0.005  0.00  0.00    -0.740 A 
ATOM      8  C   LIG    1       -0.040   3.845   0.015  0.00  0.00    +0.260 A 
ATOM      9  C   LIG    1        1.163   3.167   0.025  0.00  0.00    -0.140 A 
BRANCH   4  10
ATOM     10  N   LIG    1        2.389   1.088   0.035  0.00  0.00    -0.840 N 
ATOM     11  H   LIG    1        3.187   1.516   0.386  0.00  0.00    +0.420 HD
ATOM     12  H   LIG    1        2.436   0.182  -0.308  0.00  0.00    +0.410 HD
ENDBRANCH   4  10
BRANCH   9  13
ATOM     13  N   LIG    1        2.437   3.919   0.035  0.00  0.00    +0.040 N 
ATOM     14  O   LIG    1        3.495   3.325  -0.070  0.00  0.00    -0.180 OA
ATOM     15  O   LIG    1        2.428   5.132   0.149  0.00  0.00    -0.150 OA
ENDBRANCH   9  13
ENDBRANCH   1   7
BRANCH   1  16
ATOM     16  N   LIG    1       -3.177   4.254  -1.593  0.00  0.00    -1.110 NA
ATOM     17  H   LIG    1       -3.218   5.155  -1.952  0.00  0.00    +0.430 HD
BRANCH  16  18
ATOM     18  C   LIG    1       -3.481   3.108  -2.454  0.00  0.00    +0.360 C 
BRANCH  18  19
ATOM     19  C   LIG    1       -4.170   3.588  -3.705  0.00  0.00    +0.460 C 
ATOM     20  O   LIG    1       -4.386   4.767  -3.862  0.00  0.00    -0.490 OA
BRANCH  19  21
ATOM     21  O   LIG    1       -4.545   2.707  -4.646  0.00  0.00    -0.350 OA
BRANCH  21  22
ATOM     22  C   LIG    1       -5.204   3.240  -5.824  0.00  0.00    +0.260 C 
BRANCH  22  23
ATOM     23  C   LIG    1       -5.553   2.094  -6.776  0.00  0.00    +0.230 C 
BRANCH  23  24
ATOM     24  O   LIG    1       -6.517   1.239  -6.158  0.00  0.00    -0.310 OA
BRANCH  24  25
ATOM     25  C   LIG    1       -6.938   0.164  -6.875  0.00  0.00    +0.130 A 
ATOM     26  C   LIG    1       -6.437  -0.060  -8.150  0.00  0.00    -0.080 A 
ATOM     27  C   LIG    1       -6.863  -1.156  -8.875  0.00  0.00    +0.050 A 
ATOM     28  C   LIG    1       -7.794  -2.024  -8.335  0.00  0.00    -0.040 A 
ATOM     29  C   LIG    1       -8.299  -1.800  -7.067  0.00  0.00    +0.050 A 
ATOM     30  C   LIG    1       -7.873  -0.708  -6.337  0.00  0.00    -0.020 A 
ENDBRANCH  24  25
ENDBRANCH  23  24
ENDBRANCH  22  23
ENDBRANCH  21  22
ENDBRANCH  19  21
ENDBRANCH  18  19
ENDBRANCH  16  18
ENDBRANCH   1  16
TORSDOF 11
