REMARK  Name = ZINCrD000000Az25.0
REMARK                            x       y       z     vdW  Elec       q    Type
REMARK                         _______ _______ _______ _____ _____    ______ ____
ROOT
ATOM      1  O   LIG    1       -0.170  -3.980  -2.353  0.00  0.00    -0.490 OA
ATOM      2  C   LIG    1       -0.071  -4.773  -1.440  0.00  0.00    +0.520 C 
ATOM      3  N   LIG    1       -0.076  -6.097  -1.693  0.00  0.00    -0.650 N 
ATOM      4  H   LIG    1        0.003  -6.731  -0.963  0.00  0.00    +0.410 HD
ENDROOT
BRANCH   3   5
ATOM      5  C   LIG    1       -0.197  -6.555  -3.005  0.00  0.00    +0.310 A 
ATOM      6  C   LIG    1       -0.322  -5.783  -4.119  0.00  0.00    -0.110 A 
ATOM      7  C   LIG    1       -0.411  -6.635  -5.223  0.00  0.00    +0.250 A 
ATOM      8  N   LIG    1       -0.352  -7.870  -4.795  0.00  0.00    -0.290 NA
ATOM      9  N   LIG    1       -0.217  -7.848  -3.401  0.00  0.00    -0.390 N 
BRANCH   9  10
ATOM     10  C   LIG    1       -0.115  -9.019  -2.526  0.00  0.00    +0.430 C 
BRANCH  10  11
ATOM     11  C   LIG    1       -1.494  -9.441  -2.088  0.00  0.00    -0.220 A 
ATOM     12  C   LIG    1       -2.276 -10.307  -2.736  0.00  0.00    +0.050 A 
ATOM     13  C   LIG    1       -3.503 -10.543  -2.141  0.00  0.00    +0.010 A 
ATOM     14  C   LIG    1       -3.722  -9.862  -1.015  0.00  0.00    -0.020 A 
ATOM     15  S   LIG    1       -2.323  -8.861  -0.649  0.00  0.00    +0.100 S 
ENDBRANCH  10  11
ENDBRANCH   9  10
ENDBRANCH   3   5
BRANCH   2  16
ATOM     16  C   LIG    1        0.060  -4.277  -0.023  0.00  0.00    +0.130 C 
BRANCH  16  17
ATOM     17  C   LIG    1        0.040  -2.771  -0.014  0.00  0.00    -0.100 A 
ATOM     18  C   LIG    1       -1.162  -2.098   0.106  0.00  0.00    +0.060 A 
ATOM     19  C   LIG    1       -1.185  -0.717   0.114  0.00  0.00    -0.030 A 
ATOM     20  C   LIG    1        0.002  -0.004   0.002  0.00  0.00    +0.170 A 
ATOM     21  C   LIG    1        1.207  -0.683  -0.124  0.00  0.00    +0.000 A 
ATOM     22  C   LIG    1        1.223  -2.064  -0.126  0.00  0.00    +0.060 A 
BRANCH  20  23
ATOM     23  N   LIG    1       -0.017   1.395   0.010  0.00  0.00    -0.560 N 
ATOM     24  C   LIG    1       -1.240   2.207   0.009  0.00  0.00    +0.260 C 
ATOM     25  C   LIG    1       -0.794   3.623  -0.417  0.00  0.00    +0.060 C 
ATOM     26  C   LIG    1        0.691   3.630   0.015  0.00  0.00    +0.070 C 
ATOM     27  C   LIG    1        1.082   2.168   0.025  0.00  0.00    +0.520 C 
ATOM     28  O   LIG    1        2.223   1.755   0.041  0.00  0.00    -0.510 OA
ENDBRANCH  20  23
ENDBRANCH  16  17
ENDBRANCH   2  16
TORSDOF 6
