REMARK  Name = ZINCrD00000l0yOU.0
REMARK                            x       y       z     vdW  Elec       q    Type
REMARK                         _______ _______ _______ _____ _____    ______ ____
ROOT
ATOM      1  O   LIG    1       -1.125   4.683  -1.082  0.00  0.00    -0.490 OA
ATOM      2  C   LIG    1       -0.412   3.847  -0.559  0.00  0.00    +0.590 C 
ATOM      3  N   LIG    1        0.749   4.216   0.017  0.00  0.00    -0.670 N 
ATOM      4  H   LIG    1        1.284   3.562   0.492  0.00  0.00    +0.410 HD
ENDROOT
BRANCH   2   5
ATOM      5  C   LIG    1       -0.819   2.434  -0.554  0.00  0.00    +0.010 A 
ATOM      6  C   LIG    1       -1.961   1.942  -1.100  0.00  0.00    +0.070 A 
ATOM      7  C   LIG    1       -1.975   0.542  -0.883  0.00  0.00    -0.110 A 
ATOM      8  C   LIG    1       -2.881  -0.473  -1.217  0.00  0.00    +0.060 A 
ATOM      9  C   LIG    1       -2.608  -1.776  -0.859  0.00  0.00    +0.080 A 
ATOM     10  C   LIG    1       -1.438  -2.087  -0.170  0.00  0.00    +0.040 A 
ATOM     11  C   LIG    1       -0.539  -1.099   0.165  0.00  0.00    +0.010 A 
ATOM     12  C   LIG    1       -0.794   0.223  -0.186  0.00  0.00    +0.110 A 
ATOM     13  N   LIG    1       -0.100   1.396   0.005  0.00  0.00    -0.580 N 
ATOM     14  H   LIG    1        0.752   1.481   0.462  0.00  0.00    +0.420 HD
BRANCH   9  15
ATOM     15  O   LIG    1       -3.486  -2.764  -1.181  0.00  0.00    -0.500 OA
ATOM     16  H   LIG    1       -3.320  -3.172  -2.042  0.00  0.00    +0.390 HD
ENDBRANCH   9  15
ENDBRANCH   2   5
BRANCH   3  17
ATOM     17  C   LIG    1        1.182   5.543  -0.070  0.00  0.00    +0.150 A 
ATOM     18  C   LIG    1        2.538   5.827  -0.172  0.00  0.00    -0.020 A 
ATOM     19  C   LIG    1        2.962   7.138  -0.264  0.00  0.00    +0.050 A 
ATOM     20  C   LIG    1        2.039   8.168  -0.244  0.00  0.00    -0.130 A 
ATOM     21  C   LIG    1        0.689   7.889  -0.137  0.00  0.00    +0.070 A 
ATOM     22  C   LIG    1        0.258   6.580  -0.050  0.00  0.00    +0.020 A 
BRANCH  20  23
ATOM     23  C   LIG    1        2.506   9.598  -0.339  0.00  0.00    +0.340 C 
BRANCH  23  24
ATOM     24  N   LIG    1        2.755  10.120   1.007  0.00  0.00    -0.490 N 
ATOM     25  C   LIG    1        3.987   9.990   1.561  0.00  0.00    +0.290 A 
ATOM     26  C   LIG    1        4.240  10.465   2.803  0.00  0.00    -0.080 A 
ATOM     27  C   LIG    1        3.224  11.099   3.531  0.00  0.00    +0.110 A 
ATOM     28  C   LIG    1        1.986  11.229   2.973  0.00  0.00    -0.090 A 
ATOM     29  C   LIG    1        1.759  10.729   1.679  0.00  0.00    +0.510 A 
ATOM     30  O   LIG    1        0.657  10.844   1.165  0.00  0.00    -0.550 OA
ENDBRANCH  23  24
ENDBRANCH  20  23
ENDBRANCH   3  17
TORSDOF 5
