REMARK  Name = ZINCrD0000070You.0
REMARK                            x       y       z     vdW  Elec       q    Type
REMARK                         _______ _______ _______ _____ _____    ______ ____
ROOT
ATOM      1  C   LIG    1       -1.440   7.539  -2.683  0.00  0.00    +0.190 C 
ATOM      2  C   LIG    1       -2.661   7.447  -1.765  0.00  0.00    +0.060 C 
ENDROOT
BRANCH   1   3
ATOM      3  C   LIG    1       -0.210   7.109  -1.927  0.00  0.00    +0.520 C 
ATOM      4  N   LIG    1       -0.093   5.837  -1.498  0.00  0.00    -0.720 N 
ATOM      5  H   LIG    1       -0.800   5.198  -1.675  0.00  0.00    +0.400 HD
ATOM      6  O   LIG    1        0.675   7.908  -1.706  0.00  0.00    -0.510 OA
BRANCH   4   7
ATOM      7  C   LIG    1        1.104   5.420  -0.763  0.00  0.00    +0.290 C 
ATOM      8  C   LIG    1        0.932   5.750   0.721  0.00  0.00    +0.040 C 
BRANCH   7   9
ATOM      9  C   LIG    1        1.302   3.935  -0.927  0.00  0.00    -0.110 A 
ATOM     10  C   LIG    1        2.573   3.423  -1.105  0.00  0.00    +0.060 A 
ATOM     11  C   LIG    1        2.756   2.061  -1.256  0.00  0.00    -0.010 A 
ATOM     12  C   LIG    1        1.664   1.210  -1.229  0.00  0.00    +0.100 A 
ATOM     13  C   LIG    1        0.390   1.724  -1.055  0.00  0.00    -0.010 A 
ATOM     14  F   LIG    1        1.841  -0.122  -1.376  0.00  0.00    -0.140 F 
ATOM     15  C   LIG    1        0.211   3.085  -0.899  0.00  0.00    +0.040 A 
ENDBRANCH   7   9
ENDBRANCH   4   7
ENDBRANCH   1   3
BRANCH   1  16
ATOM     16  O   LIG    1       -1.277   8.909  -3.136  0.00  0.00    -0.330 OA
BRANCH  16  17
ATOM     17  C   LIG    1       -1.906   9.256  -4.277  0.00  0.00    +0.540 C 
ATOM     18  O   LIG    1       -2.573   8.435  -4.878  0.00  0.00    -0.490 OA
BRANCH  17  23
ATOM     19  C   LIG    1       -1.991  12.459  -6.050  0.00  0.00    -0.260 A 
ATOM     20  C   LIG    1       -1.183  12.752  -4.962  0.00  0.00    +0.120 A 
ATOM     21  N   LIG    1       -1.069  11.646  -4.211  0.00  0.00    -0.510 N 
ATOM     22  H   LIG    1       -0.560  11.577  -3.388  0.00  0.00    +0.430 HD
ATOM     23  C   LIG    1       -1.786  10.623  -4.795  0.00  0.00    -0.050 A 
ATOM     24  C   LIG    1       -0.546  14.086  -4.669  0.00  0.00    +0.160 C 
ATOM     25  C   LIG    1       -2.368  11.100  -5.931  0.00  0.00    -0.020 A 
ATOM     26  C   LIG    1       -3.246  10.327  -6.881  0.00  0.00    +0.140 C 
BRANCH  19  28
ATOM     27  C   LIG    1       -3.609  14.240  -6.965  0.00  0.00    +0.060 C 
ATOM     28  C   LIG    1       -2.380  13.382  -7.120  0.00  0.00    +0.440 C 
ATOM     29  O   LIG    1       -1.713  13.456  -8.131  0.00  0.00    -0.450 OA
ENDBRANCH  19  28
ENDBRANCH  17  23
ENDBRANCH  16  17
ENDBRANCH   1  16
TORSDOF 7
