REMARK  Name = ZINCrg000000tj79.0
REMARK                            x       y       z     vdW  Elec       q    Type
REMARK                         _______ _______ _______ _____ _____    ______ ____
ROOT
ATOM      1  N   LIG    1       -4.170   1.475   4.598  0.00  0.00    -0.640 NA
ATOM      2  H   LIG    1       -3.675   2.338   4.428  0.00  0.00    +0.370 HD
ENDROOT
BRANCH   1   3
ATOM      3  C   LIG    1       -5.059   1.149   3.474  0.00  0.00    +0.300 C 
BRANCH   3   8
ATOM      4  O   LIG    1       -4.724   0.500  -1.166  0.00  0.00    -0.530 OA
ATOM      5  C   LIG    1       -4.175   0.756  -0.108  0.00  0.00    +0.530 A 
ATOM      6  N   LIG    1       -4.883   0.811   1.040  0.00  0.00    -0.630 N 
ATOM      7  H   LIG    1       -5.839   0.646   1.030  0.00  0.00    +0.420 HD
ATOM      8  C   LIG    1       -4.257   1.096   2.199  0.00  0.00    +0.400 A 
ATOM      9  N   LIG    1       -2.974   1.326   2.242  0.00  0.00    -0.510 NA
ATOM     10  C   LIG    1       -2.215   1.292   1.139  0.00  0.00    +0.190 A 
ATOM     11  C   LIG    1       -0.737   1.583   1.260  0.00  0.00    +0.100 C 
ATOM     12  C   LIG    1       -0.013   1.086   0.008  0.00  0.00    +0.230 C 
ATOM     13  O   LIG    1       -0.713   1.564  -1.146  0.00  0.00    -0.370 OA
ATOM     14  C   LIG    1       -1.983   0.938  -1.329  0.00  0.00    +0.310 C 
ATOM     15  C   LIG    1       -2.785   1.003  -0.059  0.00  0.00    -0.300 A 
ENDBRANCH   3   8
ENDBRANCH   1   3
BRANCH   1  16
ATOM     16  C   LIG    1       -4.918   1.536   5.861  0.00  0.00    +0.200 C 
BRANCH  16  17
ATOM     17  C   LIG    1       -4.189   2.427   6.833  0.00  0.00    -0.120 A 
ATOM     18  C   LIG    1       -2.810   2.375   6.918  0.00  0.00    +0.090 A 
ATOM     19  C   LIG    1       -2.141   3.196   7.806  0.00  0.00    -0.010 A 
ATOM     20  C   LIG    1       -2.852   4.063   8.618  0.00  0.00    +0.110 A 
ATOM     21  C   LIG    1       -4.234   4.110   8.536  0.00  0.00    -0.010 A 
ATOM     22  F   LIG    1       -2.199   4.862   9.490  0.00  0.00    -0.140 F 
ATOM     23  C   LIG    1       -4.901   3.292   7.644  0.00  0.00    +0.050 A 
ENDBRANCH  16  17
BRANCH  16  24
ATOM     24  C   LIG    1       -5.037   0.150   6.441  0.00  0.00    +0.520 C 
ATOM     25  N   LIG    1       -5.688  -0.038   7.606  0.00  0.00    -0.700 N 
ATOM     26  H   LIG    1       -6.080   0.718   8.071  0.00  0.00    +0.400 HD
ATOM     27  O   LIG    1       -4.547  -0.795   5.860  0.00  0.00    -0.510 OA
BRANCH  25  28
ATOM     28  C   LIG    1       -5.804  -1.385   8.170  0.00  0.00    +0.220 C 
ATOM     29  C   LIG    1       -7.164  -1.799   8.736  0.00  0.00    +0.010 C 
ATOM     30  C   LIG    1       -5.999  -1.503   9.683  0.00  0.00    +0.010 C 
ENDBRANCH  25  28
ENDBRANCH  16  24
ENDBRANCH   1  16
TORSDOF 6
