REMARK  Name = ZINCrH000004pHoQ.0
REMARK                            x       y       z     vdW  Elec       q    Type
REMARK                         _______ _______ _______ _____ _____    ______ ____
ROOT
ATOM      1  C   LIG    1        0.232  -2.146  -1.246  0.00  0.00    +0.070 C 
ATOM      2  C   LIG    1        0.523  -0.644  -1.276  0.00  0.00    +0.030 C 
ATOM      3  C   LIG    1        0.002  -0.004   0.002  0.00  0.00    +0.020 C 
ATOM      4  C   LIG    1       -0.018   1.501   0.010  0.00  0.00    +0.300 C 
ATOM      5  N   LIG    1        1.345   2.054   0.000  0.00  0.00    -0.570 N 
ATOM      6  C   LIG    1        1.949   2.311  -1.238  0.00  0.00    +0.160 A 
ATOM      7  C   LIG    1        2.046   3.621  -1.694  0.00  0.00    +0.010 A 
ATOM      8  C   LIG    1        2.545   3.871  -2.959  0.00  0.00    +0.040 A 
ATOM      9  C   LIG    1        2.952   2.833  -3.776  0.00  0.00    +0.010 A 
ATOM     10  C   LIG    1        2.879   1.526  -3.321  0.00  0.00    +0.080 A 
ATOM     11  C   LIG    1        2.389   1.279  -2.053  0.00  0.00    -0.100 A 
ATOM     12  C   LIG    1        1.997   2.306   1.153  0.00  0.00    +0.530 C 
ATOM     13  O   LIG    1        1.460   2.077   2.216  0.00  0.00    -0.510 OA
ATOM     14  S   LIG    1        2.314  -0.381  -1.423  0.00  0.00    -0.150 S 
ENDROOT
BRANCH  12  15
ATOM     15  C   LIG    1        3.393   2.872   1.121  0.00  0.00    +0.210 C 
BRANCH  15  16
ATOM     16  N   LIG    1        3.879   3.055   2.495  0.00  0.00    -0.520 NA
ATOM     17  C   LIG    1        3.102   4.088   3.195  0.00  0.00    +0.180 C 
ATOM     18  C   LIG    1        3.586   4.192   4.643  0.00  0.00    +0.180 C 
ATOM     19  N   LIG    1        5.019   4.516   4.656  0.00  0.00    -0.540 NA
ATOM     20  C   LIG    1        5.796   3.483   3.956  0.00  0.00    +0.190 C 
ATOM     21  C   LIG    1        5.312   3.379   2.508  0.00  0.00    +0.180 C 
BRANCH  19  22
ATOM     22  C   LIG    1        5.505   4.698   6.030  0.00  0.00    +0.240 C 
BRANCH  22  23
ATOM     23  C   LIG    1        4.544   5.575   6.791  0.00  0.00    -0.110 A 
ATOM     24  C   LIG    1        4.663   6.903   6.833  0.00  0.00    -0.020 A 
ATOM     25  S   LIG    1        3.365   7.580   7.808  0.00  0.00    +0.090 S 
ATOM     26  C   LIG    1        2.720   5.974   8.120  0.00  0.00    -0.050 A 
ATOM     27  C   LIG    1        3.473   5.062   7.503  0.00  0.00    +0.010 A 
ENDBRANCH  22  23
ENDBRANCH  19  22
ENDBRANCH  15  16
ENDBRANCH  12  15
TORSDOF 4
