REMARK  Name = ZINCrD0000074sq1.0
REMARK                            x       y       z     vdW  Elec       q    Type
REMARK                         _______ _______ _______ _____ _____    ______ ____
ROOT
ATOM      1  C   LIG    1        4.805   1.380  -0.036  0.00  0.00    +0.510 C 
ATOM      2  O   LIG    1        4.980   0.178  -0.044  0.00  0.00    -0.500 OA
ENDROOT
BRANCH   1   6
ATOM      3  C   LIG    1        8.137   4.013  -0.054  0.00  0.00    +0.200 A 
ATOM      4  C   LIG    1        8.340   2.637  -0.063  0.00  0.00    +0.010 A 
ATOM      5  C   LIG    1        7.262   1.780  -0.058  0.00  0.00    +0.120 A 
ATOM      6  C   LIG    1        5.962   2.295  -0.043  0.00  0.00    -0.130 A 
ATOM      7  C   LIG    1        5.762   3.678  -0.039  0.00  0.00    +0.120 A 
ATOM      8  C   LIG    1        6.845   4.529  -0.039  0.00  0.00    -0.010 A 
BRANCH   3  15
ATOM      9  C   LIG    1        8.202   6.728  -1.493  0.00  0.00    +0.160 C 
ATOM     10  C   LIG    1        9.298   6.084  -0.684  0.00  0.00    +0.090 A 
ATOM     11  C   LIG    1       10.525   6.603  -0.447  0.00  0.00    -0.100 A 
ATOM     12  C   LIG    1       11.234   5.691   0.344  0.00  0.00    +0.090 A 
ATOM     13  N   LIG    1       10.460   4.663   0.581  0.00  0.00    -0.290 NA
ATOM     14  C   LIG    1       12.644   5.868   0.845  0.00  0.00    +0.160 C 
ATOM     15  N   LIG    1        9.234   4.879  -0.060  0.00  0.00    -0.340 N 
ENDBRANCH   3  15
ENDBRANCH   1   6
BRANCH   1  16
ATOM     16  O   LIG    1        3.553   1.878  -0.022  0.00  0.00    -0.330 OA
BRANCH  16  17
ATOM     17  C   LIG    1        2.462   0.920  -0.017  0.00  0.00    +0.250 C 
BRANCH  17  18
ATOM     18  C   LIG    1        1.147   1.655   0.000  0.00  0.00    +0.520 C 
ATOM     19  N   LIG    1       -0.011   0.966   0.007  0.00  0.00    -0.720 N 
ATOM     20  H   LIG    1        0.002  -0.004   0.002  0.00  0.00    +0.400 HD
ATOM     21  O   LIG    1        1.130   2.868   0.007  0.00  0.00    -0.510 OA
BRANCH  19  22
ATOM     22  C   LIG    1       -1.290   1.681   0.017  0.00  0.00    +0.240 C 
ATOM     23  C   LIG    1       -1.667   2.032   1.458  0.00  0.00    +0.010 C 
ATOM     24  C   LIG    1       -1.794   0.747   2.279  0.00  0.00    +0.010 C 
ATOM     25  C   LIG    1       -2.881  -0.141   1.670  0.00  0.00    -0.020 C 
ATOM     26  C   LIG    1       -2.504  -0.492   0.229  0.00  0.00    +0.010 C 
ATOM     27  C   LIG    1       -3.008  -1.426   2.491  0.00  0.00    +0.020 C 
ATOM     28  C   LIG    1       -2.376   0.792  -0.592  0.00  0.00    +0.020 C 
ENDBRANCH  19  22
ENDBRANCH  17  18
ENDBRANCH  16  17
ENDBRANCH   1  16
TORSDOF 6
