REMARK  Name = ZINCqH0000035ooF.0
REMARK                            x       y       z     vdW  Elec       q    Type
REMARK                         _______ _______ _______ _____ _____    ______ ____
ROOT
ATOM      1  C   LIG    1       -5.178  -8.249  -0.732  0.00  0.00    +0.360 C 
ENDROOT
BRANCH   1   2
ATOM      2  C   LIG    1       -6.478  -8.577  -1.419  0.00  0.00    -0.070 A 
ATOM      3  C   LIG    1       -7.624  -7.872  -1.101  0.00  0.00    +0.040 A 
ATOM      4  C   LIG    1       -8.817  -8.167  -1.734  0.00  0.00    +0.060 A 
ATOM      5  C   LIG    1       -8.867  -9.177  -2.679  0.00  0.00    -0.030 A 
ATOM      6  C   LIG    1       -7.720  -9.887  -2.993  0.00  0.00    -0.030 A 
ATOM      7 CL   LIG    1       -7.781 -11.154  -4.178  0.00  0.00    -0.040 Cl
ATOM      8 CL   LIG    1      -10.365  -9.552  -3.470  0.00  0.00    -0.040 Cl
ATOM      9  C   LIG    1       -6.526  -9.586  -2.362  0.00  0.00    +0.070 A 
ENDBRANCH   1   2
BRANCH   1  13
ATOM     10  N   LIG    1       -3.716  -4.896  -0.360  0.00  0.00    -0.750 N 
ATOM     11  H   LIG    1       -4.510  -4.340  -0.341  0.00  0.00    +0.390 HD
ATOM     12  C   LIG    1       -3.832  -6.233  -0.489  0.00  0.00    +0.710 C 
ATOM     13  N   LIG    1       -5.052  -6.796  -0.591  0.00  0.00    -0.740 N 
ATOM     14  H   LIG    1       -5.846  -6.240  -0.572  0.00  0.00    +0.400 HD
ATOM     15  O   LIG    1       -2.836  -6.930  -0.513  0.00  0.00    -0.580 OA
BRANCH  10  16
ATOM     16  C   LIG    1       -2.390  -4.283  -0.249  0.00  0.00    +0.290 C 
BRANCH  16  17
ATOM     17  C   LIG    1       -2.539  -2.767  -0.114  0.00  0.00    +0.000 C 
BRANCH  17  18
ATOM     18  C   LIG    1       -1.154  -2.126   0.002  0.00  0.00    +0.220 C 
BRANCH  18  19
ATOM     19  O   LIG    1       -0.531  -2.555   1.214  0.00  0.00    -0.550 OA
ATOM     20  H   LIG    1       -1.022  -2.319   2.013  0.00  0.00    +0.370 HD
ENDBRANCH  18  19
BRANCH  18  21
ATOM     21  C   LIG    1       -1.295  -0.603   0.011  0.00  0.00    +0.140 C 
BRANCH  21  23
ATOM     22  C   LIG    1       -0.017   1.425   0.010  0.00  0.00    +0.200 C 
ATOM     23  O   LIG    1        0.002  -0.004   0.002  0.00  0.00    -0.380 OA
ENDBRANCH  21  23
ENDBRANCH  18  21
ENDBRANCH  17  18
ENDBRANCH  16  17
ENDBRANCH  10  16
ENDBRANCH   1  13
BRANCH   1  24
ATOM     24  C   LIG    1       -5.155  -8.889   0.632  0.00  0.00    -0.090 A 
ATOM     25  C   LIG    1       -5.817  -8.291   1.688  0.00  0.00    +0.020 A 
ATOM     26  C   LIG    1       -5.800  -8.880   2.938  0.00  0.00    +0.000 A 
ATOM     27  C   LIG    1       -5.113 -10.064   3.135  0.00  0.00    +0.000 A 
ATOM     28  C   LIG    1       -4.447 -10.660   2.081  0.00  0.00    +0.000 A 
ATOM     29  C   LIG    1       -4.467 -10.072   0.829  0.00  0.00    +0.020 A 
ENDBRANCH   1  24
TORSDOF 9
