REMARK  Name = ZINCpe000000SyKT.0
REMARK                            x       y       z     vdW  Elec       q    Type
REMARK                         _______ _______ _______ _____ _____    ______ ____
ROOT
ATOM      1  N   LIG    1       -1.544   9.165   1.730  0.00  0.00    -0.720 N 
ATOM      2  H   LIG    1       -1.601   9.797   0.997  0.00  0.00    +0.400 HD
ATOM      3  C   LIG    1       -1.442   7.846   1.476  0.00  0.00    +0.500 C 
ATOM      4  O   LIG    1       -1.371   7.055   2.394  0.00  0.00    -0.520 OA
ENDROOT
BRANCH   1  10
ATOM      5  C   LIG    1       -4.436  12.193   6.341  0.00  0.00    +0.090 C 
ATOM      6  C   LIG    1       -3.062  12.408   5.762  0.00  0.00    +0.510 C 
ATOM      7  N   LIG    1       -2.405  11.383   5.183  0.00  0.00    -0.620 N 
ATOM      8  C   LIG    1       -1.065  11.578   4.614  0.00  0.00    +0.280 C 
ATOM      9  C   LIG    1       -1.070  11.091   3.162  0.00  0.00    +0.030 C 
ATOM     10  C   LIG    1       -1.569   9.645   3.114  0.00  0.00    +0.240 C 
ATOM     11  C   LIG    1       -3.001   9.580   3.651  0.00  0.00    +0.010 C 
ATOM     12  C   LIG    1       -3.017  10.049   5.109  0.00  0.00    +0.270 C 
ATOM     13  O   LIG    1       -2.546  13.505   5.816  0.00  0.00    -0.540 OA
ENDBRANCH   1  10
BRANCH   3  14
ATOM     14  C   LIG    1       -1.416   7.352   0.053  0.00  0.00    +0.340 C 
BRANCH  14  15
ATOM     15  N   LIG    1       -1.301   5.891   0.044  0.00  0.00    -0.530 N 
ATOM     16  C   LIG    1       -2.425   5.128   0.051  0.00  0.00    +0.580 A 
ATOM     17  N   LIG    1       -2.406   3.829   0.045  0.00  0.00    -0.510 NA
ATOM     18  C   LIG    1       -1.240   3.135   0.031  0.00  0.00    +0.150 A 
ATOM     19  C   LIG    1       -1.219   1.739   0.017  0.00  0.00    -0.070 A 
ATOM     20  C   LIG    1       -0.013   1.076   0.008  0.00  0.00    +0.060 A 
ATOM     21  C   LIG    1        1.185   1.778   0.000  0.00  0.00    +0.010 A 
ATOM     22  C   LIG    1        1.190   3.156   0.007  0.00  0.00    +0.090 A 
ATOM     23  C   LIG    1       -2.510   0.963   0.019  0.00  0.00    +0.110 C 
ATOM     24  C   LIG    1       -0.020   3.846   0.022  0.00  0.00    -0.190 A 
ATOM     25  C   LIG    1       -0.076   5.316   0.030  0.00  0.00    +0.560 A 
ATOM     26  O   LIG    1        0.938   5.988   0.024  0.00  0.00    -0.510 OA
ENDBRANCH  14  15
ENDBRANCH   3  14
TORSDOF 3
