REMARK  Name = ZINCqH0000005noX.0
REMARK                            x       y       z     vdW  Elec       q    Type
REMARK                         _______ _______ _______ _____ _____    ______ ____
ROOT
ATOM      1  C   LIG    1        5.496   4.031   2.669  0.00  0.00    +0.190 C 
ATOM      2  N   LIG    1        5.113   3.607   1.316  0.00  0.00    -0.540 NA
ATOM      3  C   LIG    1        4.873   4.768   0.448  0.00  0.00    +0.170 C 
ATOM      4  C   LIG    1        4.655   4.290  -0.991  0.00  0.00    +0.270 C 
ATOM      5  N   LIG    1        3.584   3.282  -0.991  0.00  0.00    -0.620 N 
ATOM      6  C   LIG    1        3.687   2.158  -0.049  0.00  0.00    +0.300 C 
ATOM      7  C   LIG    1        2.537   3.386  -1.833  0.00  0.00    +0.700 C 
ATOM      8  N   LIG    1        2.510   4.366  -2.757  0.00  0.00    -0.670 N 
ATOM      9  H   LIG    1        3.276   4.952  -2.866  0.00  0.00    +0.410 HD
ATOM     10  O   LIG    1        1.616   2.596  -1.758  0.00  0.00    -0.540 OA
ATOM     11  C   LIG    1        3.943   2.720   1.354  0.00  0.00    +0.180 C 
ENDROOT
BRANCH   8  12
ATOM     12  C   LIG    1        1.379   4.539  -3.560  0.00  0.00    +0.190 A 
ATOM     13  C   LIG    1        0.636   3.449  -3.955  0.00  0.00    +0.040 A 
ATOM     14  C   LIG    1       -0.495   3.608  -4.752  0.00  0.00    +0.040 A 
ATOM     15  C   LIG    1       -0.892   4.842  -5.168  0.00  0.00    +0.010 A 
ATOM     16  C   LIG    1       -0.158   5.978  -4.789  0.00  0.00    -0.080 A 
ATOM     17  C   LIG    1       -0.541   7.268  -5.202  0.00  0.00    +0.080 A 
ATOM     18  C   LIG    1        0.220   8.327  -4.797  0.00  0.00    -0.030 A 
ATOM     19  C   LIG    1        1.340   8.113  -3.998  0.00  0.00    +0.290 A 
ATOM     20  N   LIG    1        1.694   6.910  -3.615  0.00  0.00    -0.480 NA
ATOM     21  C   LIG    1        0.993   5.832  -3.976  0.00  0.00    +0.110 A 
ENDBRANCH   8  12
BRANCH   6  22
ATOM     22  C   LIG    1        2.399   1.375  -0.053  0.00  0.00    -0.060 A 
ATOM     23  C   LIG    1        1.232   1.961   0.400  0.00  0.00    +0.050 A 
ATOM     24  C   LIG    1        0.051   1.243   0.397  0.00  0.00    -0.010 A 
ATOM     25  C   LIG    1        0.037  -0.062  -0.059  0.00  0.00    -0.010 A 
ATOM     26  C   LIG    1        1.204  -0.649  -0.511  0.00  0.00    +0.000 A 
ATOM     27  C   LIG    1        2.385   0.070  -0.507  0.00  0.00    +0.000 A 
ENDBRANCH   6  22
TORSDOF 2
