REMARK  Name = ZINCpk00000SC70I.1
REMARK                            x       y       z     vdW  Elec       q    Type
REMARK                         _______ _______ _______ _____ _____    ______ ____
ROOT
ATOM      1  N   LIG    1        3.340   1.955   3.463  0.00  0.00    -0.720 N 
ATOM      2  H   LIG    1        3.847   1.770   2.657  0.00  0.00    +0.400 HD
ATOM      3  C   LIG    1        2.007   1.756   3.482  0.00  0.00    +0.710 C 
ATOM      4  N   LIG    1        1.393   1.207   2.415  0.00  0.00    -0.650 N 
ATOM      5  C   LIG    1        2.136   0.922   1.178  0.00  0.00    +0.320 C 
ATOM      6  C   LIG    1        1.362   1.517  -0.002  0.00  0.00    +0.260 C 
ATOM      7  N   LIG    1       -0.015   1.007   0.009  0.00  0.00    -0.380 N 
ATOM      8  C   LIG    1       -0.712   1.473   1.215  0.00  0.00    +0.250 C 
ATOM      9  H   LIG    1        0.002  -0.002   0.001  0.00  0.00    +0.420 HD
ATOM     10  C   LIG    1       -0.040   0.876   2.455  0.00  0.00    +0.340 C 
ATOM     11  O   LIG    1        1.359   2.073   4.460  0.00  0.00    -0.570 OA
ENDROOT
BRANCH   1  13
ATOM     12  C   LIG    1        3.945   3.977   4.698  0.00  0.00    +0.050 C 
ATOM     13  C   LIG    1        4.024   2.450   4.660  0.00  0.00    +0.380 C 
BRANCH  13  14
ATOM     14  C   LIG    1        5.469   2.023   4.627  0.00  0.00    +0.170 A 
ATOM     15  N   LIG    1        6.258   1.866   5.670  0.00  0.00    -0.630 NA
ATOM     16  C   LIG    1        7.446   1.481   5.175  0.00  0.00    +0.480 A 
ATOM     17  O   LIG    1        7.313   1.424   3.842  0.00  0.00    -0.070 OA
ATOM     18  O   LIG    1        8.452   1.231   5.816  0.00  0.00    -0.580 OA
ATOM     19  N   LIG    1        6.179   1.729   3.534  0.00  0.00    -0.490 NA
ENDBRANCH  13  14
ENDBRANCH   1  13
BRANCH   7  20
ATOM     20  C   LIG    1       -0.725   1.492  -1.181  0.00  0.00    +0.250 C 
BRANCH  20  21
ATOM     21  C   LIG    1       -0.080   0.901  -2.437  0.00  0.00    +0.100 C 
BRANCH  21  22
ATOM     22  C   LIG    1       -0.809   1.399  -3.658  0.00  0.00    -0.110 A 
ATOM     23  C   LIG    1       -1.881   0.687  -4.162  0.00  0.00    +0.010 A 
ATOM     24  C   LIG    1       -2.553   1.146  -5.279  0.00  0.00    +0.010 A 
ATOM     25  C   LIG    1       -2.145   2.312  -5.899  0.00  0.00    +0.020 A 
ATOM     26  C   LIG    1       -1.070   3.022  -5.399  0.00  0.00    +0.020 A 
ATOM     27  C   LIG    1       -0.402   2.566  -4.278  0.00  0.00    +0.010 A 
ENDBRANCH  21  22
ENDBRANCH  20  21
ENDBRANCH   7  20
TORSDOF 5
