REMARK  Name = ZINCvU0000000DX8.0
REMARK                            x       y       z     vdW  Elec       q    Type
REMARK                         _______ _______ _______ _____ _____    ______ ____
ROOT
ATOM      1  N   LIG    1       -2.685  -1.542  -5.769  0.00  0.00    -0.670 N 
ATOM      2  H   LIG    1       -3.606  -1.236  -5.745  0.00  0.00    +0.410 HD
ATOM      3  C   LIG    1       -2.226  -2.210  -6.845  0.00  0.00    +0.490 C 
ATOM      4  O   LIG    1       -1.055  -2.522  -6.912  0.00  0.00    -0.500 OA
ENDROOT
BRANCH   1   8
ATOM      5  C   LIG    1       -0.150  -0.785  -2.545  0.00  0.00    +0.210 A 
ATOM      6  C   LIG    1       -1.494  -1.054  -2.323  0.00  0.00    -0.050 A 
ATOM      7  C   LIG    1       -2.334  -1.299  -3.391  0.00  0.00    +0.030 A 
ATOM      8  C   LIG    1       -1.833  -1.287  -4.686  0.00  0.00    +0.080 A 
ATOM      9  C   LIG    1       -0.488  -1.023  -4.908  0.00  0.00    +0.060 A 
ATOM     10  C   LIG    1        0.351  -0.773  -3.841  0.00  0.00    -0.050 A 
BRANCH   5  11
ATOM     11  N   LIG    1        0.701  -0.532  -1.464  0.00  0.00    -0.620 N 
BRANCH  11  12
ATOM     12  C   LIG    1        2.092  -0.138  -1.702  0.00  0.00    +0.230 C 
ATOM     13  C   LIG    1        3.027  -1.095  -0.962  0.00  0.00    +0.020 C 
ATOM     14  C   LIG    1        2.312   1.288  -1.192  0.00  0.00    +0.010 C 
ENDBRANCH  11  12
BRANCH  11  16
ATOM     15  C   LIG    1       -0.368   0.681   0.371  0.00  0.00    +0.000 C 
ATOM     16  C   LIG    1        0.201  -0.661  -0.093  0.00  0.00    +0.270 C 
ENDBRANCH  11  16
ENDBRANCH   5  11
ENDBRANCH   1   8
BRANCH   3  17
ATOM     17  C   LIG    1       -3.166  -2.572  -7.966  0.00  0.00    +0.330 C 
BRANCH  17  18
ATOM     18  N   LIG    1       -2.429  -3.289  -9.010  0.00  0.00    -0.520 N 
ATOM     19  C   LIG    1       -1.841  -2.588 -10.047  0.00  0.00    +0.220 A 
ATOM     20  C   LIG    1       -2.320  -1.347 -10.440  0.00  0.00    -0.050 A 
ATOM     21  C   LIG    1       -1.702  -0.667 -11.469  0.00  0.00    +0.080 A 
ATOM     22  C   LIG    1       -0.601  -1.207 -12.117  0.00  0.00    -0.030 A 
ATOM     23  C   LIG    1       -0.106  -2.438 -11.742  0.00  0.00    +0.110 A 
ATOM     24  C   LIG    1       -0.721  -3.136 -10.706  0.00  0.00    -0.200 A 
ATOM     25  C   LIG    1       -0.236  -4.463 -10.268  0.00  0.00    +0.440 A 
ATOM     26  C   LIG    1       -1.232  -5.307  -9.574  0.00  0.00    -0.200 A 
ATOM     27  C   LIG    1       -1.109  -6.693  -9.523  0.00  0.00    +0.110 A 
ATOM     28  C   LIG    1       -2.072  -7.435  -8.873  0.00  0.00    -0.030 A 
ATOM     29  C   LIG    1       -3.155  -6.808  -8.274  0.00  0.00    +0.080 A 
ATOM     30  C   LIG    1       -3.288  -5.436  -8.313  0.00  0.00    -0.050 A 
ATOM     31  O   LIG    1        0.906  -4.835 -10.464  0.00  0.00    -0.450 OA
ATOM     32  C   LIG    1       -2.328  -4.668  -8.960  0.00  0.00    +0.220 A 
ENDBRANCH  17  18
ENDBRANCH   3  17
TORSDOF 6
