REMARK  Name = ZINCrH000004jY9c.0
REMARK                            x       y       z     vdW  Elec       q    Type
REMARK                         _______ _______ _______ _____ _____    ______ ____
ROOT
ATOM      1  C   LIG    1       -4.710   1.767   5.802  0.00  0.00    +0.280 C 
ATOM      2  N   LIG    1       -5.384   3.058   5.645  0.00  0.00    -0.610 N 
ATOM      3  C   LIG    1       -5.123   3.829   4.571  0.00  0.00    +0.560 C 
ATOM      4  O   LIG    1       -5.614   4.937   4.485  0.00  0.00    -0.530 OA
ENDROOT
BRANCH   3   5
ATOM      5  C   LIG    1       -4.239   3.326   3.498  0.00  0.00    -0.120 A 
ATOM      6  C   LIG    1       -3.102   2.582   3.817  0.00  0.00    +0.040 A 
ATOM      7  C   LIG    1       -2.281   2.116   2.811  0.00  0.00    +0.040 A 
ATOM      8  C   LIG    1       -2.583   2.385   1.488  0.00  0.00    -0.090 A 
ATOM      9  C   LIG    1       -3.705   3.127   1.165  0.00  0.00    +0.030 A 
ATOM     10  C   LIG    1       -4.537   3.594   2.161  0.00  0.00    +0.060 A 
BRANCH   8  11
ATOM     11  C   LIG    1       -1.681   1.872   0.394  0.00  0.00    +0.380 C 
BRANCH  11  12
ATOM     12  N   LIG    1       -2.132   0.544  -0.027  0.00  0.00    -0.380 N 
ATOM     13  C   LIG    1       -2.445   0.158  -1.276  0.00  0.00    +0.470 A 
ATOM     14  N   LIG    1       -2.795  -1.102  -1.236  0.00  0.00    -0.550 NA
ATOM     15  C   LIG    1       -2.723  -1.552   0.016  0.00  0.00    +0.420 A 
ATOM     16  N   LIG    1       -2.325  -0.579   0.794  0.00  0.00    -0.310 NA
ENDBRANCH  11  12
ENDBRANCH   8  11
ENDBRANCH   3   5
BRANCH   2  17
ATOM     17  C   LIG    1       -6.343   3.510   6.656  0.00  0.00    +0.340 C 
BRANCH  17  18
ATOM     18  C   LIG    1       -7.724   3.029   6.290  0.00  0.00    -0.100 A 
ATOM     19  C   LIG    1       -8.155   1.822   6.745  0.00  0.00    +0.040 A 
ATOM     20  C   LIG    1       -9.442   1.370   6.405  0.00  0.00    -0.050 A 
ATOM     21  C   LIG    1       -9.923   0.130   6.856  0.00  0.00    +0.020 A 
ATOM     22  C   LIG    1      -11.175  -0.275   6.508  0.00  0.00    +0.000 A 
ATOM     23  C   LIG    1      -11.990   0.523   5.708  0.00  0.00    +0.010 A 
ATOM     24  C   LIG    1      -11.558   1.731   5.252  0.00  0.00    +0.020 A 
ATOM     25  C   LIG    1      -10.272   2.182   5.592  0.00  0.00    -0.050 A 
ATOM     26  C   LIG    1       -9.791   3.424   5.141  0.00  0.00    +0.020 A 
ATOM     27  C   LIG    1       -8.541   3.831   5.494  0.00  0.00    +0.030 A 
ENDBRANCH  17  18
ENDBRANCH   2  17
TORSDOF 5
