REMARK  Name = ZINCrH000004vF51.0
REMARK                            x       y       z     vdW  Elec       q    Type
REMARK                         _______ _______ _______ _____ _____    ______ ____
ROOT
ATOM      1  O   LIG    1       -4.090  -0.753   3.210  0.00  0.00    -0.540 OA
ATOM      2  C   LIG    1       -4.765  -0.685   2.201  0.00  0.00    +0.600 C 
ATOM      3  N   LIG    1       -4.247  -0.152   1.077  0.00  0.00    -0.610 N 
ATOM      4  C   LIG    1       -4.991  -0.189  -0.192  0.00  0.00    +0.250 C 
ATOM      5  C   LIG    1       -4.065  -0.748  -1.278  0.00  0.00    +0.220 C 
ATOM      6  O   LIG    1       -2.842  -0.008  -1.281  0.00  0.00    -0.370 OA
ATOM      7  C   LIG    1       -2.096  -0.107  -0.066  0.00  0.00    +0.190 C 
ATOM      8  C   LIG    1       -2.920   0.484   1.083  0.00  0.00    +0.270 C 
ENDROOT
BRANCH   7   9
ATOM      9  C   LIG    1       -0.805   0.658  -0.205  0.00  0.00    -0.090 A 
ATOM     10  C   LIG    1        0.363   0.145   0.328  0.00  0.00    +0.010 A 
ATOM     11  C   LIG    1        1.548   0.845   0.196  0.00  0.00    +0.000 A 
ATOM     12  C   LIG    1        1.565   2.059  -0.464  0.00  0.00    +0.010 A 
ATOM     13  C   LIG    1        0.396   2.574  -0.992  0.00  0.00    +0.000 A 
ATOM     14  C   LIG    1       -0.789   1.875  -0.861  0.00  0.00    +0.040 A 
ENDBRANCH   7   9
BRANCH   2  15
ATOM     15  C   LIG    1       -6.151  -1.188   2.208  0.00  0.00    -0.290 A 
ATOM     16  C   LIG    1       -6.669  -2.154   3.047  0.00  0.00    +0.320 A 
ATOM     17  N   LIG    1       -7.962  -2.316   2.724  0.00  0.00    -0.350 N 
ATOM     18  N   LIG    1       -8.269  -1.446   1.672  0.00  0.00    -0.280 NA
ATOM     19  C   LIG    1       -7.200  -0.766   1.360  0.00  0.00    +0.260 A 
BRANCH  17  20
ATOM     20  C   LIG    1       -8.895  -3.245   3.366  0.00  0.00    +0.390 C 
BRANCH  20  21
ATOM     21  C   LIG    1      -10.103  -2.488   3.854  0.00  0.00    -0.110 A 
ATOM     22  C   LIG    1      -11.270  -2.499   3.115  0.00  0.00    +0.070 A 
ATOM     23  C   LIG    1      -12.379  -1.804   3.563  0.00  0.00    +0.010 A 
ATOM     24  C   LIG    1      -12.319  -1.099   4.750  0.00  0.00    +0.050 A 
ATOM     25  C   LIG    1      -11.152  -1.087   5.490  0.00  0.00    +0.030 A 
ATOM     26  C   LIG    1      -10.045  -1.787   5.046  0.00  0.00    -0.020 A 
ATOM     27 CL   LIG    1       -8.581  -1.780   5.979  0.00  0.00    -0.060 Cl
ENDBRANCH  20  21
ENDBRANCH  17  20
ENDBRANCH   2  15
TORSDOF 4
