REMARK  Name = ZINCqH00000098Bm.0
REMARK                            x       y       z     vdW  Elec       q    Type
REMARK                         _______ _______ _______ _____ _____    ______ ____
ROOT
ATOM      1  C   LIG    1        1.595   6.673   1.247  0.00  0.00    +0.200 C 
ENDROOT
BRANCH   1   4
ATOM      2  N   LIG    1        3.811   7.598   0.655  0.00  0.00    -0.730 N 
ATOM      3  H   LIG    1        3.427   8.486   0.738  0.00  0.00    +0.400 HD
ATOM      4  C   LIG    1        3.046   6.511   0.874  0.00  0.00    +0.520 C 
ATOM      5  O   LIG    1        3.525   5.401   0.770  0.00  0.00    -0.510 OA
BRANCH   2   7
ATOM      6  C   LIG    1        5.339   7.236  -1.220  0.00  0.00    +0.040 C 
ATOM      7  C   LIG    1        5.221   7.441   0.292  0.00  0.00    +0.290 C 
BRANCH   7   8
ATOM      8  C   LIG    1        5.984   8.678   0.691  0.00  0.00    -0.100 A 
ATOM      9  C   LIG    1        5.420   9.927   0.507  0.00  0.00    +0.040 A 
ATOM     10  C   LIG    1        6.117  11.061   0.877  0.00  0.00    -0.010 A 
ATOM     11  C   LIG    1        7.384  10.948   1.424  0.00  0.00    +0.100 A 
ATOM     12  C   LIG    1        7.949   9.697   1.603  0.00  0.00    -0.010 A 
ATOM     13  F   LIG    1        8.068  12.056   1.782  0.00  0.00    -0.140 F 
ATOM     14  C   LIG    1        7.249   8.563   1.236  0.00  0.00    +0.060 A 
ENDBRANCH   7   8
ENDBRANCH   2   7
ENDBRANCH   1   4
BRANCH   1  15
ATOM     15  N   LIG    1        0.986   5.348   1.430  0.00  0.00    -0.510 NA
BRANCH  15  16
ATOM     16  C   LIG    1       -0.354   5.462   2.022  0.00  0.00    +0.190 C 
BRANCH  16  17
ATOM     17  C   LIG    1       -0.229   5.864   3.493  0.00  0.00    +0.140 C 
ATOM     18  C   LIG    1       -1.630   5.981   4.125  0.00  0.00    +0.010 C 
ATOM     19  C   LIG    1       -1.602   4.972   5.298  0.00  0.00    +0.010 C 
ATOM     20  C   LIG    1       -0.081   4.804   5.546  0.00  0.00    +0.190 C 
ATOM     21  O   LIG    1        0.487   4.850   4.217  0.00  0.00    -0.350 OA
ENDBRANCH  16  17
ENDBRANCH  15  16
BRANCH  15  22
ATOM     22  C   LIG    1        0.939   4.611   0.161  0.00  0.00    +0.270 C 
BRANCH  22  23
ATOM     23  C   LIG    1        0.694   3.150   0.437  0.00  0.00    -0.160 A 
ATOM     24  C   LIG    1       -0.502   2.559   0.449  0.00  0.00    -0.020 A 
ATOM     25  C   LIG    1       -0.480   1.203   0.723  0.00  0.00    -0.010 A 
ATOM     26  C   LIG    1        0.733   0.693   0.943  0.00  0.00    -0.070 A 
ATOM     27  S   LIG    1        1.941   1.962   0.793  0.00  0.00    +0.150 S 
ENDBRANCH  22  23
ENDBRANCH  15  22
ENDBRANCH   1  15
TORSDOF 8
