REMARK  Name = ZINCqH0000003Ow3.0
REMARK                            x       y       z     vdW  Elec       q    Type
REMARK                         _______ _______ _______ _____ _____    ______ ____
ROOT
ATOM      1  S   LIG    1       -1.472   2.355   0.022  0.00  0.00    +0.070 S 
ENDROOT
BRANCH   1   8
ATOM      2  C   LIG    1        4.104  -0.520  -0.042  0.00  0.00    +0.130 A 
ATOM      3  C   LIG    1        3.349  -1.688  -0.040  0.00  0.00    -0.040 A 
ATOM      4  C   LIG    1        1.970  -1.627  -0.026  0.00  0.00    +0.060 A 
ATOM      5  C   LIG    1        1.333  -0.397  -0.013  0.00  0.00    +0.020 A 
ATOM      6  N   LIG    1        0.002  -0.004   0.002  0.00  0.00    -0.580 N 
ATOM      7  H   LIG    1       -0.771  -0.590   0.006  0.00  0.00    +0.430 HD
ATOM      8  C   LIG    1       -0.016   1.362   0.009  0.00  0.00    +0.260 A 
ATOM      9  N   LIG    1        1.210   1.824   0.000  0.00  0.00    -0.490 NA
ATOM     10  C   LIG    1        2.089   0.787  -0.014  0.00  0.00    +0.100 A 
ATOM     11  C   LIG    1        3.483   0.714  -0.029  0.00  0.00    +0.030 A 
BRANCH   2  12
ATOM     12  O   LIG    1        5.462  -0.594  -0.056  0.00  0.00    -0.310 OA
BRANCH  12  14
ATOM     13  C   LIG    1        7.566  -1.782  -0.085  0.00  0.00    +0.070 C 
ATOM     14  C   LIG    1        6.041  -1.901  -0.069  0.00  0.00    +0.170 C 
ENDBRANCH  12  14
ENDBRANCH   2  12
ENDBRANCH   1   8
BRANCH   1  15
ATOM     15  C   LIG    1       -0.728   4.004   0.027  0.00  0.00    +0.130 C 
ATOM     16  C   LIG    1        0.044   4.211   1.332  0.00  0.00    +0.100 C 
BRANCH  15  17
ATOM     17  C   LIG    1       -1.812   5.045  -0.085  0.00  0.00    +0.260 A 
ATOM     18  N   LIG    1       -2.938   5.065   0.577  0.00  0.00    -0.310 NA
ATOM     19  N   LIG    1       -3.639   6.090   0.247  0.00  0.00    -0.030 NA
ATOM     20  N   LIG    1       -3.017   6.788  -0.640  0.00  0.00    -0.070 NA
ATOM     21  N   LIG    1       -1.797   6.133  -0.885  0.00  0.00    -0.320 N 
BRANCH  21  22
ATOM     22  C   LIG    1       -0.783   6.525  -1.772  0.00  0.00    +0.110 A 
ATOM     23  C   LIG    1        0.548   6.301  -1.449  0.00  0.00    +0.020 A 
ATOM     24  C   LIG    1        1.544   6.682  -2.327  0.00  0.00    +0.050 A 
ATOM     25  C   LIG    1        1.216   7.297  -3.522  0.00  0.00    +0.040 A 
ATOM     26  C   LIG    1       -0.109   7.526  -3.844  0.00  0.00    +0.040 A 
ATOM     27  C   LIG    1       -1.109   7.142  -2.972  0.00  0.00    +0.050 A 
ENDBRANCH  21  22
ENDBRANCH  15  17
ENDBRANCH   1  15
TORSDOF 6
