REMARK  Name = ZINCqH0000003Ow3.1
REMARK                            x       y       z     vdW  Elec       q    Type
REMARK                         _______ _______ _______ _____ _____    ______ ____
ROOT
ATOM      1  S   LIG    1       -1.426  -1.036   0.010  0.00  0.00    +0.060 S 
ENDROOT
BRANCH   1   7
ATOM      2  C   LIG    1        3.285   3.136  -0.013  0.00  0.00    +0.150 A 
ATOM      3  C   LIG    1        4.069   1.988  -0.027  0.00  0.00    -0.060 A 
ATOM      4  C   LIG    1        3.482   0.742  -0.028  0.00  0.00    +0.120 A 
ATOM      5  C   LIG    1        2.090   0.630  -0.015  0.00  0.00    +0.020 A 
ATOM      6  N   LIG    1        1.240  -0.432  -0.012  0.00  0.00    -0.480 NA
ATOM      7  C   LIG    1        0.002  -0.004   0.002  0.00  0.00    +0.250 A 
ATOM      8  N   LIG    1       -0.017   1.363   0.009  0.00  0.00    -0.580 N 
ATOM      9  H   LIG    1       -0.805   1.927   0.017  0.00  0.00    +0.430 HD
ATOM     10  C   LIG    1        1.301   1.792  -0.001  0.00  0.00    +0.100 A 
ATOM     11  C   LIG    1        1.904   3.040   0.000  0.00  0.00    -0.030 A 
BRANCH   2  12
ATOM     12  O   LIG    1        3.877   4.361  -0.011  0.00  0.00    -0.310 OA
BRANCH  12  14
ATOM     13  C   LIG    1        5.787   5.842  -0.022  0.00  0.00    +0.070 C 
ATOM     14  C   LIG    1        5.306   4.390  -0.025  0.00  0.00    +0.170 C 
ENDBRANCH  12  14
ENDBRANCH   2  12
ENDBRANCH   1   7
BRANCH   1  15
ATOM     15  C   LIG    1       -0.637  -2.665  -0.006  0.00  0.00    +0.130 C 
ATOM     16  C   LIG    1        0.122  -2.851  -1.322  0.00  0.00    +0.100 C 
BRANCH  15  17
ATOM     17  C   LIG    1       -1.690  -3.735   0.121  0.00  0.00    +0.260 A 
ATOM     18  N   LIG    1       -2.825  -3.786  -0.525  0.00  0.00    -0.310 NA
ATOM     19  N   LIG    1       -3.494  -4.829  -0.185  0.00  0.00    -0.030 NA
ATOM     20  N   LIG    1       -2.840  -5.510   0.693  0.00  0.00    -0.070 NA
ATOM     21  N   LIG    1       -1.635  -4.822   0.921  0.00  0.00    -0.320 N 
BRANCH  21  22
ATOM     22  C   LIG    1       -0.598  -5.186   1.793  0.00  0.00    +0.120 A 
ATOM     23  C   LIG    1        0.722  -4.926   1.452  0.00  0.00    +0.020 A 
ATOM     24  C   LIG    1        1.740  -5.279   2.316  0.00  0.00    +0.040 A 
ATOM     25  C   LIG    1        1.446  -5.902   3.515  0.00  0.00    +0.040 A 
ATOM     26  C   LIG    1        0.132  -6.168   3.855  0.00  0.00    +0.040 A 
ATOM     27  C   LIG    1       -0.891  -5.811   2.998  0.00  0.00    +0.050 A 
ENDBRANCH  21  22
ENDBRANCH  15  17
ENDBRANCH   1  15
TORSDOF 6
