REMARK  Name = ZINCqH0000031sId.0
REMARK                            x       y       z     vdW  Elec       q    Type
REMARK                         _______ _______ _______ _____ _____    ______ ____
ROOT
ATOM      1  N   LIG    1        1.336   4.110   1.481  0.00  0.00    -0.470 N 
ATOM      2  C   LIG    1        1.273   3.452   0.158  0.00  0.00    +0.210 C 
ATOM      3  C   LIG    1        1.082   1.963   0.529  0.00  0.00    +0.040 C 
ATOM      4  C   LIG    1        1.696   1.880   1.912  0.00  0.00    -0.130 A 
ATOM      5  C   LIG    1        2.105   0.802   2.668  0.00  0.00    +0.040 A 
ATOM      6  C   LIG    1        2.648   1.003   3.925  0.00  0.00    -0.020 A 
ATOM      7  C   LIG    1        2.781   2.287   4.421  0.00  0.00    +0.040 A 
ATOM      8  C   LIG    1        2.371   3.369   3.669  0.00  0.00    -0.020 A 
ATOM      9  C   LIG    1        1.819   3.175   2.404  0.00  0.00    +0.100 A 
ENDROOT
BRANCH   1  10
ATOM     10  C   LIG    1        2.197   5.299   1.437  0.00  0.00    +0.240 C 
BRANCH  10  14
ATOM     11  C   LIG    1        0.443   8.233  -1.133  0.00  0.00    +0.010 A 
ATOM     12  C   LIG    1        0.054   8.151   0.205  0.00  0.00    +0.030 A 
ATOM     13  C   LIG    1        0.624   7.202   1.029  0.00  0.00    +0.040 A 
ATOM     14  C   LIG    1        1.579   6.333   0.531  0.00  0.00    -0.080 A 
ATOM     15  C   LIG    1        1.972   6.413  -0.793  0.00  0.00    +0.020 A 
ATOM     16  C   LIG    1        1.406   7.354  -1.628  0.00  0.00    +0.030 A 
BRANCH  11  18
ATOM     17  C   LIG    1       -0.625  10.023  -2.698  0.00  0.00    +0.060 C 
ATOM     18  C   LIG    1       -0.144   9.216  -1.993  0.00  0.00    -0.160 C 
ENDBRANCH  11  18
ENDBRANCH  10  14
ENDBRANCH   1  10
BRANCH   3  19
ATOM     19  C   LIG    1       -0.404   1.602   0.573  0.00  0.00    +0.020 C 
BRANCH  19  20
ATOM     20  C   LIG    1       -0.557   0.100   0.819  0.00  0.00    +0.290 C 
BRANCH  20  21
ATOM     21  N   LIG    1       -1.980  -0.246   0.862  0.00  0.00    -0.620 N 
ATOM     22  C   LIG    1       -2.772  -0.639  -0.310  0.00  0.00    +0.250 C 
ATOM     23  C   LIG    1       -4.248  -0.478   0.117  0.00  0.00    +0.040 C 
ATOM     24  C   LIG    1       -4.151  -0.642   1.652  0.00  0.00    +0.040 C 
ATOM     25  C   LIG    1       -2.727  -0.250   1.979  0.00  0.00    +0.510 C 
ATOM     26  O   LIG    1       -2.319   0.023   3.088  0.00  0.00    -0.530 OA
ENDBRANCH  20  21
ENDBRANCH  19  20
ENDBRANCH   3  19
TORSDOF 6
