REMARK  Name = ZINCkj000005h48i.0
REMARK                            x       y       z     vdW  Elec       q    Type
REMARK                         _______ _______ _______ _____ _____    ______ ____
ROOT
ATOM      1  C   LIG    1        1.466   1.376   2.501  0.00  0.00    +0.170 C 
ATOM      2  C   LIG    1        2.240   2.196   1.468  0.00  0.00    +0.150 C 
ATOM      3  C   LIG    1        3.721   2.047   1.705  0.00  0.00    -0.090 A 
ATOM      4  C   LIG    1        4.596   2.418   0.697  0.00  0.00    +0.040 A 
ATOM      5  C   LIG    1        5.960   2.301   0.880  0.00  0.00    +0.050 A 
ATOM      6  C   LIG    1        6.454   1.812   2.075  0.00  0.00    +0.040 A 
ATOM      7  C   LIG    1        5.582   1.441   3.079  0.00  0.00    +0.050 A 
ATOM      8  C   LIG    1        4.213   1.556   2.897  0.00  0.00    -0.140 A 
ATOM      9  C   LIG    1        3.299   1.136   4.017  0.00  0.00    +0.340 C 
ATOM     10  N   LIG    1        1.965   1.719   3.841  0.00  0.00    -0.490 N 
ATOM     11  H   LIG    1        1.339   1.348   4.540  0.00  0.00    +0.440 HD
ATOM     12  H   LIG    1        2.020   2.722   3.935  0.00  0.00    +0.440 HD
ENDROOT
BRANCH   1  15
ATOM     13  C   LIG    1       -2.155   1.558   1.276  0.00  0.00    +0.320 C 
ATOM     14  N   LIG    1       -0.754   1.158   1.432  0.00  0.00    -0.580 N 
ATOM     15  C   LIG    1       -0.003   1.702   2.409  0.00  0.00    +0.500 C 
ATOM     16  O   LIG    1       -0.508   2.455   3.215  0.00  0.00    -0.520 OA
BRANCH  14  17
ATOM     17  C   LIG    1       -0.171   0.166   0.525  0.00  0.00    +0.210 C 
ATOM     18  C   LIG    1       -0.368   0.619  -0.925  0.00  0.00    -0.000 C 
ATOM     19  C   LIG    1        0.174  -0.460  -1.866  0.00  0.00    +0.230 C 
ATOM     20  O   LIG    1       -0.493  -1.697  -1.605  0.00  0.00    -0.370 OA
ATOM     21  C   LIG    1       -0.305  -2.193  -0.279  0.00  0.00    +0.220 C 
ATOM     22  C   LIG    1       -0.866  -1.183   0.726  0.00  0.00    -0.000 C 
ENDBRANCH  14  17
ENDBRANCH   1  15
TORSDOF 2
