REMARK  Name = ZINCrg00000VE6LK.0
REMARK                            x       y       z     vdW  Elec       q    Type
REMARK                         _______ _______ _______ _____ _____    ______ ____
ROOT
ATOM      1  C   LIG    1        0.101  -1.400  -2.082  0.00  0.00    +0.520 C 
ATOM      2  N   LIG    1        0.377  -0.495  -1.121  0.00  0.00    -0.600 N 
ATOM      3  C   LIG    1       -0.503  -0.338   0.047  0.00  0.00    +0.240 C 
ATOM      4  C   LIG    1       -0.838   1.150   0.203  0.00  0.00    +0.240 C 
ATOM      5  O   LIG    1        0.375   1.906   0.216  0.00  0.00    -0.350 OA
ATOM      6  C   LIG    1        1.133   1.818  -0.993  0.00  0.00    +0.190 C 
ATOM      7  C   LIG    1        1.569   0.364  -1.210  0.00  0.00    +0.310 C 
ATOM      8  O   LIG    1        0.787  -1.452  -3.080  0.00  0.00    -0.500 OA
ENDROOT
BRANCH   1  14
ATOM      9  C   LIG    1       -0.654  -3.611  -1.083  0.00  0.00    -0.140 C 
ATOM     10  C   LIG    1        0.191  -4.397  -2.122  0.00  0.00    +0.060 C 
ATOM     11  C   LIG    1       -1.164  -4.401  -2.872  0.00  0.00    +0.070 C 
ATOM     12  O   LIG    1       -1.404  -2.992  -3.172  0.00  0.00    -0.310 OA
ATOM     13  C   LIG    1       -1.402  -5.409  -3.998  0.00  0.00    +0.130 C 
ATOM     14  C   LIG    1       -1.060  -2.345  -1.915  0.00  0.00    +0.200 C 
ATOM     15  C   LIG    1       -1.718  -4.716  -1.453  0.00  0.00    +0.100 C 
BRANCH   9  16
ATOM     16  C   LIG    1       -0.176  -3.424   0.334  0.00  0.00    +0.500 C 
ATOM     17  O   LIG    1       -0.838  -3.842   1.254  0.00  0.00    -0.490 OA
BRANCH  16  18
ATOM     18  O   LIG    1        0.984  -2.793   0.573  0.00  0.00    -0.350 OA
BRANCH  18  20
ATOM     19  C   LIG    1        2.770  -2.000   2.026  0.00  0.00    +0.070 C 
ATOM     20  C   LIG    1        1.441  -2.755   1.951  0.00  0.00    +0.200 C 
ENDBRANCH  18  20
ENDBRANCH  16  18
ENDBRANCH   9  16
ENDBRANCH   1  14
BRANCH   6  21
ATOM     21  C   LIG    1        2.352   2.698  -0.888  0.00  0.00    +0.470 C 
ATOM     22  O   LIG    1        2.598   3.269   0.148  0.00  0.00    -0.470 OA
BRANCH  21  23
ATOM     23  O   LIG    1        3.164   2.848  -1.946  0.00  0.00    -0.350 OA
BRANCH  23  24
ATOM     24  C   LIG    1        4.319   3.711  -1.773  0.00  0.00    +0.120 C 
ATOM     25  C   LIG    1        3.852   5.122  -1.411  0.00  0.00    +0.020 C 
ATOM     26  C   LIG    1        5.120   3.758  -3.076  0.00  0.00    +0.080 C 
ATOM     27  C   LIG    1        5.202   3.162  -0.651  0.00  0.00    +0.030 C 
ENDBRANCH  23  24
ENDBRANCH  21  23
ENDBRANCH   6  21
TORSDOF 7
