REMARK  Name = ZINCrD00000F5Lxu.0
REMARK                            x       y       z     vdW  Elec       q    Type
REMARK                         _______ _______ _______ _____ _____    ______ ____
ROOT
ATOM      1  C   LIG    1        5.539   4.152   2.364  0.00  0.00    +0.520 C 
ATOM      2  N   LIG    1        4.197   4.075   2.264  0.00  0.00    -0.730 N 
ATOM      3  H   LIG    1        3.692   4.831   1.926  0.00  0.00    +0.400 HD
ATOM      4  O   LIG    1        6.171   3.207   2.786  0.00  0.00    -0.510 OA
ENDROOT
BRANCH   1   5
ATOM      5  C   LIG    1        6.255   5.413   1.950  0.00  0.00    +0.220 C 
BRANCH   5   6
ATOM      6  O   LIG    1        7.660   5.249   2.148  0.00  0.00    -0.280 OA
BRANCH   6  10
ATOM      7  C   LIG    1       10.079   8.451   1.156  0.00  0.00    -0.050 A 
ATOM      8  C   LIG    1        8.696   8.538   0.989  0.00  0.00    +0.020 A 
ATOM      9  C   LIG    1        7.893   7.466   1.321  0.00  0.00    -0.030 A 
ATOM     10  C   LIG    1        8.456   6.302   1.821  0.00  0.00    +0.100 A 
ATOM     11  C   LIG    1        9.835   6.211   1.995  0.00  0.00    +0.110 A 
ATOM     12  C   LIG    1       10.646   7.279   1.659  0.00  0.00    -0.020 A 
BRANCH   7  15
ATOM     13  C   LIG    1       11.279  11.879  -0.041  0.00  0.00    +0.070 C 
ATOM     14  C   LIG    1       10.400  10.710   0.322  0.00  0.00    -0.030 C 
ATOM     15  C   LIG    1       10.941   9.598   0.800  0.00  0.00    -0.010 C 
ENDBRANCH   7  15
BRANCH  11  16
ATOM     16  O   LIG    1       10.385   5.070   2.490  0.00  0.00    -0.300 OA
ATOM     17  C   LIG    1       11.805   5.046   2.642  0.00  0.00    +0.240 C 
ENDBRANCH  11  16
ENDBRANCH   6  10
ENDBRANCH   5   6
ENDBRANCH   1   5
BRANCH   2  18
ATOM     18  C   LIG    1        3.502   2.850   2.666  0.00  0.00    +0.280 C 
BRANCH  18  19
ATOM     19  C   LIG    1        1.997   3.025   2.454  0.00  0.00    -0.040 C 
ATOM     20  C   LIG    1        1.473   4.114   3.392  0.00  0.00    +0.040 C 
BRANCH  19  21
ATOM     21  C   LIG    1        1.283   1.706   2.755  0.00  0.00    +0.340 C 
BRANCH  21  22
ATOM     22  N   LIG    1       -0.141   1.838   2.438  0.00  0.00    -0.370 N 
ATOM     23  N   LIG    1       -1.145   2.264   3.318  0.00  0.00    -0.290 NA
ATOM     24  C   LIG    1       -2.284   2.253   2.675  0.00  0.00    +0.070 A 
ATOM     25  C   LIG    1       -2.042   1.825   1.365  0.00  0.00    -0.120 A 
ATOM     26  C   LIG    1       -3.625   2.639   3.244  0.00  0.00    +0.160 C 
ATOM     27  C   LIG    1       -0.718   1.572   1.248  0.00  0.00    +0.080 A 
ATOM     28  C   LIG    1       -0.013   1.086   0.008  0.00  0.00    +0.150 C 
ENDBRANCH  21  22
ENDBRANCH  19  21
ENDBRANCH  18  19
ENDBRANCH   2  18
TORSDOF 9
