REMARK  Name = ZINCqH0000005nNP.1
REMARK                            x       y       z     vdW  Elec       q    Type
REMARK                         _______ _______ _______ _____ _____    ______ ____
ROOT
ATOM      1  C   LIG    1        1.792   8.304  -1.196  0.00  0.00    +0.090 A 
ATOM      2  C   LIG    1        1.751   9.674  -0.984  0.00  0.00    +0.010 A 
ATOM      3  C   LIG    1        0.839  10.208  -0.092  0.00  0.00    +0.060 A 
ATOM      4  C   LIG    1       -0.035   9.381   0.587  0.00  0.00    -0.160 A 
ATOM      5  C   LIG    1       -0.004   8.014   0.379  0.00  0.00    +0.080 A 
ATOM      6  C   LIG    1        0.906   7.470  -0.513  0.00  0.00    +0.180 A 
ENDROOT
BRANCH   1  11
ATOM      7  C   LIG    1        5.843   7.284  -4.896  0.00  0.00    +0.190 C 
ATOM      8  N   LIG    1        4.871   7.854  -3.953  0.00  0.00    -0.550 NA
ATOM      9  C   LIG    1        3.494   7.624  -4.411  0.00  0.00    +0.180 C 
ATOM     10  C   LIG    1        2.518   8.300  -3.446  0.00  0.00    +0.190 C 
ATOM     11  N   LIG    1        2.717   7.761  -2.094  0.00  0.00    -0.510 N 
ATOM     12  C   LIG    1        4.094   7.991  -1.635  0.00  0.00    +0.190 C 
ATOM     13  C   LIG    1        5.071   7.315  -2.600  0.00  0.00    +0.180 C 
ENDBRANCH   1  11
BRANCH   4  14
ATOM     14  C   LIG    1       -1.026   9.970   1.558  0.00  0.00    +0.510 C 
ATOM     15  F   LIG    1       -2.174   9.171   1.596  0.00  0.00    -0.170 F 
ATOM     16  F   LIG    1       -1.370  11.262   1.146  0.00  0.00    -0.180 F 
ATOM     17  F   LIG    1       -0.453  10.025   2.833  0.00  0.00    -0.170 F 
ENDBRANCH   4  14
BRANCH   6  18
ATOM     18  N   LIG    1        0.941   6.085  -0.726  0.00  0.00    -0.660 N 
ATOM     19  H   LIG    1        1.285   5.730  -1.560  0.00  0.00    +0.420 HD
ATOM     20  C   LIG    1        0.494   5.246   0.230  0.00  0.00    +0.520 C 
ATOM     21  O   LIG    1        0.157   5.681   1.311  0.00  0.00    -0.510 OA
BRANCH  20  22
ATOM     22  C   LIG    1        0.414   3.766  -0.044  0.00  0.00    +0.010 C 
ATOM     23  C   LIG    1        1.807   3.229  -0.382  0.00  0.00    +0.080 C 
ATOM     24  C   LIG    1        1.792   1.729  -0.402  0.00  0.00    -0.050 C 
ATOM     25  C   LIG    1        0.860   1.006   0.132  0.00  0.00    -0.040 C 
ATOM     26  C   LIG    1       -0.343   1.567   0.832  0.00  0.00    +0.070 C 
ATOM     27  C   LIG    1       -0.099   3.033   1.202  0.00  0.00    +0.050 C 
ENDBRANCH  20  22
ENDBRANCH   6  18
TORSDOF 4
