REMARK  Name = ZINCrH000004jn6X.0
REMARK                            x       y       z     vdW  Elec       q    Type
REMARK                         _______ _______ _______ _____ _____    ______ ____
ROOT
ATOM      1  C   LIG    1        2.225  -3.502  -1.458  0.00  0.00    +0.440 C 
ATOM      2  O   LIG    1        1.692  -2.913  -2.369  0.00  0.00    -0.490 OA
ENDROOT
BRANCH   1   3
ATOM      3  C   LIG    1        1.904  -3.135  -0.033  0.00  0.00    +0.420 C 
BRANCH   3   6
ATOM      4  N   LIG    1       -0.998  -0.974   0.006  0.00  0.00    -0.540 N 
ATOM      5  C   LIG    1       -0.413  -2.186  -0.006  0.00  0.00    +0.690 A 
ATOM      6  N   LIG    1        0.926  -2.044  -0.018  0.00  0.00    -0.530 N 
ATOM      7  C   LIG    1        1.222  -0.683  -0.013  0.00  0.00    +0.090 A 
ATOM      8  C   LIG    1        2.410   0.032  -0.021  0.00  0.00    +0.030 A 
ATOM      9  C   LIG    1        2.381   1.413  -0.014  0.00  0.00    +0.020 A 
ATOM     10  C   LIG    1        1.172   2.086   0.002  0.00  0.00    +0.020 A 
ATOM     11  C   LIG    1       -0.017   1.382   0.010  0.00  0.00    +0.030 A 
ATOM     12  O   LIG    1       -1.004  -3.250  -0.006  0.00  0.00    -0.550 OA
ATOM     13  C   LIG    1        0.002  -0.004   0.002  0.00  0.00    +0.100 A 
BRANCH   4  15
ATOM     14  C   LIG    1       -2.956  -0.621  -1.416  0.00  0.00    +0.030 C 
ATOM     15  C   LIG    1       -2.440  -0.718   0.021  0.00  0.00    +0.320 C 
ENDBRANCH   4  15
ENDBRANCH   3   6
ENDBRANCH   1   3
BRANCH   1  16
ATOM     16  O   LIG    1        3.104  -4.483  -1.717  0.00  0.00    -0.360 OA
BRANCH  16  17
ATOM     17  C   LIG    1        3.365  -4.783  -3.113  0.00  0.00    +0.220 C 
BRANCH  17  18
ATOM     18  C   LIG    1        4.384  -5.920  -3.209  0.00  0.00    +0.090 C 
BRANCH  18  19
ATOM     19  C   LIG    1        4.655  -6.231  -4.658  0.00  0.00    -0.110 C 
ATOM     20  C   LIG    1        5.673  -5.696  -5.292  0.00  0.00    -0.040 C 
ATOM     21  C   LIG    1        5.905  -6.028  -6.746  0.00  0.00    +0.080 C 
ATOM     22  C   LIG    1        4.870  -7.060  -7.213  0.00  0.00    -0.030 C 
ATOM     23  C   LIG    1        4.657  -8.193  -6.194  0.00  0.00    +0.030 C 
ATOM     24  C   LIG    1        3.442  -6.613  -6.839  0.00  0.00    -0.080 C 
ATOM     25  C   LIG    1        2.341  -7.374  -7.580  0.00  0.00    +0.050 C 
ATOM     26  C   LIG    1        3.242  -5.096  -6.863  0.00  0.00    +0.030 C 
ATOM     27  C   LIG    1        3.766  -7.181  -5.441  0.00  0.00    +0.020 C 
ENDBRANCH  18  19
ENDBRANCH  17  18
ENDBRANCH  16  17
ENDBRANCH   1  16
TORSDOF 7
