REMARK  Name = ZINCvU0000000AKb.0
REMARK                            x       y       z     vdW  Elec       q    Type
REMARK                         _______ _______ _______ _____ _____    ______ ____
ROOT
ATOM      1  N   LIG    1       -0.258  -0.095   3.123  0.00  0.00    -0.480 N 
ATOM      2  C   LIG    1        0.619  -0.188   4.185  0.00  0.00    +0.050 A 
ATOM      3  C   LIG    1        0.839  -1.135   5.177  0.00  0.00    +0.010 A 
ATOM      4  C   LIG    1        1.818  -0.917   6.123  0.00  0.00    +0.030 A 
ATOM      5  C   LIG    1        2.584   0.240   6.090  0.00  0.00    +0.000 A 
ATOM      6  C   LIG    1        2.381   1.182   5.121  0.00  0.00    +0.070 A 
ATOM      7  C   LIG    1        1.395   0.983   4.152  0.00  0.00    +0.050 A 
ATOM      8  N   LIG    1        0.964   1.712   3.091  0.00  0.00    -0.480 NA
ATOM      9  C   LIG    1        0.000   1.080   2.488  0.00  0.00    +0.290 A 
ENDROOT
BRANCH   1  10
ATOM     10  C   LIG    1       -1.275  -1.080   2.748  0.00  0.00    +0.330 C 
BRANCH  10  11
ATOM     11  C   LIG    1       -0.671  -2.091   1.772  0.00  0.00    +0.180 C 
BRANCH  11  12
ATOM     12  O   LIG    1       -1.663  -3.052   1.405  0.00  0.00    -0.310 OA
BRANCH  12  16
ATOM     13  C   LIG    1       -2.806  -7.034  -1.174  0.00  0.00    +0.110 C 
ATOM     14  C   LIG    1       -1.815  -5.985  -0.742  0.00  0.00    -0.030 A 
ATOM     15  C   LIG    1       -2.198  -4.997   0.144  0.00  0.00    +0.000 A 
ATOM     16  C   LIG    1       -1.286  -4.027   0.537  0.00  0.00    +0.140 A 
ATOM     17  C   LIG    1        0.011  -4.059   0.049  0.00  0.00    -0.070 A 
ATOM     18  C   LIG    1        0.392  -5.052  -0.833  0.00  0.00    +0.080 A 
ATOM     19  C   LIG    1       -0.520  -6.014  -1.229  0.00  0.00    -0.070 A 
ATOM     20 CL   LIG    1       -0.039  -7.261  -2.337  0.00  0.00    -0.060 Cl
ENDBRANCH  12  16
ENDBRANCH  11  12
ENDBRANCH  10  11
ENDBRANCH   1  10
BRANCH   9  21
ATOM     21  C   LIG    1       -0.729   1.579   1.267  0.00  0.00    +0.140 C 
BRANCH  21  22
ATOM     22  C   LIG    1       -0.013   1.086   0.008  0.00  0.00    +0.270 C 
BRANCH  22  23
ATOM     23  N   LIG    1       -0.721   1.571  -1.179  0.00  0.00    -0.730 N 
ATOM     24  H   LIG    1       -1.516   2.118  -1.079  0.00  0.00    +0.400 HD
ATOM     25  C   LIG    1       -0.268   1.258  -2.409  0.00  0.00    +0.520 C 
ATOM     26  O   LIG    1        0.726   0.575  -2.534  0.00  0.00    -0.530 OA
BRANCH  25  27
ATOM     27  C   LIG    1       -0.997   1.758  -3.630  0.00  0.00    -0.010 C 
ATOM     28  C   LIG    1       -2.432   1.228  -3.619  0.00  0.00    +0.030 C 
ATOM     29  C   LIG    1       -3.172   1.735  -4.859  0.00  0.00    +0.020 C 
ATOM     30  C   LIG    1       -2.456   1.242  -6.117  0.00  0.00    +0.000 C 
ATOM     31  C   LIG    1       -1.021   1.771  -6.128  0.00  0.00    +0.010 C 
ATOM     32  C   LIG    1       -0.281   1.264  -4.889  0.00  0.00    +0.040 C 
ENDBRANCH  25  27
ENDBRANCH  22  23
ENDBRANCH  21  22
ENDBRANCH   9  21
TORSDOF 8
