REMARK  Name = ZINCrD000000B3JW.0
REMARK                            x       y       z     vdW  Elec       q    Type
REMARK                         _______ _______ _______ _____ _____    ______ ____
ROOT
ATOM      1  O   LIG    1        0.854   0.774  -3.162  0.00  0.00    -0.590 OA
ATOM      2  C   LIG    1        0.840   1.975  -2.972  0.00  0.00    +0.700 C 
ATOM      3  N   LIG    1        0.045   2.497  -2.017  0.00  0.00    -0.740 N 
ATOM      4  H   LIG    1        0.034   3.455  -1.866  0.00  0.00    +0.400 HD
ATOM      5  N   LIG    1        1.619   2.784  -3.718  0.00  0.00    -0.750 N 
ATOM      6  H   LIG    1        1.607   3.742  -3.567  0.00  0.00    +0.400 HD
ENDROOT
BRANCH   3   7
ATOM      7  C   LIG    1       -0.801   1.618  -1.207  0.00  0.00    +0.260 C 
ATOM      8  C   LIG    1       -0.013   1.086   0.008  0.00  0.00    +0.030 C 
ATOM      9  C   LIG    1       -0.778   1.605   1.244  0.00  0.00    +0.190 C 
ATOM     10  N   LIG    1       -1.513   2.801   0.753  0.00  0.00    -0.450 N 
ATOM     11  C   LIG    1       -1.978   2.413  -0.604  0.00  0.00    +0.220 C 
BRANCH  10  12
ATOM     12  C   LIG    1       -2.588   3.101   1.582  0.00  0.00    +0.310 A 
ATOM     13  N   LIG    1       -3.822   3.017   1.112  0.00  0.00    -0.500 NA
ATOM     14  C   LIG    1       -4.870   3.293   1.865  0.00  0.00    +0.300 A 
ATOM     15  C   LIG    1       -4.715   3.683   3.180  0.00  0.00    -0.030 A 
ATOM     16  C   LIG    1       -3.436   3.784   3.713  0.00  0.00    +0.100 A 
ATOM     17  C   LIG    1       -2.357   3.483   2.901  0.00  0.00    -0.100 A 
ATOM     18 CL   LIG    1       -0.737   3.585   3.517  0.00  0.00    -0.040 Cl
ENDBRANCH  10  12
ENDBRANCH   3   7
BRANCH   5  19
ATOM     19  C   LIG    1        2.482   2.216  -4.756  0.00  0.00    +0.280 C 
BRANCH  19  20
ATOM     20  C   LIG    1        3.254   3.341  -5.449  0.00  0.00    +0.110 C 
BRANCH  20  21
ATOM     21  C   LIG    1        4.142   2.757  -6.517  0.00  0.00    -0.170 A 
ATOM     22  C   LIG    1        5.438   2.430  -6.387  0.00  0.00    +0.230 A 
ATOM     23  N   LIG    1        5.913   1.928  -7.568  0.00  0.00    -0.590 N 
ATOM     24  H   LIG    1        6.821   1.623  -7.719  0.00  0.00    +0.420 HD
ATOM     25  C   LIG    1        4.909   1.919  -8.511  0.00  0.00    +0.090 A 
ATOM     26  C   LIG    1        4.849   1.522  -9.842  0.00  0.00    -0.010 A 
ATOM     27  C   LIG    1        3.666   1.640 -10.539  0.00  0.00    +0.030 A 
ATOM     28  C   LIG    1        2.531   2.152  -9.925  0.00  0.00    -0.030 A 
ATOM     29  C   LIG    1        2.568   2.549  -8.618  0.00  0.00    +0.050 A 
ATOM     30  C   LIG    1        3.754   2.433  -7.892  0.00  0.00    -0.100 A 
ENDBRANCH  20  21
ENDBRANCH  19  20
ENDBRANCH   5  19
TORSDOF 5
