REMARK  Name = ZINCrD0000071bFS.0
REMARK                            x       y       z     vdW  Elec       q    Type
REMARK                         _______ _______ _______ _____ _____    ______ ____
ROOT
ATOM      1  N   LIG    1       -0.011   0.966   0.007  0.00  0.00    -0.670 N 
ATOM      2  H   LIG    1        0.109   0.009   0.111  0.00  0.00    +0.410 HD
ATOM      3  C   LIG    1       -1.248   1.475  -0.160  0.00  0.00    +0.520 C 
ATOM      4  O   LIG    1       -1.391   2.658  -0.386  0.00  0.00    -0.490 OA
ENDROOT
BRANCH   1   8
ATOM      5  C   LIG    1        3.295   3.500   0.063  0.00  0.00    -0.080 A 
ATOM      6  C   LIG    1        2.085   3.934   0.572  0.00  0.00    +0.030 A 
ATOM      7  C   LIG    1        0.987   3.096   0.555  0.00  0.00    +0.010 A 
ATOM      8  C   LIG    1        1.099   1.817   0.026  0.00  0.00    +0.140 A 
ATOM      9  C   LIG    1        2.318   1.382  -0.478  0.00  0.00    -0.010 A 
ATOM     10  C   LIG    1        3.411   2.227  -0.464  0.00  0.00    +0.030 A 
BRANCH   5  12
ATOM     11  C   LIG    1        4.814   4.804   1.528  0.00  0.00    +0.040 C 
ATOM     12  C   LIG    1        4.491   4.417   0.083  0.00  0.00    -0.030 C 
ATOM     13  C   LIG    1        4.180   5.678  -0.726  0.00  0.00    +0.040 C 
ATOM     14  C   LIG    1        5.694   3.700  -0.534  0.00  0.00    +0.030 C 
ENDBRANCH   5  12
ENDBRANCH   1   8
BRANCH   3  15
ATOM     15  C   LIG    1       -2.453   0.575  -0.066  0.00  0.00    +0.270 C 
BRANCH  15  16
ATOM     16  O   LIG    1       -3.658   1.355  -0.281  0.00  0.00    -0.320 OA
BRANCH  16  17
ATOM     17  C   LIG    1       -4.827   0.698  -0.230  0.00  0.00    +0.480 C 
ATOM     18  O   LIG    1       -4.843  -0.491  -0.012  0.00  0.00    -0.470 OA
BRANCH  17  19
ATOM     19  C   LIG    1       -6.120   1.442  -0.444  0.00  0.00    +0.200 C 
ATOM     20  C   LIG    1       -6.189   1.954  -1.889  0.00  0.00    +0.270 C 
ATOM     21  O   LIG    1       -7.433   2.643  -2.061  0.00  0.00    -0.290 OA
ATOM     22  C   LIG    1       -8.546   2.024  -1.582  0.00  0.00    +0.050 A 
ATOM     23  C   LIG    1       -9.796   2.438  -2.017  0.00  0.00    +0.030 A 
ATOM     24  C   LIG    1      -10.936   1.821  -1.537  0.00  0.00    +0.030 A 
ATOM     25  C   LIG    1      -10.834   0.790  -0.623  0.00  0.00    +0.030 A 
ATOM     26  C   LIG    1       -9.591   0.370  -0.186  0.00  0.00    +0.030 A 
ATOM     27  C   LIG    1       -8.443   0.985  -0.664  0.00  0.00    +0.050 A 
ATOM     28  O   LIG    1       -7.226   0.559  -0.227  0.00  0.00    -0.280 OA
ENDBRANCH  17  19
ENDBRANCH  16  17
ENDBRANCH  15  16
ENDBRANCH   3  15
TORSDOF 6
