REMARK  Name = ZINCpk00000ebgcz.0
REMARK                            x       y       z     vdW  Elec       q    Type
REMARK                         _______ _______ _______ _____ _____    ______ ____
ROOT
ATOM      1  N   LIG    1        2.086   0.025  -1.279  0.00  0.00    -0.730 N 
ATOM      2  H   LIG    1        2.404   0.580  -0.549  0.00  0.00    +0.400 HD
ATOM      3  C   LIG    1        2.912  -0.286  -2.297  0.00  0.00    +0.560 C 
ATOM      4  O   LIG    1        2.514  -0.981  -3.212  0.00  0.00    -0.490 OA
ENDROOT
BRANCH   3   5
ATOM      5  C   LIG    1        4.298   0.218  -2.303  0.00  0.00    -0.160 A 
ATOM      6  C   LIG    1        4.735   1.111  -1.319  0.00  0.00    +0.100 A 
ATOM      7  C   LIG    1        6.047   1.550  -1.365  0.00  0.00    -0.040 A 
ATOM      8  C   LIG    1        6.878   1.107  -2.378  0.00  0.00    +0.300 A 
ATOM      9  N   LIG    1        6.446   0.269  -3.300  0.00  0.00    -0.520 NA
ATOM     10  C   LIG    1        5.202  -0.187  -3.300  0.00  0.00    +0.350 A 
BRANCH  10  11
ATOM     11  N   LIG    1        4.792  -1.065  -4.286  0.00  0.00    -0.470 N 
ATOM     12  C   LIG    1        5.449  -2.370  -4.135  0.00  0.00    +0.180 C 
ATOM     13  C   LIG    1        4.865  -3.356  -5.149  0.00  0.00    +0.040 C 
ATOM     14  C   LIG    1        5.082  -2.815  -6.564  0.00  0.00    +0.010 C 
ATOM     15  C   LIG    1        4.430  -1.434  -6.680  0.00  0.00    +0.030 C 
ATOM     16  C   LIG    1        5.026  -0.503  -5.622  0.00  0.00    +0.190 C 
ENDBRANCH  10  11
ENDBRANCH   3   5
BRANCH   1  17
ATOM     17  C   LIG    1        0.709  -0.475  -1.273  0.00  0.00    +0.250 C 
BRANCH  17  18
ATOM     18  C   LIG    1       -0.008   0.019  -0.015  0.00  0.00    +0.210 C 
ATOM     19  C   LIG    1       -0.021   1.549  -0.004  0.00  0.00    +0.070 C 
BRANCH  18  23
ATOM     20  C   LIG    1       -4.485  -1.624   1.527  0.00  0.00    +0.360 C 
ATOM     21  N   LIG    1       -3.372  -1.211   0.668  0.00  0.00    -0.370 N 
ATOM     22  C   LIG    1       -2.163  -0.781   1.087  0.00  0.00    +0.260 A 
ATOM     23  C   LIG    1       -1.424  -0.496  -0.010  0.00  0.00    -0.280 A 
ATOM     24  C   LIG    1       -2.205  -0.769  -1.138  0.00  0.00    +0.240 A 
ATOM     25  N   LIG    1       -3.373  -1.197  -0.733  0.00  0.00    -0.290 NA
ENDBRANCH  18  23
BRANCH  18  26
ATOM     26  O   LIG    1        0.678  -0.461   1.143  0.00  0.00    -0.550 OA
ATOM     27  H   LIG    1        0.725  -1.425   1.202  0.00  0.00    +0.380 HD
ENDBRANCH  18  26
ENDBRANCH  17  18
ENDBRANCH   1  17
TORSDOF 6
