REMARK  Name = ZINCqH0000000vye.0
REMARK                            x       y       z     vdW  Elec       q    Type
REMARK                         _______ _______ _______ _____ _____    ______ ____
ROOT
ATOM      1  C   LIG    1       -3.610   2.737   3.119  0.00  0.00    +0.590 C 
ATOM      2  N   LIG    1       -4.666   2.780   2.282  0.00  0.00    -0.730 N 
ATOM      3  H   LIG    1       -4.560   2.522   1.353  0.00  0.00    +0.400 HD
ATOM      4  O   LIG    1       -3.744   3.060   4.284  0.00  0.00    -0.520 OA
ENDROOT
BRANCH   1   9
ATOM      5  C   LIG    1       -0.138   1.751   2.494  0.00  0.00    -0.260 A 
ATOM      6  C   LIG    1       -0.717   1.577   1.246  0.00  0.00    +0.100 A 
ATOM      7  N   LIG    1       -2.012   1.914   1.332  0.00  0.00    -0.530 N 
ATOM      8  H   LIG    1       -2.648   1.887   0.600  0.00  0.00    +0.420 HD
ATOM      9  C   LIG    1       -2.299   2.300   2.623  0.00  0.00    -0.070 A 
ATOM     10  C   LIG    1       -0.009   1.098   0.005  0.00  0.00    +0.150 C 
ATOM     11  C   LIG    1       -1.157   2.212   3.362  0.00  0.00    -0.020 A 
ATOM     12  C   LIG    1       -1.008   2.542   4.824  0.00  0.00    +0.120 C 
BRANCH   5  14
ATOM     13  C   LIG    1        1.710   0.118   3.236  0.00  0.00    +0.070 C 
ATOM     14  C   LIG    1        1.264   1.504   2.847  0.00  0.00    +0.440 C 
ATOM     15  O   LIG    1        2.064   2.416   2.827  0.00  0.00    -0.450 OA
ENDBRANCH   5  14
ENDBRANCH   1   9
BRANCH   2  16
ATOM     16  C   LIG    1       -5.975   3.216   2.776  0.00  0.00    +0.330 C 
BRANCH  16  17
ATOM     17  C   LIG    1       -6.976   3.174   1.650  0.00  0.00    -0.070 A 
ATOM     18  C   LIG    1       -7.168   4.288   0.855  0.00  0.00    +0.000 A 
ATOM     19  C   LIG    1       -8.083   4.251  -0.181  0.00  0.00    +0.050 A 
ATOM     20  C   LIG    1       -8.814   3.103  -0.418  0.00  0.00    -0.070 A 
ATOM     21  C   LIG    1       -8.627   1.985   0.382  0.00  0.00    +0.120 A 
ATOM     22  C   LIG    1       -7.705   2.023   1.418  0.00  0.00    +0.020 A 
BRANCH  21  23
ATOM     23  O   LIG    1       -9.345   0.855   0.151  0.00  0.00    -0.300 OA
BRANCH  23  24
ATOM     24  C   LIG    1      -10.276   0.887  -0.932  0.00  0.00    +0.230 C 
BRANCH  24  25
ATOM     25  C   LIG    1      -10.985  -0.464  -1.036  0.00  0.00    +0.470 C 
ATOM     26  F   LIG    1      -10.040  -1.470  -1.264  0.00  0.00    -0.170 F 
ATOM     27  F   LIG    1      -11.897  -0.432  -2.097  0.00  0.00    -0.170 F 
ATOM     28  F   LIG    1      -11.667  -0.726   0.157  0.00  0.00    -0.170 F 
ENDBRANCH  24  25
ENDBRANCH  23  24
ENDBRANCH  21  23
ENDBRANCH  16  17
ENDBRANCH   2  16
TORSDOF 7
