REMARK  Name = ZINCrH000004qnc0.0
REMARK                            x       y       z     vdW  Elec       q    Type
REMARK                         _______ _______ _______ _____ _____    ______ ____
ROOT
ATOM      1  C   LIG    1        5.240   9.299  -0.002  0.00  0.00    +0.140 C 
ATOM      2  C   LIG    1        3.737   9.192   0.013  0.00  0.00    +0.030 A 
ATOM      3  C   LIG    1        3.038   8.044   0.021  0.00  0.00    +0.000 A 
ATOM      4  C   LIG    1        1.619   8.424   0.030  0.00  0.00    -0.260 A 
ATOM      5  C   LIG    1        1.597   9.806   0.038  0.00  0.00    +0.120 A 
ATOM      6  C   LIG    1        0.363  10.671   0.055  0.00  0.00    +0.150 C 
ATOM      7  N   LIG    1        2.869  10.245   0.028  0.00  0.00    -0.430 N 
ENDROOT
BRANCH   4   8
ATOM      8  C   LIG    1        0.464   7.523   0.037  0.00  0.00    +0.450 C 
ATOM      9  O   LIG    1       -0.660   7.978   0.051  0.00  0.00    -0.460 OA
BRANCH   8  10
ATOM     10  C   LIG    1        0.673   6.031   0.027  0.00  0.00    +0.090 C 
BRANCH  10  11
ATOM     11  S   LIG    1       -0.933   5.197   0.039  0.00  0.00    +0.090 S 
BRANCH  11  12
ATOM     12  C   LIG    1       -0.406   3.516   0.025  0.00  0.00    -0.020 A 
ATOM     13  N   LIG    1        0.828   3.097   0.011  0.00  0.00    -0.270 NA
ATOM     14  N   LIG    1        1.022   1.851   0.002  0.00  0.00    -0.250 NA
ATOM     15  C   LIG    1       -0.013   1.076   0.008  0.00  0.00    +0.220 A 
ATOM     16  S   LIG    1       -1.453   2.095   0.019  0.00  0.00    +0.110 S 
ENDBRANCH  11  12
ENDBRANCH  10  11
ENDBRANCH   8  10
ENDBRANCH   4   8
BRANCH   7  17
ATOM     17  C   LIG    1        3.266  11.655   0.031  0.00  0.00    +0.340 C 
BRANCH  17  18
ATOM     18  C   LIG    1        3.418  12.139   1.474  0.00  0.00    +0.130 C 
ATOM     19  C   LIG    1        3.726  13.643   1.486  0.00  0.00    +0.240 C 
ATOM     20  O   LIG    1        3.876  14.058   2.848  0.00  0.00    -0.300 OA
ATOM     21  C   LIG    1        4.649  13.273   3.646  0.00  0.00    +0.050 A 
ATOM     22  C   LIG    1        5.128  13.782   4.844  0.00  0.00    +0.030 A 
ATOM     23  C   LIG    1        5.912  12.995   5.667  0.00  0.00    +0.020 A 
ATOM     24  C   LIG    1        6.222  11.700   5.298  0.00  0.00    +0.020 A 
ATOM     25  C   LIG    1        5.749  11.187   4.104  0.00  0.00    +0.020 A 
ATOM     26  C   LIG    1        4.963  11.970   3.274  0.00  0.00    +0.050 A 
ATOM     27  O   LIG    1        4.507  11.453   2.101  0.00  0.00    -0.290 OA
ENDBRANCH  17  18
ENDBRANCH   7  17
TORSDOF 6
