REMARK  Name = ZINCpk00000y6tOq.0
REMARK                            x       y       z     vdW  Elec       q    Type
REMARK                         _______ _______ _______ _____ _____    ______ ____
ROOT
ATOM      1  C   LIG    1       -0.096  -2.464  -2.031  0.00  0.00    +0.620 C 
ATOM      2  N   LIG    1        0.863  -1.925  -1.253  0.00  0.00    -0.700 N 
ATOM      3  H   LIG    1        1.493  -2.499  -0.791  0.00  0.00    +0.410 HD
ATOM      4  O   LIG    1       -0.886  -1.743  -2.611  0.00  0.00    -0.510 OA
ENDROOT
BRANCH   2   5
ATOM      5  C   LIG    1        0.954  -0.470  -1.106  0.00  0.00    +0.240 C 
ATOM      6  C   LIG    1        0.002  -0.004   0.002  0.00  0.00    +0.030 C 
ATOM      7  C   LIG    1       -0.019   1.526   0.010  0.00  0.00    +0.090 C 
ATOM      8  C   LIG    1        1.386   2.057  -0.000  0.00  0.00    +0.520 C 
ATOM      9  N   LIG    1        2.446   1.327  -0.350  0.00  0.00    -0.710 N 
ATOM     10  H   LIG    1        3.314   1.760  -0.359  0.00  0.00    +0.400 HD
ATOM     11  O   LIG    1        1.567   3.210   0.327  0.00  0.00    -0.550 OA
ATOM     12  C   LIG    1        2.382  -0.082  -0.719  0.00  0.00    +0.230 C 
BRANCH  12  13
ATOM     13  C   LIG    1        3.314  -0.336  -1.906  0.00  0.00    +0.150 C 
ATOM     14  C   LIG    1        4.780  -0.018  -1.516  0.00  0.00    +0.010 C 
ATOM     15  C   LIG    1        5.553  -0.910  -2.526  0.00  0.00    +0.020 C 
ATOM     16  C   LIG    1        4.624  -2.136  -2.659  0.00  0.00    +0.190 C 
ATOM     17  O   LIG    1        3.312  -1.731  -2.251  0.00  0.00    -0.370 OA
ENDBRANCH  12  13
ENDBRANCH   2   5
BRANCH   1  20
ATOM     18  C   LIG    1       -2.210  -4.008  -3.748  0.00  0.00    +0.180 C 
ATOM     19  C   LIG    1       -1.101  -4.608  -2.922  0.00  0.00    +0.090 A 
ATOM     20  C   LIG    1       -0.188  -3.921  -2.179  0.00  0.00    -0.120 A 
ATOM     21  O   LIG    1        0.615  -4.844  -1.599  0.00  0.00    -0.190 OA
ATOM     22  C   LIG    1        0.195  -6.051  -1.991  0.00  0.00    +0.230 A 
ATOM     23  N   LIG    1       -0.831  -5.910  -2.786  0.00  0.00    -0.480 NA
BRANCH  22  24
ATOM     24  C   LIG    1        0.808  -7.364  -1.580  0.00  0.00    +0.210 C 
BRANCH  24  25
ATOM     25  C   LIG    1        1.903  -7.750  -2.576  0.00  0.00    -0.050 C 
ATOM     26  C   LIG    1        1.696  -9.025  -3.396  0.00  0.00    +0.030 C 
ATOM     27  C   LIG    1        2.730  -9.000  -2.269  0.00  0.00    +0.030 C 
ENDBRANCH  24  25
ENDBRANCH  22  24
ENDBRANCH   1  20
TORSDOF 5
