REMARK  Name = ZINCrH000004s9Oa.0
REMARK                            x       y       z     vdW  Elec       q    Type
REMARK                         _______ _______ _______ _____ _____    ______ ____
ROOT
ATOM      1  N   LIG    1        1.143   1.901   0.001  0.00  0.00    -0.680 N 
ATOM      2  H   LIG    1        1.123   2.870   0.055  0.00  0.00    +0.410 HD
ATOM      3  C   LIG    1       -0.003   1.211  -0.160  0.00  0.00    +0.730 C 
ATOM      4  N   LIG    1       -1.186   1.855  -0.145  0.00  0.00    -0.630 N 
ATOM      5  C   LIG    1       -1.372   3.306   0.043  0.00  0.00    +0.270 C 
ATOM      6  C   LIG    1       -2.813   3.453   0.592  0.00  0.00    +0.050 C 
ATOM      7  C   LIG    1       -3.562   2.348  -0.200  0.00  0.00    +0.280 C 
ATOM      8  C   LIG    1       -2.505   1.230  -0.321  0.00  0.00    +0.290 C 
ATOM      9  O   LIG    1        0.032   0.006  -0.325  0.00  0.00    -0.560 OA
ENDROOT
BRANCH   1  13
ATOM     10  C   LIG    1        4.777  -0.123   0.271  0.00  0.00    -0.070 A 
ATOM     11  C   LIG    1        4.720   1.135  -0.331  0.00  0.00    +0.090 A 
ATOM     12  C   LIG    1        3.518   1.802  -0.419  0.00  0.00    -0.030 A 
ATOM     13  C   LIG    1        2.361   1.223   0.091  0.00  0.00    +0.190 A 
ATOM     14  C   LIG    1        2.416  -0.028   0.697  0.00  0.00    +0.010 A 
ATOM     15  C   LIG    1        3.615  -0.701   0.782  0.00  0.00    +0.090 A 
BRANCH  10  21
ATOM     16  C   LIG    1        7.270  -4.061   1.701  0.00  0.00    +0.140 C 
ATOM     17  C   LIG    1        7.239  -2.704   1.045  0.00  0.00    +0.180 A 
ATOM     18  C   LIG    1        8.403  -2.142   0.542  0.00  0.00    -0.090 A 
ATOM     19  C   LIG    1        8.331  -0.891  -0.053  0.00  0.00    +0.330 A 
ATOM     20  N   LIG    1        7.163  -0.276  -0.124  0.00  0.00    -0.520 NA
ATOM     21  C   LIG    1        6.069  -0.842   0.368  0.00  0.00    +0.370 A 
ATOM     22  N   LIG    1        6.104  -2.034   0.948  0.00  0.00    -0.520 NA
ENDBRANCH  10  21
ENDBRANCH   1  13
BRANCH   7  23
ATOM     23  N   LIG    1       -4.733   1.880   0.545  0.00  0.00    -0.360 N 
ATOM     24  C   LIG    1       -4.737   0.928   1.502  0.00  0.00    +0.250 A 
ATOM     25  C   LIG    1       -6.011   0.789   1.941  0.00  0.00    -0.180 A 
ATOM     26  C   LIG    1       -6.811   1.688   1.227  0.00  0.00    +0.270 A 
ATOM     27 CL   LIG    1       -6.554  -0.308   3.171  0.00  0.00    -0.040 Cl
ATOM     28  N   LIG    1       -6.045   2.346   0.395  0.00  0.00    -0.270 NA
ENDBRANCH   7  23
TORSDOF 3
