REMARK  Name = ZINCqH0000034u3u.2
REMARK                            x       y       z     vdW  Elec       q    Type
REMARK                         _______ _______ _______ _____ _____    ______ ____
ROOT
ATOM      1  N   LIG    1       -0.583   0.838  -0.990  0.00  0.00    -0.550 NA
ATOM      2  C   LIG    1        0.862   1.070  -0.774  0.00  0.00    +0.190 C 
ATOM      3  C   LIG    1        1.282   0.338   0.476  0.00  0.00    +0.040 C 
ATOM      4  C   LIG    1        1.803  -1.076   0.170  0.00  0.00    +0.180 C 
ATOM      5  N   LIG    1        0.989  -1.770  -0.853  0.00  0.00    -0.510 N 
ATOM      6  C   LIG    1       -0.435  -1.581  -0.695  0.00  0.00    +0.200 C 
ATOM      7  C   LIG    1       -0.882  -0.398  -1.577  0.00  0.00    +0.180 C 
ENDROOT
BRANCH   5   8
ATOM      8  C   LIG    1        1.310  -3.129  -0.911  0.00  0.00    +0.100 A 
ATOM      9  C   LIG    1        1.002  -3.963   0.156  0.00  0.00    -0.010 A 
ATOM     10  C   LIG    1        1.320  -5.306   0.095  0.00  0.00    +0.020 A 
ATOM     11  C   LIG    1        1.946  -5.821  -1.025  0.00  0.00    +0.020 A 
ATOM     12  C   LIG    1        2.255  -4.993  -2.090  0.00  0.00    +0.030 A 
ATOM     13  C   LIG    1        1.934  -3.650  -2.039  0.00  0.00    -0.010 A 
ATOM     14 CL   LIG    1        2.315  -2.614  -3.378  0.00  0.00    -0.050 Cl
ENDBRANCH   5   8
BRANCH   1  15
ATOM     15  C   LIG    1       -1.185   1.941  -1.751  0.00  0.00    +0.240 C 
BRANCH  15  20
ATOM     16  C   LIG    1       -4.743   2.420  -0.555  0.00  0.00    -0.140 A 
ATOM     17  C   LIG    1       -5.452   1.684  -1.507  0.00  0.00    +0.040 A 
ATOM     18  C   LIG    1       -4.774   1.042  -2.523  0.00  0.00    +0.000 A 
ATOM     19  C   LIG    1       -3.395   1.131  -2.603  0.00  0.00    +0.030 A 
ATOM     20  C   LIG    1       -2.687   1.855  -1.659  0.00  0.00    -0.090 A 
ATOM     21  C   LIG    1       -3.352   2.501  -0.639  0.00  0.00    +0.090 A 
BRANCH  16  24
ATOM     22  C   LIG    1       -7.404   3.368   1.985  0.00  0.00    +0.290 C 
ATOM     23  N   LIG    1       -6.643   2.630   0.975  0.00  0.00    -0.620 N 
ATOM     24  C   LIG    1       -5.463   3.111   0.535  0.00  0.00    +0.560 C 
ATOM     25  O   LIG    1       -4.991   4.113   1.036  0.00  0.00    -0.530 OA
ATOM     26  C   LIG    1       -7.164   1.369   0.441  0.00  0.00    +0.290 C 
ENDBRANCH  16  24
ENDBRANCH  15  20
ENDBRANCH   1  15
TORSDOF 4
