REMARK  Name = ZINCvU0000000B18.0
REMARK                            x       y       z     vdW  Elec       q    Type
REMARK                         _______ _______ _______ _____ _____    ______ ____
ROOT
ATOM      1  C   LIG    1        2.492   1.375  -0.067  0.00  0.00    -0.120 A 
ATOM      2  C   LIG    1        2.675   0.020   0.216  0.00  0.00    +0.030 A 
ATOM      3  C   LIG    1        3.950  -0.501   0.301  0.00  0.00    +0.040 A 
ATOM      4  C   LIG    1        5.049   0.315   0.108  0.00  0.00    +0.020 A 
ATOM      5  C   LIG    1        4.878   1.665  -0.174  0.00  0.00    +0.140 A 
ATOM      6  C   LIG    1        3.601   2.197  -0.268  0.00  0.00    +0.090 A 
ENDROOT
BRANCH   1   8
ATOM      7  O   LIG    1        0.970   3.115  -0.405  0.00  0.00    -0.510 OA
ATOM      8  C   LIG    1        1.127   1.935  -0.159  0.00  0.00    +0.560 C 
ATOM      9  N   LIG    1        0.057   1.138   0.030  0.00  0.00    -0.670 N 
ATOM     10  H   LIG    1        0.179   0.184   0.152  0.00  0.00    +0.410 HD
BRANCH   9  11
ATOM     11  C   LIG    1       -1.229   1.687   0.044  0.00  0.00    +0.150 A 
ATOM     12  C   LIG    1       -1.437   2.962   0.552  0.00  0.00    +0.060 A 
ATOM     13  C   LIG    1       -2.708   3.503   0.560  0.00  0.00    +0.040 A 
ATOM     14  C   LIG    1       -3.775   2.771   0.074  0.00  0.00    +0.060 A 
ATOM     15  C   LIG    1       -3.573   1.498  -0.428  0.00  0.00    -0.160 A 
ATOM     16  C   LIG    1       -2.304   0.954  -0.444  0.00  0.00    +0.040 A 
BRANCH  15  17
ATOM     17  C   LIG    1       -4.739   0.703  -0.957  0.00  0.00    +0.510 C 
ATOM     18  F   LIG    1       -4.297  -0.157  -1.968  0.00  0.00    -0.180 F 
ATOM     19  F   LIG    1       -5.701   1.577  -1.475  0.00  0.00    -0.170 F 
ATOM     20  F   LIG    1       -5.301  -0.047   0.081  0.00  0.00    -0.180 F 
ENDBRANCH  15  17
ENDBRANCH   9  11
ENDBRANCH   1   8
BRANCH   5  21
ATOM     21  N   LIG    1        5.994   2.486  -0.370  0.00  0.00    -0.670 N 
ATOM     22  H   LIG    1        6.784   2.135  -0.809  0.00  0.00    +0.420 HD
ATOM     23  C   LIG    1        5.971   3.766   0.053  0.00  0.00    +0.540 C 
ATOM     24  O   LIG    1        4.956   4.231   0.526  0.00  0.00    -0.510 OA
BRANCH  23  25
ATOM     25  C   LIG    1        7.208   4.620  -0.062  0.00  0.00    -0.050 C 
ATOM     26  C   LIG    1        7.178   5.774  -1.066  0.00  0.00    +0.080 C 
ATOM     27  C   LIG    1        7.118   6.064   0.435  0.00  0.00    +0.060 C 
BRANCH  27  28
ATOM     28  C   LIG    1        8.346   6.655   1.079  0.00  0.00    -0.110 A 
ATOM     29  C   LIG    1        8.303   7.106   2.389  0.00  0.00    +0.080 A 
ATOM     30  C   LIG    1        9.457   7.642   2.941  0.00  0.00    -0.030 A 
ATOM     31  C   LIG    1       10.603   7.709   2.172  0.00  0.00    +0.260 A 
ATOM     32  N   LIG    1       10.607   7.270   0.928  0.00  0.00    -0.480 NA
ATOM     33  C   LIG    1        9.530   6.749   0.373  0.00  0.00    +0.260 A 
ENDBRANCH  27  28
ENDBRANCH  23  25
ENDBRANCH   5  21
TORSDOF 6
