REMARK  Name = ZINCvU0000000DQ2.0
REMARK                            x       y       z     vdW  Elec       q    Type
REMARK                         _______ _______ _______ _____ _____    ______ ____
ROOT
ATOM      1  C   LIG    1       -3.815   1.041   4.630  0.00  0.00    +0.550 C 
ATOM      2  N   LIG    1       -4.919   1.267   5.370  0.00  0.00    -0.600 N 
ATOM      3  C   LIG    1       -5.990   2.147   4.877  0.00  0.00    +0.290 C 
ATOM      4  C   LIG    1       -7.254   1.298   4.669  0.00  0.00    +0.120 C 
ATOM      5  C   LIG    1       -7.453   0.404   5.874  0.00  0.00    -0.170 A 
ATOM      6  C   LIG    1       -6.502   0.100   6.778  0.00  0.00    -0.110 A 
ATOM      7  C   LIG    1       -6.939  -0.752   7.787  0.00  0.00    +0.020 A 
ATOM      8  C   LIG    1       -8.211  -1.129   7.712  0.00  0.00    -0.040 A 
ATOM      9  S   LIG    1       -8.959  -0.399   6.300  0.00  0.00    +0.120 S 
ATOM     10  C   LIG    1       -5.082   0.647   6.692  0.00  0.00    +0.420 C 
ATOM     11  O   LIG    1       -2.939   0.317   5.054  0.00  0.00    -0.510 OA
ENDROOT
BRANCH  10  12
ATOM     12  C   LIG    1       -4.864   1.677   7.770  0.00  0.00    -0.190 A 
ATOM     13  C   LIG    1       -4.216   1.465   8.916  0.00  0.00    +0.020 A 
ATOM     14  C   LIG    1       -4.138   2.564   9.754  0.00  0.00    +0.010 A 
ATOM     15  C   LIG    1       -4.731   3.667   9.292  0.00  0.00    -0.050 A 
ATOM     16  S   LIG    1       -5.432   3.341   7.712  0.00  0.00    +0.110 S 
ENDBRANCH  10  12
BRANCH   1  17
ATOM     17  C   LIG    1       -3.669   1.688   3.277  0.00  0.00    +0.110 C 
BRANCH  17  18
ATOM     18  S   LIG    1       -2.092   1.194   2.539  0.00  0.00    +0.090 S 
BRANCH  18  24
ATOM     19  N   LIG    1       -1.240   2.070   0.019  0.00  0.00    -0.420 N 
ATOM     20  C   LIG    1       -1.738   2.887  -0.961  0.00  0.00    +0.200 A 
ATOM     21  N   LIG    1       -2.899   3.317  -0.553  0.00  0.00    -0.280 NA
ATOM     22  N   LIG    1       -3.164   2.840   0.610  0.00  0.00    -0.290 NA
ATOM     23  C   LIG    1       -1.070   3.224  -2.269  0.00  0.00    +0.200 C 
ATOM     24  C   LIG    1       -2.181   2.068   1.012  0.00  0.00    +0.140 A 
BRANCH  19  29
ATOM     25  C   LIG    1        3.711  -0.707  -0.037  0.00  0.00    +0.100 C 
ATOM     26  C   LIG    1        2.396   0.031  -0.021  0.00  0.00    -0.060 A 
ATOM     27  C   LIG    1        1.208  -0.677  -0.013  0.00  0.00    +0.040 A 
ATOM     28  C   LIG    1        0.002  -0.004   0.002  0.00  0.00    +0.040 A 
ATOM     29  C   LIG    1       -0.017   1.384   0.010  0.00  0.00    +0.090 A 
ATOM     30  C   LIG    1        1.177   2.092   0.002  0.00  0.00    +0.030 A 
ATOM     31  C   LIG    1        2.381   1.413  -0.013  0.00  0.00    +0.030 A 
ENDBRANCH  19  29
ENDBRANCH  18  24
ENDBRANCH  17  18
ENDBRANCH   1  17
TORSDOF 5
