REMARK  Name = ZINCrg00000SjSLz.1
REMARK                            x       y       z     vdW  Elec       q    Type
REMARK                         _______ _______ _______ _____ _____    ______ ____
ROOT
ATOM      1  C   LIG    1       -0.460   3.091  -1.275  0.00  0.00    +0.240 C 
ATOM      2  C   LIG    1       -0.400   1.561  -1.283  0.00  0.00    +0.030 C 
ATOM      3  C   LIG    1        0.222   1.072   0.027  0.00  0.00    +0.180 C 
ATOM      4  N   LIG    1       -0.587   1.543   1.159  0.00  0.00    -0.530 NA
ATOM      5  C   LIG    1       -0.619   3.010   1.215  0.00  0.00    +0.180 C 
ATOM      6  C   LIG    1       -1.266   3.556  -0.059  0.00  0.00    +0.020 C 
ENDROOT
BRANCH   1   8
ATOM      7  C   LIG    1       -0.842   4.798  -2.971  0.00  0.00    +0.600 C 
ATOM      8  N   LIG    1       -1.106   3.562  -2.502  0.00  0.00    -0.720 N 
ATOM      9  H   LIG    1       -1.724   2.985  -2.978  0.00  0.00    +0.400 HD
ATOM     10  O   LIG    1       -0.067   5.521  -2.376  0.00  0.00    -0.550 OA
BRANCH   7  14
ATOM     11  C   LIG    1       -2.211   7.655  -6.835  0.00  0.00    +0.360 C 
ATOM     12  N   LIG    1       -2.090   6.532  -5.902  0.00  0.00    -0.360 N 
ATOM     13  C   LIG    1       -1.320   6.505  -4.802  0.00  0.00    +0.320 A 
ATOM     14  C   LIG    1       -1.492   5.272  -4.207  0.00  0.00    -0.300 A 
ATOM     15  C   LIG    1       -2.404   4.547  -5.006  0.00  0.00    +0.270 A 
ATOM     16  N   LIG    1       -2.757   5.306  -6.006  0.00  0.00    -0.300 NA
ENDBRANCH   7  14
ENDBRANCH   1   8
BRANCH   4  17
ATOM     17  C   LIG    1       -0.099   0.979   2.425  0.00  0.00    +0.160 C 
BRANCH  17  18
ATOM     18  C   LIG    1       -0.316  -0.536   2.425  0.00  0.00    +0.270 C 
BRANCH  18  19
ATOM     19  C   LIG    1        0.190  -1.116   3.721  0.00  0.00    -0.110 A 
ATOM     20  C   LIG    1       -0.625  -1.126   4.837  0.00  0.00    +0.040 A 
ATOM     21  C   LIG    1       -0.167  -1.662   6.027  0.00  0.00    +0.040 A 
ATOM     22  C   LIG    1        1.115  -2.181   6.105  0.00  0.00    +0.030 A 
ATOM     23  O   LIG    1        1.799  -2.752   7.139  0.00  0.00    -0.310 OA
ATOM     24  C   LIG    1        3.185  -2.714   6.751  0.00  0.00    +0.430 C 
ATOM     25  O   LIG    1        3.138  -2.727   5.312  0.00  0.00    -0.310 OA
ATOM     26  C   LIG    1        1.939  -2.165   4.981  0.00  0.00    +0.040 A 
ATOM     27  C   LIG    1        1.471  -1.631   3.792  0.00  0.00    +0.050 A 
ENDBRANCH  18  19
BRANCH  18  28
ATOM     28  O   LIG    1       -1.711  -0.817   2.291  0.00  0.00    -0.540 OA
ATOM     29  H   LIG    1       -2.256  -0.451   3.000  0.00  0.00    +0.370 HD
ENDBRANCH  18  28
ENDBRANCH  17  18
ENDBRANCH   4  17
TORSDOF 6
