REMARK  Name = ZINCrH000004qzUH.0
REMARK                            x       y       z     vdW  Elec       q    Type
REMARK                         _______ _______ _______ _____ _____    ______ ____
ROOT
ATOM      1  C   LIG    1       -2.809   0.559  -0.931  0.00  0.00    +0.540 C 
ATOM      2  N   LIG    1       -2.954   1.285   0.196  0.00  0.00    -0.720 N 
ATOM      3  H   LIG    1       -3.579   2.026   0.218  0.00  0.00    +0.400 HD
ATOM      4  O   LIG    1       -2.095  -0.421  -0.934  0.00  0.00    -0.520 OA
ENDROOT
BRANCH   1   5
ATOM      5  C   LIG    1       -3.535   0.967  -2.188  0.00  0.00    +0.100 C 
BRANCH   5   6
ATOM      6  S   LIG    1       -3.139  -0.199  -3.520  0.00  0.00    +0.120 S 
BRANCH   6  14
ATOM      7  C   LIG    1       -4.846  -0.452  -9.071  0.00  0.00    +0.160 C 
ATOM      8  C   LIG    1       -5.339   0.646  -8.164  0.00  0.00    +0.210 A 
ATOM      9  C   LIG    1       -6.190   1.596  -8.633  0.00  0.00    -0.050 A 
ATOM     10  C   LIG    1       -6.631   2.605  -7.768  0.00  0.00    +0.240 A 
ATOM     11  N   LIG    1       -6.224   2.631  -6.519  0.00  0.00    -0.470 NA
ATOM     12  C   LIG    1       -5.386   1.700  -6.050  0.00  0.00    +0.460 A 
ATOM     13  N   LIG    1       -4.839   1.508  -4.854  0.00  0.00    -0.530 NA
ATOM     14  C   LIG    1       -4.062   0.428  -4.883  0.00  0.00    +0.230 A 
ATOM     15  N   LIG    1       -4.085  -0.096  -6.092  0.00  0.00    -0.310 NA
ATOM     16  C   LIG    1       -7.575   3.665  -8.273  0.00  0.00    +0.180 C 
ATOM     17  N   LIG    1       -4.937   0.702  -6.868  0.00  0.00    -0.330 N 
ENDBRANCH   6  14
ENDBRANCH   5   6
ENDBRANCH   1   5
BRANCH   2  18
ATOM     18  C   LIG    1       -2.166   0.954   1.386  0.00  0.00    +0.290 C 
BRANCH  18  19
ATOM     19  C   LIG    1       -2.846   1.512   2.609  0.00  0.00    -0.090 A 
ATOM     20  C   LIG    1       -3.426   2.766   2.566  0.00  0.00    +0.000 A 
ATOM     21  C   LIG    1       -4.053   3.277   3.687  0.00  0.00    +0.010 A 
ATOM     22  C   LIG    1       -4.092   2.538   4.854  0.00  0.00    +0.000 A 
ATOM     23  C   LIG    1       -3.507   1.286   4.899  0.00  0.00    +0.010 A 
ATOM     24  C   LIG    1       -2.884   0.773   3.777  0.00  0.00    +0.010 A 
ENDBRANCH  18  19
BRANCH  18  25
ATOM     25  C   LIG    1       -0.768   1.561   1.257  0.00  0.00    +0.020 C 
BRANCH  25  26
ATOM     26  C   LIG    1        0.101   1.093   2.426  0.00  0.00    -0.020 C 
ATOM     27  C   LIG    1        0.315  -0.419   2.329  0.00  0.00    +0.010 C 
ATOM     28  C   LIG    1        1.455   1.804   2.372  0.00  0.00    +0.010 C 
ENDBRANCH  25  26
ENDBRANCH  18  25
ENDBRANCH   2  18
TORSDOF 7
