REMARK  Name = ZINCpe000000TpuQ.0
REMARK                            x       y       z     vdW  Elec       q    Type
REMARK                         _______ _______ _______ _____ _____    ______ ____
ROOT
ATOM      1  N   LIG    1       -3.758   2.565   5.229  0.00  0.00    -0.540 N 
ATOM      2  C   LIG    1       -3.946   3.834   5.636  0.00  0.00    +0.710 A 
ATOM      3  N   LIG    1       -3.782   4.868   4.793  0.00  0.00    -0.660 N 
ATOM      4  H   LIG    1       -3.923   5.773   5.111  0.00  0.00    +0.430 HD
ATOM      5  C   LIG    1       -3.424   4.661   3.510  0.00  0.00    +0.570 A 
ATOM      6  C   LIG    1       -3.220   3.347   3.050  0.00  0.00    -0.150 A 
ATOM      7  O   LIG    1       -3.278   5.606   2.753  0.00  0.00    -0.530 OA
ATOM      8  O   LIG    1       -4.269   4.049   6.789  0.00  0.00    -0.540 OA
ATOM      9  C   LIG    1       -3.398   2.298   3.929  0.00  0.00    +0.510 A 
ENDROOT
BRANCH   6  10
ATOM     10  N   LIG    1       -2.845   3.105   1.711  0.00  0.00    -0.510 N 
ATOM     11  C   LIG    1       -1.657   2.526   1.437  0.00  0.00    +0.500 C 
ATOM     12  O   LIG    1       -0.876   2.289   2.335  0.00  0.00    -0.510 OA
BRANCH  11  13
ATOM     13  C   LIG    1       -1.302   2.173   0.016  0.00  0.00    +0.130 C 
BRANCH  13  14
ATOM     14  C   LIG    1        0.067   1.543  -0.018  0.00  0.00    -0.080 A 
ATOM     15  C   LIG    1        0.255   0.228   0.102  0.00  0.00    -0.040 A 
ATOM     16  S   LIG    1        1.973  -0.134   0.009  0.00  0.00    +0.100 S 
ATOM     17  C   LIG    1        2.352   1.572  -0.193  0.00  0.00    -0.050 A 
ATOM     18  C   LIG    1        1.224   2.285  -0.180  0.00  0.00    +0.020 A 
ENDBRANCH  13  14
ENDBRANCH  11  13
BRANCH  10  19
ATOM     19  C   LIG    1       -3.745   3.484   0.619  0.00  0.00    +0.310 C 
BRANCH  19  20
ATOM     20  C   LIG    1       -4.664   2.307   0.284  0.00  0.00    +0.150 C 
BRANCH  20  21
ATOM     21  O   LIG    1       -5.516   2.036   1.399  0.00  0.00    -0.380 OA
ATOM     22  C   LIG    1       -6.419   0.949   1.190  0.00  0.00    +0.190 C 
ENDBRANCH  20  21
ENDBRANCH  19  20
ENDBRANCH  10  19
ENDBRANCH   6  10
BRANCH   9  23
ATOM     23  N   LIG    1       -3.213   1.002   3.511  0.00  0.00    -0.820 N 
ATOM     24  H   LIG    1       -3.268   0.274   4.150  0.00  0.00    +0.410 HD
ATOM     25  H   LIG    1       -3.027   0.815   2.578  0.00  0.00    +0.420 HD
ENDBRANCH   9  23
BRANCH   1  26
ATOM     26  C   LIG    1       -3.945   1.462   6.174  0.00  0.00    +0.300 C 
BRANCH  26  28
ATOM     27  C   LIG    1       -5.595  -0.160   7.117  0.00  0.00    +0.030 C 
ATOM     28  C   LIG    1       -5.400   0.992   6.129  0.00  0.00    +0.010 C 
ENDBRANCH  26  28
ENDBRANCH   1  26
TORSDOF 9
