REMARK  Name = ZINCrg000000mRIR.0
REMARK                            x       y       z     vdW  Elec       q    Type
REMARK                         _______ _______ _______ _____ _____    ______ ____
ROOT
ATOM      1  S   LIG    1       -1.224   4.334   2.125  0.00  0.00    +2.690 S 
ATOM      2  O   LIG    1       -0.906   5.536   1.437  0.00  0.00    -0.950 OA
ATOM      3  O   LIG    1       -0.398   3.776   3.137  0.00  0.00    -0.960 OA
ENDROOT
BRANCH   1  10
ATOM      4  C   LIG    1       -8.733   5.867   5.378  0.00  0.00    +0.120 C 
ATOM      5  C   LIG    1       -7.539   5.833   4.460  0.00  0.00    +0.520 C 
ATOM      6  N   LIG    1       -6.502   5.017   4.732  0.00  0.00    -0.560 N 
ATOM      7  C   LIG    1       -5.305   4.974   4.011  0.00  0.00    +0.200 A 
ATOM      8  C   LIG    1       -4.914   5.722   2.900  0.00  0.00    +0.000 A 
ATOM      9  C   LIG    1       -3.672   5.528   2.333  0.00  0.00    +0.150 A 
ATOM     10  C   LIG    1       -2.808   4.584   2.856  0.00  0.00    -0.700 A 
ATOM     11  C   LIG    1       -3.188   3.840   3.958  0.00  0.00    +0.160 A 
ATOM     12  C   LIG    1       -4.429   4.034   4.532  0.00  0.00    -0.160 A 
ATOM     13  C   LIG    1       -5.087   3.369   5.720  0.00  0.00    +0.120 C 
ATOM     14  C   LIG    1       -6.464   4.044   5.828  0.00  0.00    +0.220 C 
ATOM     15  C   LIG    1       -7.577   3.009   5.658  0.00  0.00    +0.050 C 
ATOM     16  O   LIG    1       -7.511   6.541   3.475  0.00  0.00    -0.510 OA
ENDBRANCH   1  10
BRANCH   1  17
ATOM     17  N   LIG    1       -1.398   3.164   0.966  0.00  0.00    -0.990 NA
ATOM     18  C   LIG    1       -1.069   1.760   1.256  0.00  0.00    +0.290 C 
ATOM     19  C   LIG    1       -0.130   1.244   0.161  0.00  0.00    +0.190 C 
ATOM     20  N   LIG    1       -0.740   1.481  -1.155  0.00  0.00    -0.530 NA
ATOM     21  C   LIG    1       -0.915   2.917  -1.411  0.00  0.00    +0.180 C 
ATOM     22  C   LIG    1       -1.887   3.501  -0.380  0.00  0.00    +0.240 C 
ATOM     23  C   LIG    1       -1.954   5.021  -0.541  0.00  0.00    +0.050 C 
BRANCH  20  24
ATOM     24  C   LIG    1        0.047   0.848  -2.222  0.00  0.00    +0.190 C 
BRANCH  24  25
ATOM     25  C   LIG    1        1.411   1.533  -2.324  0.00  0.00    +0.160 C 
ATOM     26  C   LIG    1        2.183   0.959  -3.514  0.00  0.00    +0.010 C 
BRANCH  25  27
ATOM     27  O   LIG    1        2.150   1.305  -1.123  0.00  0.00    -0.560 OA
ATOM     28  H   LIG    1        2.314   0.371  -0.933  0.00  0.00    +0.370 HD
ENDBRANCH  25  27
ENDBRANCH  24  25
ENDBRANCH  20  24
ENDBRANCH   1  17
TORSDOF 5
