REMARK  Name = ZINCqH0000037py3.0
REMARK                            x       y       z     vdW  Elec       q    Type
REMARK                         _______ _______ _______ _____ _____    ______ ____
ROOT
ATOM      1  C   LIG    1       -2.016  -1.286   3.446  0.00  0.00    +0.090 A 
ATOM      2  C   LIG    1       -1.493  -2.315   4.225  0.00  0.00    +0.110 A 
ATOM      3  C   LIG    1       -2.236  -2.772   5.299  0.00  0.00    +0.000 A 
ATOM      4  C   LIG    1       -3.476  -2.202   5.556  0.00  0.00    +0.290 A 
ATOM      5  N   LIG    1       -3.945  -1.229   4.792  0.00  0.00    -0.500 NA
ATOM      6  C   LIG    1       -3.262  -0.764   3.764  0.00  0.00    +0.270 A 
ENDROOT
BRANCH   1  16
ATOM      7  C   LIG    1        2.855   0.246   3.434  0.00  0.00    +0.020 C 
ATOM      8  C   LIG    1        2.867   0.552   1.935  0.00  0.00    -0.010 C 
ATOM      9  C   LIG    1        2.163  -0.598   1.185  0.00  0.00    +0.290 C 
ATOM     10  N   LIG    1        0.733  -0.509   1.231  0.00  0.00    -0.620 N 
ATOM     11  C   LIG    1        0.026   0.006   0.024  0.00  0.00    +0.280 C 
ATOM     12  C   LIG    1       -0.009   1.450   0.009  0.00  0.00    -0.230 C 
ATOM     13  S   LIG    1        1.673   2.163  -0.002  0.00  0.00    +1.260 S 
ATOM     14  O   LIG    1        2.507   1.395  -0.859  0.00  0.00    -0.840 OA
ATOM     15  C   LIG    1        0.048  -0.879   2.332  0.00  0.00    +0.710 C 
ATOM     16  N   LIG    1       -1.296  -0.786   2.352  0.00  0.00    -0.680 N 
ATOM     17  H   LIG    1       -1.765  -0.374   1.610  0.00  0.00    +0.410 HD
ATOM     18  O   LIG    1        0.644  -1.296   3.306  0.00  0.00    -0.560 OA
ATOM     19  C   LIG    1        2.182   1.922   1.698  0.00  0.00    -0.220 C 
ENDBRANCH   1  16
BRANCH   4  20
ATOM     20  O   LIG    1       -4.216  -2.648   6.603  0.00  0.00    -0.250 OA
BRANCH  20  21
ATOM     21  C   LIG    1       -5.467  -2.142   6.762  0.00  0.00    +0.100 A 
ATOM     22  C   LIG    1       -5.768  -1.372   7.877  0.00  0.00    +0.030 A 
ATOM     23  C   LIG    1       -7.039  -0.854   8.034  0.00  0.00    +0.040 A 
ATOM     24  C   LIG    1       -8.014  -1.112   7.087  0.00  0.00    -0.040 A 
ATOM     25  C   LIG    1       -7.717  -1.884   5.978  0.00  0.00    +0.050 A 
ATOM     26 CL   LIG    1       -9.613  -0.466   7.291  0.00  0.00    -0.060 Cl
ATOM     27  C   LIG    1       -6.446  -2.399   5.814  0.00  0.00    +0.020 A 
ENDBRANCH  20  21
ENDBRANCH   4  20
TORSDOF 3
