REMARK  Name = ZINCrg000000rWZe.0
REMARK                            x       y       z     vdW  Elec       q    Type
REMARK                         _______ _______ _______ _____ _____    ______ ____
ROOT
ATOM      1  C   LIG    1        5.525   3.271  -3.035  0.00  0.00    +0.330 C 
ATOM      2  C   LIG    1        4.713   4.404  -3.664  0.00  0.00    +0.030 C 
ENDROOT
BRANCH   1   5
ATOM      3  C   LIG    1        7.353   2.902  -5.547  0.00  0.00    +0.160 C 
ATOM      4  C   LIG    1        7.784   3.438  -4.206  0.00  0.00    +0.110 A 
ATOM      5  C   LIG    1        6.994   3.599  -3.119  0.00  0.00    -0.240 A 
ATOM      6  C   LIG    1        7.782   4.117  -2.086  0.00  0.00    +0.250 A 
ATOM      7  N   LIG    1        9.001   4.267  -2.537  0.00  0.00    -0.280 NA
ATOM      8  N   LIG    1        9.028   3.849  -3.874  0.00  0.00    -0.320 N 
BRANCH   8   9
ATOM      9  C   LIG    1       10.149   3.851  -4.717  0.00  0.00    +0.140 A 
ATOM     10  C   LIG    1       11.385   3.445  -4.232  0.00  0.00    +0.060 A 
ATOM     11  C   LIG    1       12.486   3.442  -5.065  0.00  0.00    +0.010 A 
ATOM     12  C   LIG    1       12.361   3.856  -6.381  0.00  0.00    +0.110 A 
ATOM     13  C   LIG    1       11.130   4.267  -6.865  0.00  0.00    +0.020 A 
ATOM     14  F   LIG    1       13.441   3.858  -7.193  0.00  0.00    -0.130 F 
ATOM     15  C   LIG    1       10.026   4.265  -6.036  0.00  0.00    +0.050 A 
ENDBRANCH   8   9
ENDBRANCH   1   5
BRANCH   1  16
ATOM     16  N   LIG    1        5.139   3.115  -1.630  0.00  0.00    -0.720 N 
ATOM     17  H   LIG    1        5.652   3.557  -0.935  0.00  0.00    +0.400 HD
ATOM     18  C   LIG    1        4.073   2.358  -1.304  0.00  0.00    +0.500 C 
ATOM     19  O   LIG    1        3.433   1.806  -2.173  0.00  0.00    -0.520 OA
BRANCH  18  20
ATOM     20  C   LIG    1        3.676   2.198   0.141  0.00  0.00    +0.360 C 
BRANCH  20  21
ATOM     21  N   LIG    1        2.496   1.335   0.231  0.00  0.00    -0.520 N 
ATOM     22  C   LIG    1        2.654  -0.018   0.360  0.00  0.00    +0.360 A 
ATOM     23  C   LIG    1        1.566  -0.813   0.442  0.00  0.00    -0.120 A 
ATOM     24  C   LIG    1        0.278  -0.226   0.393  0.00  0.00    +0.550 A 
ATOM     25  N   LIG    1        0.165   1.111   0.265  0.00  0.00    -0.660 N 
ATOM     26  H   LIG    1       -0.713   1.521   0.227  0.00  0.00    +0.430 HD
ATOM     27  O   LIG    1       -0.718  -0.923   0.465  0.00  0.00    -0.510 OA
ATOM     28  C   LIG    1        1.267   1.881   0.185  0.00  0.00    +0.700 A 
ATOM     29  O   LIG    1        1.150   3.086   0.070  0.00  0.00    -0.540 OA
ENDBRANCH  20  21
ENDBRANCH  18  20
ENDBRANCH   1  16
TORSDOF 5
