REMARK  Name = ZINCpk00000xM3uQ.0
REMARK                            x       y       z     vdW  Elec       q    Type
REMARK                         _______ _______ _______ _____ _____    ______ ____
ROOT
ATOM      1  C   LIG    1       -0.228   1.597   2.334  0.00  0.00    +0.650 C 
ATOM      2  N   LIG    1       -0.794   2.004   3.487  0.00  0.00    -0.590 N 
ATOM      3  C   LIG    1       -1.997   2.848   3.474  0.00  0.00    +0.290 C 
ATOM      4  C   LIG    1       -3.073   2.177   4.343  0.00  0.00    +0.000 C 
ATOM      5  C   LIG    1       -2.504   1.917   5.739  0.00  0.00    +0.190 C 
ATOM      6  C   LIG    1       -1.308   0.967   5.635  0.00  0.00    +0.070 C 
ATOM      7  C   LIG    1       -0.216   1.619   4.782  0.00  0.00    +0.310 C 
ATOM      8  O   LIG    1        0.769   0.904   2.358  0.00  0.00    -0.570 OA
ENDROOT
BRANCH   5   9
ATOM      9  C   LIG    1       -3.567   1.293   6.606  0.00  0.00    +0.130 A 
ATOM     10  C   LIG    1       -4.742   1.977   6.840  0.00  0.00    -0.050 A 
ATOM     11  C   LIG    1       -5.719   1.397   7.640  0.00  0.00    +0.090 A 
ATOM     12  C   LIG    1       -5.475   0.146   8.177  0.00  0.00    -0.040 A 
ATOM     13  C   LIG    1       -4.267  -0.486   7.899  0.00  0.00    +0.290 A 
ATOM     14  N   LIG    1       -3.363   0.098   7.127  0.00  0.00    -0.490 NA
BRANCH  13  15
ATOM     15  N   LIG    1       -4.009  -1.743   8.432  0.00  0.00    -0.420 N 
ATOM     16  C   LIG    1       -4.080  -1.718   9.905  0.00  0.00    +0.170 C 
ATOM     17  C   LIG    1       -2.840  -2.622   9.925  0.00  0.00    +0.170 C 
ATOM     18  C   LIG    1       -2.558  -1.975   8.562  0.00  0.00    +0.230 C 
BRANCH  17  19
ATOM     19  O   LIG    1       -1.887  -2.293  10.938  0.00  0.00    -0.550 OA
ATOM     20  H   LIG    1       -2.067  -2.702  11.795  0.00  0.00    +0.380 HD
ENDBRANCH  17  19
ENDBRANCH  13  15
ENDBRANCH   5   9
BRANCH   5  21
ATOM     21  O   LIG    1       -2.081   3.152   6.319  0.00  0.00    -0.540 OA
ATOM     22  H   LIG    1       -2.789   3.804   6.416  0.00  0.00    +0.380 HD
ENDBRANCH   5  21
BRANCH   1  23
ATOM     23  O   LIG    1       -0.769   1.958   1.155  0.00  0.00    -0.360 OA
BRANCH  23  25
ATOM     24  C   LIG    1       -0.094  -0.047  -0.052  0.00  0.00    +0.040 C 
ATOM     25  C   LIG    1       -0.107   1.483  -0.047  0.00  0.00    +0.140 C 
ATOM     26  C   LIG    1       -0.860   1.991  -1.279  0.00  0.00    +0.080 C 
ATOM     27  C   LIG    1        1.331   2.005  -0.077  0.00  0.00    +0.040 C 
ENDBRANCH  23  25
ENDBRANCH   1  23
TORSDOF 6
