REMARK  Name = ZINCpe000000Wzsu.0
REMARK                            x       y       z     vdW  Elec       q    Type
REMARK                         _______ _______ _______ _____ _____    ______ ____
ROOT
ATOM      1  C   LIG    1       -1.439   6.181   0.047  0.00  0.00    +0.510 C 
ATOM      2  N   LIG    1       -1.696   7.504   0.056  0.00  0.00    -0.520 N 
ATOM      3  H   LIG    1       -0.965   8.140   0.053  0.00  0.00    +0.440 HD
ATOM      4  O   LIG    1       -2.354   5.385   0.052  0.00  0.00    -0.540 OA
ENDROOT
BRANCH   2   5
ATOM      5  N   LIG    1       -3.021   7.959   0.071  0.00  0.00    -0.530 N 
ATOM      6  H   LIG    1       -3.753   7.322   0.074  0.00  0.00    +0.430 HD
ATOM      7  C   LIG    1       -3.279   9.282   0.080  0.00  0.00    +0.520 C 
ATOM      8  O   LIG    1       -2.364  10.078   0.075  0.00  0.00    -0.520 OA
BRANCH   7   9
ATOM      9  C   LIG    1       -4.704   9.772   0.096  0.00  0.00    +0.130 C 
BRANCH   9  10
ATOM     10  C   LIG    1       -4.717  11.279   0.103  0.00  0.00    -0.070 A 
ATOM     11  C   LIG    1       -4.717  11.964   1.304  0.00  0.00    +0.020 A 
ATOM     12  C   LIG    1       -4.724  13.346   1.311  0.00  0.00    +0.000 A 
ATOM     13  C   LIG    1       -4.742  14.044   0.118  0.00  0.00    +0.000 A 
ATOM     14  C   LIG    1       -4.747  13.358  -1.083  0.00  0.00    +0.000 A 
ATOM     15  C   LIG    1       -4.734  11.976  -1.090  0.00  0.00    +0.020 A 
ENDBRANCH   9  10
ENDBRANCH   7   9
ENDBRANCH   2   5
BRANCH   1  16
ATOM     16  C   LIG    1       -0.014   5.691   0.031  0.00  0.00    +0.330 C 
BRANCH  16  18
ATOM     17  C   LIG    1        1.172   3.562   0.009  0.00  0.00    +0.570 C 
ATOM     18  N   LIG    1       -0.001   4.226   0.024  0.00  0.00    -0.720 N 
ATOM     19  H   LIG    1       -0.837   3.734   0.029  0.00  0.00    +0.410 HD
ATOM     20  O   LIG    1        2.219   4.179   0.003  0.00  0.00    -0.510 OA
BRANCH  17  26
ATOM     21  C   LIG    1        2.402   1.393  -0.013  0.00  0.00    +0.190 A 
ATOM     22  C   LIG    1        2.402   0.006  -0.020  0.00  0.00    -0.080 A 
ATOM     23  C   LIG    1        1.207  -0.686  -0.013  0.00  0.00    +0.080 A 
ATOM     24  C   LIG    1        0.002  -0.004   0.002  0.00  0.00    -0.040 A 
ATOM     25  C   LIG    1       -0.017   1.374   0.010  0.00  0.00    +0.080 A 
ATOM     26  C   LIG    1        1.185   2.087   0.002  0.00  0.00    -0.180 A 
BRANCH  21  28
ATOM     27  C   LIG    1        4.775   1.299  -0.037  0.00  0.00    +0.240 C 
ATOM     28  O   LIG    1        3.575   2.074  -0.021  0.00  0.00    -0.280 OA
ENDBRANCH  21  28
ENDBRANCH  17  26
ENDBRANCH  16  18
ENDBRANCH   1  16
TORSDOF 7
