REMARK  Name = ZINCrD000001YK22.0
REMARK                            x       y       z     vdW  Elec       q    Type
REMARK                         _______ _______ _______ _____ _____    ______ ____
ROOT
ATOM      1  C   LIG    1       -2.932   1.592   0.746  0.00  0.00    +0.550 C 
ATOM      2  N   LIG    1       -1.797   0.976   0.361  0.00  0.00    -0.610 N 
ATOM      3  C   LIG    1       -1.535   0.415  -0.977  0.00  0.00    +0.250 C 
ATOM      4  C   LIG    1        0.009   0.405  -1.107  0.00  0.00    +0.040 C 
ATOM      5  C   LIG    1        0.441   0.036   0.337  0.00  0.00    +0.030 C 
ATOM      6  C   LIG    1       -0.612   0.750   1.210  0.00  0.00    +0.170 C 
ATOM      7  C   LIG    1       -0.059   2.090   1.701  0.00  0.00    +0.040 C 
ATOM      8  O   LIG    1       -3.061   1.963   1.894  0.00  0.00    -0.520 OA
ENDROOT
BRANCH   1  14
ATOM      9  C   LIG    1       -4.595   3.004  -3.527  0.00  0.00    +0.550 C 
ATOM     10  N   LIG    1       -4.712   3.135  -2.191  0.00  0.00    -0.610 N 
ATOM     11  C   LIG    1       -5.974   3.587  -1.590  0.00  0.00    +0.260 C 
ATOM     12  C   LIG    1       -6.408   2.571  -0.529  0.00  0.00    +0.010 C 
ATOM     13  C   LIG    1       -5.271   2.371   0.475  0.00  0.00    +0.050 C 
ATOM     14  C   LIG    1       -4.041   1.819  -0.249  0.00  0.00    -0.030 C 
ATOM     15  C   LIG    1       -3.580   2.826  -1.306  0.00  0.00    +0.290 C 
ATOM     16  O   LIG    1       -3.568   2.564  -4.007  0.00  0.00    -0.540 OA
BRANCH   9  18
ATOM     17  C   LIG    1       -5.638   3.166  -5.713  0.00  0.00    +0.140 C 
ATOM     18  C   LIG    1       -5.709   3.395  -4.404  0.00  0.00    -0.090 C 
ENDBRANCH   9  18
ENDBRANCH   1  14
BRANCH   6  19
ATOM     19  C   LIG    1       -0.983  -0.132   2.404  0.00  0.00    +0.100 C 
BRANCH  19  20
ATOM     20  C   LIG    1       -1.543  -1.440   1.908  0.00  0.00    -0.080 A 
ATOM     21  C   LIG    1       -0.702  -2.515   1.696  0.00  0.00    +0.020 A 
ATOM     22  C   LIG    1       -1.216  -3.717   1.241  0.00  0.00    +0.090 A 
ATOM     23  C   LIG    1       -2.573  -3.841   0.997  0.00  0.00    +0.020 A 
ATOM     24  C   LIG    1       -3.414  -2.765   1.209  0.00  0.00    +0.020 A 
ATOM     25  F   LIG    1       -0.394  -4.769   1.034  0.00  0.00    -0.130 F 
ATOM     26  C   LIG    1       -2.901  -1.565   1.670  0.00  0.00    +0.100 A 
ATOM     27  F   LIG    1       -3.724  -0.515   1.882  0.00  0.00    -0.120 F 
ENDBRANCH  19  20
ENDBRANCH   6  19
TORSDOF 4
