REMARK  Name = ZINCqH0000008sy2.0
REMARK                            x       y       z     vdW  Elec       q    Type
REMARK                         _______ _______ _______ _____ _____    ______ ____
ROOT
ATOM      1  N   LIG    1        2.358   3.898   0.022  0.00  0.00    -0.730 N 
ATOM      2  H   LIG    1        2.345   4.868   0.022  0.00  0.00    +0.410 HD
ENDROOT
BRANCH   1   3
ATOM      3  C   LIG    1        1.159   3.183   0.040  0.00  0.00    +0.210 A 
ATOM      4  C   LIG    1        1.176   1.794   0.038  0.00  0.00    -0.070 A 
ATOM      5  C   LIG    1       -0.012   1.090   0.057  0.00  0.00    +0.050 A 
ATOM      6  C   LIG    1       -1.218   1.766   0.070  0.00  0.00    -0.030 A 
ATOM      7  C   LIG    1       -1.239   3.149   0.077  0.00  0.00    -0.070 A 
ATOM      8  C   LIG    1       -0.055   3.859   0.059  0.00  0.00    -0.050 A 
BRANCH   7   9
ATOM      9  C   LIG    1       -2.555   3.882   0.098  0.00  0.00    +0.380 C 
BRANCH   9  10
ATOM     10  N   LIG    1       -3.004   4.120  -1.276  0.00  0.00    -0.630 N 
ATOM     11  C   LIG    1       -2.688   5.308  -2.085  0.00  0.00    +0.240 C 
ATOM     12  C   LIG    1       -3.399   5.038  -3.425  0.00  0.00    +0.260 C 
ATOM     13  O   LIG    1       -4.042   3.745  -3.230  0.00  0.00    -0.330 OA
ATOM     14  C   LIG    1       -3.773   3.295  -1.999  0.00  0.00    +0.640 C 
ATOM     15  O   LIG    1       -4.188   2.234  -1.575  0.00  0.00    -0.520 OA
ENDBRANCH   9  10
ENDBRANCH   7   9
ENDBRANCH   1   3
BRANCH   1  17
ATOM     16  C   LIG    1        4.043   2.823   1.433  0.00  0.00    +0.050 C 
ATOM     17  C   LIG    1        3.637   3.183   0.002  0.00  0.00    +0.250 C 
BRANCH  17  18
ATOM     18  C   LIG    1        4.695   4.062  -0.615  0.00  0.00    +0.520 C 
ATOM     19  N   LIG    1        5.958   3.610  -0.738  0.00  0.00    -0.670 N 
ATOM     20  H   LIG    1        6.202   2.745  -0.372  0.00  0.00    +0.410 HD
ATOM     21  O   LIG    1        4.409   5.176  -0.999  0.00  0.00    -0.510 OA
BRANCH  19  22
ATOM     22  C   LIG    1        6.919   4.388  -1.394  0.00  0.00    +0.150 A 
ATOM     23  C   LIG    1        6.882   5.772  -1.290  0.00  0.00    +0.040 A 
ATOM     24  C   LIG    1        7.832   6.538  -1.939  0.00  0.00    +0.030 A 
ATOM     25  C   LIG    1        8.818   5.928  -2.692  0.00  0.00    +0.020 A 
ATOM     26  C   LIG    1        8.857   4.550  -2.799  0.00  0.00    +0.050 A 
ATOM     27  C   LIG    1        7.915   3.778  -2.147  0.00  0.00    -0.060 A 
ATOM     28 CL   LIG    1        7.970   2.047  -2.275  0.00  0.00    -0.060 Cl
ENDBRANCH  19  22
ENDBRANCH  17  18
ENDBRANCH   1  17
TORSDOF 6
