REMARK  Name = ZINCqH0000007Kyz.0
REMARK                            x       y       z     vdW  Elec       q    Type
REMARK                         _______ _______ _______ _____ _____    ______ ____
ROOT
ATOM      1  C   LIG    1       -2.462  -2.869   0.009  0.00  0.00    +0.220 C 
ATOM      2  C   LIG    1       -2.768  -3.422  -1.405  0.00  0.00    +0.050 C 
ATOM      3  C   LIG    1       -3.687  -4.629  -1.078  0.00  0.00    -0.030 C 
ATOM      4  C   LIG    1       -3.093  -5.171   0.239  0.00  0.00    +0.230 C 
ATOM      5  C   LIG    1       -3.611  -5.686  -2.181  0.00  0.00    +0.040 C 
ATOM      6  N   LIG    1       -2.339  -4.069   0.865  0.00  0.00    -0.450 N 
ENDROOT
BRANCH   6   7
ATOM      7  C   LIG    1       -2.803  -3.814   2.144  0.00  0.00    +0.430 A 
ATOM      8  C   LIG    1       -2.782  -4.816   3.129  0.00  0.00    -0.060 A 
ATOM      9  N   LIG    1       -2.384  -6.111   3.163  0.00  0.00    -0.450 NA
ATOM     10  C   LIG    1       -2.588  -6.596   4.353  0.00  0.00    +0.480 A 
ATOM     11  N   LIG    1       -3.131  -5.639   5.159  0.00  0.00    -0.450 N 
ATOM     12  C   LIG    1       -3.266  -4.498   4.409  0.00  0.00    +0.290 A 
ATOM     13  N   LIG    1       -3.723  -3.272   4.641  0.00  0.00    -0.540 NA
ATOM     14  C   LIG    1       -3.723  -2.365   3.687  0.00  0.00    +0.550 A 
ATOM     15  N   LIG    1       -3.274  -2.615   2.471  0.00  0.00    -0.560 NA
BRANCH  11  16
ATOM     16  C   LIG    1       -3.503  -5.801   6.566  0.00  0.00    +0.210 C 
ATOM     17  C   LIG    1       -3.083  -7.096   7.264  0.00  0.00    +0.060 C 
ATOM     18  C   LIG    1       -4.551  -6.863   6.903  0.00  0.00    +0.030 C 
ENDBRANCH  11  16
ENDBRANCH   6   7
BRANCH   1  23
ATOM     19  C   LIG    1        0.002  -0.004   0.002  0.00  0.00    +0.120 A 
ATOM     20  C   LIG    1        1.212  -0.682  -0.013  0.00  0.00    -0.080 A 
ATOM     21  C   LIG    1        1.228  -2.064  -0.021  0.00  0.00    +0.030 A 
ATOM     22  C   LIG    1        0.040  -2.770  -0.013  0.00  0.00    +0.000 A 
ATOM     23  C   LIG    1       -1.168  -2.096   0.001  0.00  0.00    -0.030 A 
ATOM     24  C   LIG    1       -1.189  -0.715   0.015  0.00  0.00    -0.010 A 
BRANCH  19  26
ATOM     25  C   LIG    1        1.248   2.021   0.001  0.00  0.00    +0.230 C 
ATOM     26  O   LIG    1       -0.016   1.355   0.009  0.00  0.00    -0.320 OA
ENDBRANCH  19  26
ENDBRANCH   1  23
TORSDOF 4
