REMARK  Name = ZINCtV00000L6jTr.0
REMARK                            x       y       z     vdW  Elec       q    Type
REMARK                         _______ _______ _______ _____ _____    ______ ____
ROOT
ATOM      1  C   LIG    1       -3.813   3.104   0.052  0.00  0.00    +0.240 C 
ENDROOT
BRANCH   1   2
ATOM      2  C   LIG    1       -2.515   3.870   0.044  0.00  0.00    +0.400 C 
ATOM      3  O   LIG    1       -2.526   5.082   0.050  0.00  0.00    -0.420 OA
BRANCH   2   4
ATOM      4  C   LIG    1       -1.234   3.146   0.029  0.00  0.00    -0.170 A 
ATOM      5  C   LIG    1       -1.217   1.747   0.017  0.00  0.00    +0.060 A 
ATOM      6  C   LIG    1       -0.013   1.076   0.008  0.00  0.00    +0.000 A 
ATOM      7  C   LIG    1        1.178   1.782   0.000  0.00  0.00    -0.040 A 
ATOM      8  C   LIG    1        1.169   3.166   0.008  0.00  0.00    +0.000 A 
ATOM      9  C   LIG    1       -0.027   3.852   0.022  0.00  0.00    +0.090 A 
BRANCH   7  10
ATOM     10  C   LIG    1        2.489   1.041  -0.016  0.00  0.00    +0.030 C 
ATOM     11  C   LIG    1        3.300   1.411   1.228  0.00  0.00    +0.020 C 
ATOM     12  C   LIG    1        4.632   0.658   1.212  0.00  0.00    +0.000 C 
ATOM     13  C   LIG    1        5.419   1.041  -0.043  0.00  0.00    +0.000 C 
ATOM     14  C   LIG    1        4.608   0.671  -1.287  0.00  0.00    +0.000 C 
ATOM     15  C   LIG    1        3.277   1.424  -1.270  0.00  0.00    +0.020 C 
ENDBRANCH   7  10
ENDBRANCH   2   4
ENDBRANCH   1   2
BRANCH   1  16
ATOM     16  O   LIG    1       -4.925   4.038   0.066  0.00  0.00    -0.320 OA
BRANCH  16  17
ATOM     17  C   LIG    1       -6.166   3.511   0.074  0.00  0.00    +0.550 C 
ATOM     18  O   LIG    1       -6.315   2.305   0.070  0.00  0.00    -0.480 OA
BRANCH  17  21
ATOM     19  C   LIG    1       -9.126   2.554   0.083  0.00  0.00    +0.160 C 
ATOM     20  C   LIG    1       -8.632   3.978   0.093  0.00  0.00    -0.050 A 
ATOM     21  C   LIG    1       -7.339   4.395   0.089  0.00  0.00    -0.020 A 
ATOM     22  O   LIG    1       -7.295   5.744   0.095  0.00  0.00    -0.160 OA
ATOM     23  C   LIG    1       -8.537   6.265   0.108  0.00  0.00    +0.100 A 
ATOM     24  C   LIG    1       -9.024   7.566   0.118  0.00  0.00    +0.050 A 
ATOM     25  C   LIG    1      -10.383   7.791   0.131  0.00  0.00    +0.100 A 
ATOM     26  C   LIG    1      -11.278   6.729   0.135  0.00  0.00    -0.110 A 
ATOM     27  C   LIG    1      -10.823   5.440   0.126  0.00  0.00    +0.120 A 
ATOM     28 BR   LIG    1      -13.138   7.068   0.154  0.00  0.00    -0.030 Br
ATOM     29  C   LIG    1       -9.448   5.191   0.112  0.00  0.00    -0.150 A 
ENDBRANCH  17  21
ENDBRANCH  16  17
ENDBRANCH   1  16
TORSDOF 6
