REMARK  Name = ZINCqH0000038VF2.1
REMARK                            x       y       z     vdW  Elec       q    Type
REMARK                         _______ _______ _______ _____ _____    ______ ____
ROOT
ATOM      1  C   LIG    1        0.021  -2.597   0.599  0.00  0.00    -0.150 A 
ATOM      2  C   LIG    1        0.718  -2.020  -0.468  0.00  0.00    +0.090 A 
ATOM      3  C   LIG    1        0.675  -0.663  -0.659  0.00  0.00    +0.020 A 
ATOM      4  C   LIG    1       -0.061   0.141   0.208  0.00  0.00    +0.150 A 
ATOM      5  C   LIG    1       -0.752  -0.430   1.274  0.00  0.00    +0.010 A 
ATOM      6  C   LIG    1       -0.718  -1.787   1.468  0.00  0.00    +0.120 A 
ENDROOT
BRANCH   1   7
ATOM      7  C   LIG    1        0.065  -4.056   0.808  0.00  0.00    +0.490 C 
ATOM      8  O   LIG    1        0.793  -4.747   0.121  0.00  0.00    -0.450 OA
BRANCH   7  14
ATOM      9  C   LIG    1       -0.248  -7.096   1.331  0.00  0.00    +0.340 C 
ATOM     10  N   LIG    1       -0.906  -6.018   2.074  0.00  0.00    -0.420 N 
ATOM     11  C   LIG    1       -1.761  -6.164   3.114  0.00  0.00    +0.170 A 
ATOM     12  C   LIG    1       -2.134  -4.919   3.504  0.00  0.00    +0.160 A 
ATOM     13  N   LIG    1       -1.516  -4.034   2.725  0.00  0.00    -0.430 NA
ATOM     14  C   LIG    1       -0.772  -4.677   1.848  0.00  0.00    +0.110 A 
ENDBRANCH   7  14
ENDBRANCH   1   7
BRANCH   4  15
ATOM     15  N   LIG    1       -0.102   1.516   0.012  0.00  0.00    -1.060 N 
ATOM     16  H   LIG    1        0.413   2.103   0.587  0.00  0.00    +0.430 HD
BRANCH  15  17
ATOM     17  S   LIG    1       -1.025   2.151  -1.208  0.00  0.00    +2.690 S 
ATOM     18  O   LIG    1       -0.700   1.418  -2.381  0.00  0.00    -0.930 OA
ATOM     19  O   LIG    1       -0.897   3.564  -1.113  0.00  0.00    -0.940 OA
BRANCH  17  20
ATOM     20  C   LIG    1       -2.707   1.778  -0.838  0.00  0.00    -0.660 A 
ATOM     21  C   LIG    1       -3.244   0.563  -1.218  0.00  0.00    +0.160 A 
ATOM     22  C   LIG    1       -4.564   0.268  -0.924  0.00  0.00    -0.040 A 
ATOM     23  C   LIG    1       -5.347   1.193  -0.258  0.00  0.00    +0.120 A 
ATOM     24  C   LIG    1       -4.810   2.411   0.117  0.00  0.00    -0.050 A 
ATOM     25 CL   LIG    1       -5.793   3.574   0.952  0.00  0.00    -0.040 Cl
ATOM     26 CL   LIG    1       -5.237  -1.261  -1.395  0.00  0.00    -0.040 Cl
ATOM     27  C   LIG    1       -3.489   2.703  -0.173  0.00  0.00    +0.150 A 
ENDBRANCH  17  20
ENDBRANCH  15  17
ENDBRANCH   4  15
TORSDOF 5
