REMARK  Name = ZINCkj00000wVNnx.1
REMARK                            x       y       z     vdW  Elec       q    Type
REMARK                         _______ _______ _______ _____ _____    ______ ____
ROOT
ATOM      1  C   LIG    1       -4.026   0.837   3.027  0.00  0.00    +0.500 C 
ATOM      2  N   LIG    1       -5.154   1.415   3.486  0.00  0.00    -0.580 N 
ATOM      3  C   LIG    1       -5.224   2.869   3.681  0.00  0.00    +0.280 C 
ATOM      4  C   LIG    1       -5.680   3.158   5.110  0.00  0.00    +0.020 C 
ATOM      5  C   LIG    1       -6.994   2.423   5.382  0.00  0.00    +0.020 C 
ATOM      6  C   LIG    1       -6.777   0.915   5.238  0.00  0.00    +0.040 C 
ATOM      7  C   LIG    1       -6.335   0.601   3.805  0.00  0.00    +0.220 C 
ATOM      8  O   LIG    1       -3.946  -0.371   2.965  0.00  0.00    -0.530 OA
ENDROOT
BRANCH   1   9
ATOM      9  C   LIG    1       -2.865   1.693   2.592  0.00  0.00    +0.290 C 
BRANCH   9  11
ATOM     10  C   LIG    1       -1.263   0.040   3.269  0.00  0.00    +0.320 C 
ATOM     11  N   LIG    1       -1.765   0.831   2.138  0.00  0.00    -0.340 N 
ATOM     12  H   LIG    1       -2.100   0.211   1.416  0.00  0.00    +0.430 HD
BRANCH  11  13
ATOM     13  C   LIG    1       -0.679   1.664   1.602  0.00  0.00    +0.090 C 
ATOM     14  C   LIG    1        0.565   0.948   1.074  0.00  0.00    +0.110 C 
ATOM     15  C   LIG    1       -0.415   1.598   0.096  0.00  0.00    +0.110 C 
ENDBRANCH  11  13
ENDBRANCH   9  11
ENDBRANCH   1   9
BRANCH   7  16
ATOM     16  C   LIG    1       -5.982  -0.883   3.691  0.00  0.00    +0.350 C 
BRANCH  16  17
ATOM     17  N   LIG    1       -7.174  -1.691   3.961  0.00  0.00    -0.380 N 
ATOM     18  C   LIG    1       -7.699  -2.628   3.145  0.00  0.00    +0.220 A 
ATOM     19  C   LIG    1       -8.791  -3.143   3.756  0.00  0.00    -0.120 A 
ATOM     20  C   LIG    1       -8.938  -2.497   4.989  0.00  0.00    +0.240 A 
ATOM     21  N   LIG    1       -7.966  -1.631   5.115  0.00  0.00    -0.300 NA
ENDBRANCH  16  17
ENDBRANCH   7  16
TORSDOF 5
