REMARK  Name = ZINCkj00000wVNnx.0
REMARK                            x       y       z     vdW  Elec       q    Type
REMARK                         _______ _______ _______ _____ _____    ______ ____
ROOT
ATOM      1  C   LIG    1       -0.034   1.194   0.316  0.00  0.00    +0.500 C 
ATOM      2  N   LIG    1       -1.181   1.860   0.079  0.00  0.00    -0.580 N 
ATOM      3  C   LIG    1       -1.215   3.328   0.111  0.00  0.00    +0.280 C 
ATOM      4  C   LIG    1       -2.321   3.775   1.074  0.00  0.00    +0.020 C 
ATOM      5  C   LIG    1       -3.643   3.124   0.662  0.00  0.00    +0.020 C 
ATOM      6  C   LIG    1       -3.514   1.602   0.748  0.00  0.00    +0.040 C 
ATOM      7  C   LIG    1       -2.421   1.131  -0.223  0.00  0.00    +0.220 C 
ATOM      8  O   LIG    1       -0.037  -0.017   0.381  0.00  0.00    -0.530 OA
ENDROOT
BRANCH   1   9
ATOM      9  C   LIG    1        1.255   1.954   0.495  0.00  0.00    +0.290 C 
BRANCH   9  11
ATOM     10  C   LIG    1        2.553   0.179  -0.463  0.00  0.00    +0.340 C 
ATOM     11  N   LIG    1        2.353   1.008   0.733  0.00  0.00    -0.340 N 
ATOM     12  H   LIG    1        2.123   0.416   1.518  0.00  0.00    +0.430 HD
BRANCH  11  13
ATOM     13  C   LIG    1        3.586   1.751   1.026  0.00  0.00    +0.090 C 
ATOM     14  C   LIG    1        4.362   1.364   2.286  0.00  0.00    +0.110 C 
ATOM     15  C   LIG    1        3.579   2.678   2.244  0.00  0.00    +0.100 C 
ENDBRANCH  11  13
ENDBRANCH   9  11
ENDBRANCH   1   9
BRANCH   7  16
ATOM     16  C   LIG    1       -2.188  -0.371  -0.048  0.00  0.00    +0.350 C 
BRANCH  16  17
ATOM     17  N   LIG    1       -3.410  -1.099  -0.399  0.00  0.00    -0.380 N 
ATOM     18  C   LIG    1       -3.511  -2.087  -1.312  0.00  0.00    +0.220 A 
ATOM     19  C   LIG    1       -4.802  -2.495  -1.338  0.00  0.00    -0.120 A 
ATOM     20  C   LIG    1       -5.513  -1.728  -0.409  0.00  0.00    +0.240 A 
ATOM     21  N   LIG    1       -4.679  -0.895   0.158  0.00  0.00    -0.300 NA
ENDBRANCH  16  17
ENDBRANCH   7  16
TORSDOF 5
