REMARK  Name = ZINCkj000005jUSI.1
REMARK                            x       y       z     vdW  Elec       q    Type
REMARK                         _______ _______ _______ _____ _____    ______ ____
ROOT
ATOM      1  C   LIG    1       -2.439   0.671   0.017  0.00  0.00    +0.040 C 
ENDROOT
BRANCH   1   2
ATOM      2  C   LIG    1       -3.774   1.418   0.028  0.00  0.00    +0.270 C 
BRANCH   2   6
ATOM      3  C   LIG    1       -8.642   0.893  -0.138  0.00  0.00    +0.110 C 
ATOM      4  C   LIG    1       -7.305   0.150  -0.083  0.00  0.00    +0.160 C 
ATOM      5  C   LIG    1       -6.157   1.162  -0.083  0.00  0.00    +0.240 C 
ATOM      6  N   LIG    1       -4.878   0.448   0.028  0.00  0.00    -0.380 N 
ATOM      7  C   LIG    1       -4.854  -0.321   1.279  0.00  0.00    +0.230 C 
ATOM      8  C   LIG    1       -6.005  -1.331   1.277  0.00  0.00    +0.160 C 
ATOM      9  C   LIG    1       -6.020  -2.093   2.603  0.00  0.00    +0.110 C 
ATOM     10  H   LIG    1       -4.774  -0.180  -0.755  0.00  0.00    +0.420 HD
ATOM     11  O   LIG    1       -7.243  -0.634   1.111  0.00  0.00    -0.350 OA
ENDBRANCH   2   6
ENDBRANCH   1   2
BRANCH   1  12
ATOM     12  C   LIG    1       -1.290   1.681   0.017  0.00  0.00    +0.280 C 
BRANCH  12  13
ATOM     13  N   LIG    1       -0.011   0.966   0.007  0.00  0.00    -0.730 N 
ATOM     14  H   LIG    1        0.002  -0.004   0.002  0.00  0.00    +0.400 HD
ATOM     15  C   LIG    1        1.147   1.655   0.000  0.00  0.00    +0.570 C 
ATOM     16  O   LIG    1        1.130   2.870   0.007  0.00  0.00    -0.520 OA
BRANCH  15  17
ATOM     17  C   LIG    1        2.440   0.932  -0.016  0.00  0.00    -0.100 A 
ATOM     18  C   LIG    1        2.481  -0.465  -0.018  0.00  0.00    -0.010 A 
ATOM     19  C   LIG    1        3.709  -1.099  -0.039  0.00  0.00    +0.270 A 
ATOM     20  N   LIG    1        4.829  -0.404  -0.046  0.00  0.00    -0.460 NA
ATOM     21  C   LIG    1        4.835   0.914  -0.039  0.00  0.00    +0.280 A 
ATOM     22  C   LIG    1        3.652   1.628  -0.024  0.00  0.00    +0.040 A 
ENDBRANCH  15  17
ENDBRANCH  12  13
ENDBRANCH   1  12
TORSDOF 5
