REMARK  Name = ZINCkj000005jUSI.0
REMARK                            x       y       z     vdW  Elec       q    Type
REMARK                         _______ _______ _______ _____ _____    ______ ____
ROOT
ATOM      1  C   LIG    1        7.270   0.369  -0.065  0.00  0.00    +0.040 C 
ENDROOT
BRANCH   1   2
ATOM      2  C   LIG    1        8.618  -0.354  -0.081  0.00  0.00    +0.270 C 
BRANCH   2   6
ATOM      3  C   LIG    1       12.281   1.572   1.404  0.00  0.00    +0.030 C 
ATOM      4  C   LIG    1       12.146   0.939   0.016  0.00  0.00    +0.220 C 
ATOM      5  C   LIG    1       10.994  -0.060   0.007  0.00  0.00    +0.250 C 
ATOM      6  N   LIG    1        9.707   0.637  -0.086  0.00  0.00    -0.380 N 
ATOM      7  C   LIG    1        9.664   1.393  -1.343  0.00  0.00    +0.230 C 
ATOM      8  C   LIG    1       10.772   2.440  -1.376  0.00  0.00    +0.220 C 
ATOM      9  C   LIG    1       10.378   3.648  -0.522  0.00  0.00    +0.030 C 
ATOM     10  H   LIG    1        9.586   1.256   0.698  0.00  0.00    +0.420 HD
ATOM     11  O   LIG    1       12.025   1.923  -0.987  0.00  0.00    -0.350 OA
ENDBRANCH   2   6
ENDBRANCH   1   2
BRANCH   1  12
ATOM     12  C   LIG    1        6.139  -0.661  -0.059  0.00  0.00    +0.280 C 
BRANCH  12  13
ATOM     13  N   LIG    1        4.848   0.031  -0.044  0.00  0.00    -0.730 N 
ATOM     14  H   LIG    1        4.817   1.000  -0.038  0.00  0.00    +0.400 HD
ATOM     15  C   LIG    1        3.703  -0.680  -0.036  0.00  0.00    +0.570 C 
ATOM     16  O   LIG    1        3.741  -1.894  -0.043  0.00  0.00    -0.520 OA
BRANCH  15  17
ATOM     17  C   LIG    1        2.397   0.020  -0.021  0.00  0.00    -0.100 A 
ATOM     18  C   LIG    1        1.197  -0.697  -0.013  0.00  0.00    +0.040 A 
ATOM     19  C   LIG    1        0.002  -0.004   0.002  0.00  0.00    +0.280 A 
ATOM     20  N   LIG    1       -0.016   1.314   0.009  0.00  0.00    -0.460 NA
ATOM     21  C   LIG    1        1.092   2.029   0.003  0.00  0.00    +0.270 A 
ATOM     22  C   LIG    1        2.330   1.417  -0.013  0.00  0.00    -0.010 A 
ENDBRANCH  15  17
ENDBRANCH  12  13
ENDBRANCH   1  12
TORSDOF 5
