REMARK  Name = ZINCnE00000dE7WN.0
REMARK                            x       y       z     vdW  Elec       q    Type
REMARK                         _______ _______ _______ _____ _____    ______ ____
ROOT
ATOM      1  N   LIG    1        0.007  -0.013  -0.019  0.00  0.00    -1.080 NA
ENDROOT
BRANCH   1   5
ATOM      2  C   LIG    1       -3.578  -2.139   0.019  0.00  0.00    +0.020 A 
ATOM      3  C   LIG    1       -2.376  -2.807  -0.175  0.00  0.00    +0.050 A 
ATOM      4  C   LIG    1       -1.189  -2.103  -0.188  0.00  0.00    -0.050 A 
ATOM      5  C   LIG    1       -1.196  -0.726  -0.006  0.00  0.00    +0.280 A 
ATOM      6  C   LIG    1       -2.398  -0.059   0.194  0.00  0.00    -0.150 A 
ATOM      7  C   LIG    1       -3.585  -0.763   0.201  0.00  0.00    +0.020 A 
BRANCH   2  10
ATOM      8  C   LIG    1       -6.082  -4.922   0.426  0.00  0.00    +0.090 C 
ATOM      9  C   LIG    1       -4.816  -4.110   0.520  0.00  0.00    +0.500 C 
ATOM     10  N   LIG    1       -4.783  -2.854   0.033  0.00  0.00    -0.660 N 
ATOM     11  H   LIG    1       -5.593  -2.445  -0.309  0.00  0.00    +0.400 HD
ATOM     12  O   LIG    1       -3.826  -4.588   1.034  0.00  0.00    -0.540 OA
ENDBRANCH   2  10
ENDBRANCH   1   5
BRANCH   1  13
ATOM     13  S   LIG    1       -0.002   1.629   0.197  0.00  0.00    +2.590 S 
ATOM     14  O   LIG    1       -0.437   1.856   1.531  0.00  0.00    -0.990 OA
ATOM     15  O   LIG    1       -0.656   2.180  -0.938  0.00  0.00    -1.010 OA
BRANCH  13  16
ATOM     16  C   LIG    1        1.672   2.175   0.120  0.00  0.00    -0.650 A 
ATOM     17  C   LIG    1        2.224   2.544  -1.094  0.00  0.00    +0.230 A 
ATOM     18  C   LIG    1        3.539   2.973  -1.154  0.00  0.00    -0.050 A 
ATOM     19  C   LIG    1        4.301   3.032   0.000  0.00  0.00    +0.170 A 
ATOM     20  C   LIG    1        3.747   2.662   1.214  0.00  0.00    -0.010 A 
ATOM     21  F   LIG    1        5.584   3.450  -0.057  0.00  0.00    -0.120 F 
ATOM     22  F   LIG    1        1.480   2.486  -2.220  0.00  0.00    -0.100 F 
ATOM     23  C   LIG    1        2.432   2.239   1.274  0.00  0.00    +0.040 A 
ATOM     24 BR   LIG    1        1.674   1.741   2.934  0.00  0.00    +0.030 Br
ENDBRANCH  13  16
ENDBRANCH   1  13
TORSDOF 4
