REMARK  Name = ZINCrH000004v3iS.0
REMARK                            x       y       z     vdW  Elec       q    Type
REMARK                         _______ _______ _______ _____ _____    ______ ____
ROOT
ATOM      1  O   LIG    1        3.258   3.695  -1.200  0.00  0.00    -0.570 OA
ATOM      2  C   LIG    1        2.384   4.240  -0.554  0.00  0.00    +0.700 C 
ATOM      3  N   LIG    1        1.354   3.517  -0.070  0.00  0.00    -0.730 N 
ATOM      4  H   LIG    1        0.656   3.952   0.445  0.00  0.00    +0.400 HD
ATOM      5  N   LIG    1        2.444   5.566  -0.323  0.00  0.00    -0.690 N 
ATOM      6  H   LIG    1        1.709   6.014   0.125  0.00  0.00    +0.410 HD
ENDROOT
BRANCH   3   7
ATOM      7  C   LIG    1        1.289   2.076  -0.322  0.00  0.00    +0.250 C 
ATOM      8  C   LIG    1        2.104   1.333   0.741  0.00  0.00    -0.010 C 
ATOM      9  C   LIG    1        1.966  -0.176   0.517  0.00  0.00    +0.220 C 
ATOM     10  O   LIG    1        0.584  -0.538   0.565  0.00  0.00    -0.370 OA
ATOM     11  C   LIG    1       -0.219   0.090  -0.436  0.00  0.00    +0.210 C 
ATOM     12  C   LIG    1       -0.169   1.609  -0.251  0.00  0.00    +0.010 C 
BRANCH  11  13
ATOM     13  C   LIG    1       -1.644  -0.385  -0.308  0.00  0.00    -0.140 A 
ATOM     14  C   LIG    1       -2.400  -0.649  -1.440  0.00  0.00    +0.080 A 
ATOM     15  C   LIG    1       -3.704  -1.089  -1.274  0.00  0.00    -0.030 A 
ATOM     16  C   LIG    1       -4.207  -1.238   0.004  0.00  0.00    +0.260 A 
ATOM     17  N   LIG    1       -3.461  -0.972   1.058  0.00  0.00    -0.490 NA
ATOM     18  C   LIG    1       -2.215  -0.557   0.939  0.00  0.00    +0.290 A 
ENDBRANCH  11  13
ENDBRANCH   3   7
BRANCH   5  19
ATOM     19  C   LIG    1        3.565   6.296  -0.728  0.00  0.00    +0.190 A 
ATOM     20  C   LIG    1        4.823   5.704  -0.705  0.00  0.00    +0.030 A 
ATOM     21  C   LIG    1        5.929   6.419  -1.109  0.00  0.00    +0.090 A 
ATOM     22  C   LIG    1        5.787   7.743  -1.530  0.00  0.00    -0.040 A 
ATOM     23  C   LIG    1        4.523   8.336  -1.546  0.00  0.00    +0.080 A 
ATOM     24  C   LIG    1        3.420   7.614  -1.146  0.00  0.00    -0.020 A 
BRANCH  22  25
ATOM     25  C   LIG    1        6.972   8.514  -1.959  0.00  0.00    +0.240 A 
ATOM     26  N   LIG    1        8.207   8.070  -1.988  0.00  0.00    -0.470 NA
ATOM     27  C   LIG    1        9.007   9.052  -2.432  0.00  0.00    +0.150 A 
ATOM     28  C   LIG    1        8.238  10.128  -2.680  0.00  0.00    +0.150 A 
ATOM     29  O   LIG    1        6.967   9.788  -2.389  0.00  0.00    -0.200 OA
ENDBRANCH  22  25
ENDBRANCH   5  19
TORSDOF 4
