REMARK  Name = ZINCpe00000c856E.0
REMARK                            x       y       z     vdW  Elec       q    Type
REMARK                         _______ _______ _______ _____ _____    ______ ____
ROOT
ATOM      1  C   LIG    1        6.479  -1.790   4.524  0.00  0.00    +0.130 A 
ATOM      2  N   LIG    1        7.424  -2.384   3.857  0.00  0.00    -0.370 NA
ATOM      3  O   LIG    1        7.178  -2.372   2.669  0.00  0.00    +0.130 OA
ATOM      4  C   LIG    1        6.014  -1.738   2.456  0.00  0.00    +0.280 A 
ATOM      5  N   LIG    1        5.562  -1.367   3.641  0.00  0.00    -0.430 NA
ENDROOT
BRANCH   4   6
ATOM      6  C   LIG    1        5.362  -1.506   1.152  0.00  0.00    +0.040 A 
ATOM      7  N   LIG    1        4.213  -0.867   1.080  0.00  0.00    -0.130 NA
ATOM      8  N   LIG    1        3.621  -0.655  -0.037  0.00  0.00    -0.260 N 
ATOM      9  C   LIG    1        4.120  -1.053  -1.231  0.00  0.00    +0.300 A 
ATOM     10  C   LIG    1        5.299  -1.717  -1.305  0.00  0.00    -0.060 A 
ATOM     11  C   LIG    1        5.988  -1.980  -0.094  0.00  0.00    +0.380 A 
ATOM     12  O   LIG    1        7.055  -2.574  -0.084  0.00  0.00    -0.460 OA
BRANCH   8  13
ATOM     13  C   LIG    1        2.400   0.028  -0.021  0.00  0.00    +0.060 A 
ATOM     14  C   LIG    1        1.206  -0.681  -0.014  0.00  0.00    +0.090 A 
ATOM     15  C   LIG    1        0.002  -0.004   0.002  0.00  0.00    +0.030 A 
ATOM     16  C   LIG    1       -0.017   1.379   0.010  0.00  0.00    +0.090 A 
ATOM     17  C   LIG    1        1.169   2.090   0.002  0.00  0.00    +0.010 A 
ATOM     18  C   LIG    1        2.379   1.419  -0.013  0.00  0.00    +0.140 A 
ATOM     19  F   LIG    1        3.537   2.114  -0.020  0.00  0.00    -0.120 F 
ENDBRANCH   8  13
ENDBRANCH   4   6
BRANCH   1  20
ATOM     20  C   LIG    1        6.424  -1.610   6.019  0.00  0.00    +0.330 C 
BRANCH  20  21
ATOM     21  N   LIG    1        6.788  -2.872   6.678  0.00  0.00    -0.620 N 
ATOM     22  H   LIG    1        6.751  -2.751   7.679  0.00  0.00    +0.450 HD
ATOM     23  H   LIG    1        7.722  -3.136   6.406  0.00  0.00    +0.430 HD
ATOM     24  H   LIG    1        6.139  -3.594   6.403  0.00  0.00    +0.430 HD
ENDBRANCH  20  21
BRANCH  20  25
ATOM     25  C   LIG    1        7.407  -0.515   6.438  0.00  0.00    -0.010 C 
BRANCH  25  26
ATOM     26  C   LIG    1        7.265  -0.249   7.914  0.00  0.00    +0.490 C 
ATOM     27  O   LIG    1        7.962   0.595   8.452  0.00  0.00    -0.650 OA
ATOM     28  O   LIG    1        6.452  -0.877   8.571  0.00  0.00    -0.700 OA
ENDBRANCH  25  26
ENDBRANCH  20  25
ENDBRANCH   1  20
TORSDOF 6
