REMARK  Name = ZINCpe000000XQCy.0
REMARK                            x       y       z     vdW  Elec       q    Type
REMARK                         _______ _______ _______ _____ _____    ______ ____
ROOT
ATOM      1  C   LIG    1       -0.796   1.728   1.387  0.00  0.00    +0.290 C 
ENDROOT
BRANCH   1   6
ATOM      2  C   LIG    1        1.764  -0.217   6.188  0.00  0.00    +0.090 C 
ATOM      3  C   LIG    1        1.096   0.291   4.936  0.00  0.00    -0.080 A 
ATOM      4  C   LIG    1        0.009  -0.383   4.411  0.00  0.00    +0.000 A 
ATOM      5  C   LIG    1       -0.603   0.082   3.263  0.00  0.00    +0.020 A 
ATOM      6  C   LIG    1       -0.129   1.221   2.639  0.00  0.00    -0.100 A 
ATOM      7  C   LIG    1        0.961   1.892   3.161  0.00  0.00    +0.020 A 
ATOM      8  C   LIG    1        1.571   1.429   4.313  0.00  0.00    +0.000 A 
ENDBRANCH   1   6
BRANCH   1   9
ATOM      9  N   LIG    1       -0.869   3.191   1.430  0.00  0.00    -0.700 N 
ATOM     10  H   LIG    1       -0.159   3.699   1.853  0.00  0.00    +0.410 HD
ATOM     11  C   LIG    1       -1.922   3.830   0.882  0.00  0.00    +0.600 C 
ATOM     12  O   LIG    1       -2.769   3.200   0.280  0.00  0.00    -0.510 OA
BRANCH  11  13
ATOM     13  C   LIG    1       -2.047   5.297   1.015  0.00  0.00    +0.030 A 
ATOM     14  N   LIG    1       -1.133   5.976   1.672  0.00  0.00    -0.180 NA
ATOM     15  N   LIG    1       -1.193   7.251   1.810  0.00  0.00    -0.440 N 
ATOM     16  H   LIG    1       -0.491   7.706   2.301  0.00  0.00    +0.440 HD
ATOM     17  C   LIG    1       -2.208   7.972   1.298  0.00  0.00    +0.480 A 
ATOM     18  C   LIG    1       -3.235   7.319   0.582  0.00  0.00    -0.010 A 
ATOM     19  O   LIG    1       -2.239   9.182   1.451  0.00  0.00    -0.520 OA
ATOM     20  C   LIG    1       -3.154   5.966   0.439  0.00  0.00    +0.140 A 
ENDBRANCH  11  13
ENDBRANCH   1   9
BRANCH   1  21
ATOM     21  C   LIG    1        0.015   1.294   0.165  0.00  0.00    +0.180 C 
BRANCH  21  22
ATOM     22  N   LIG    1       -0.608   1.829  -1.053  0.00  0.00    -0.530 NA
ATOM     23  C   LIG    1       -1.856   1.117  -1.363  0.00  0.00    +0.150 C 
ATOM     24  C   LIG    1       -2.502   1.744  -2.601  0.00  0.00    +0.220 C 
ATOM     25  O   LIG    1       -1.573   1.706  -3.688  0.00  0.00    -0.390 OA
ATOM     26  C   LIG    1       -0.346   2.391  -3.421  0.00  0.00    +0.230 C 
ATOM     27  C   LIG    1        0.321   1.770  -2.191  0.00  0.00    +0.140 C 
ENDBRANCH  21  22
ENDBRANCH   1  21
TORSDOF 5
