REMARK  Name = ZINC550000002htY.0
REMARK                            x       y       z     vdW  Elec       q    Type
REMARK                         _______ _______ _______ _____ _____    ______ ____
ROOT
ATOM      1  C   LIG    1        1.208   1.738  -0.000  0.00  0.00    +0.370 A 
ATOM      2  N   LIG    1       -0.015   1.282   0.009  0.00  0.00    -0.300 NA
ATOM      3  N   LIG    1        0.002  -0.004   0.002  0.00  0.00    -0.300 NA
ATOM      4  C   LIG    1        1.237  -0.427  -0.012  0.00  0.00    +0.370 A 
ATOM      5  N   LIG    1        2.037   0.667  -0.014  0.00  0.00    -0.590 N 
ATOM      6  H   LIG    1        3.007   0.680  -0.023  0.00  0.00    +0.430 HD
ENDROOT
TORSDOF 0
