REMARK  Name = ZINC550000002htY.1
REMARK                            x       y       z     vdW  Elec       q    Type
REMARK                         _______ _______ _______ _____ _____    ______ ____
ROOT
ATOM      1  C   LIG    1        1.239  -0.431  -0.012  0.00  0.00    +0.480 A 
ATOM      2  N   LIG    1        0.002  -0.004   0.002  0.00  0.00    -0.550 NA
ATOM      3  C   LIG    1       -0.016   1.328   0.009  0.00  0.00    +0.420 A 
ATOM      4  N   LIG    1        1.214   1.769   0.000  0.00  0.00    -0.320 NA
ATOM      5  N   LIG    1        2.050   0.641  -0.014  0.00  0.00    -0.490 N 
ATOM      6  H   LIG    1        3.020   0.636  -0.023  0.00  0.00    +0.440 HD
ENDROOT
TORSDOF 0
