REMARK  Name = ZINCpe000000X6Xt.0
REMARK                            x       y       z     vdW  Elec       q    Type
REMARK                         _______ _______ _______ _____ _____    ______ ____
ROOT
ATOM      1  C   LIG    1        2.430   1.202  -0.051  0.00  0.00    +0.320 C 
ENDROOT
BRANCH   1  11
ATOM      2  C   LIG    1       -1.764   2.233  -1.420  0.00  0.00    +0.060 C 
ATOM      3  C   LIG    1       -1.328   1.948   0.019  0.00  0.00    +0.230 C 
ATOM      4  O   LIG    1       -1.177   3.182   0.731  0.00  0.00    -0.300 OA
ATOM      5  C   LIG    1       -0.088   3.935   0.418  0.00  0.00    +0.080 A 
ATOM      6  C   LIG    1       -0.147   5.316   0.467  0.00  0.00    +0.030 A 
ATOM      7  C   LIG    1        0.970   6.066   0.145  0.00  0.00    +0.030 A 
ATOM      8  C   LIG    1        2.146   5.440  -0.226  0.00  0.00    +0.020 A 
ATOM      9  C   LIG    1        2.213   4.059  -0.276  0.00  0.00    +0.000 A 
ATOM     10  C   LIG    1        1.098   3.303   0.045  0.00  0.00    +0.090 A 
ATOM     11  N   LIG    1        1.145   1.903   0.001  0.00  0.00    -0.550 N 
ATOM     12  C   LIG    1       -0.014   1.209   0.009  0.00  0.00    +0.490 C 
ATOM     13  O   LIG    1        0.002  -0.004   0.002  0.00  0.00    -0.500 OA
ENDBRANCH   1  11
BRANCH   1  14
ATOM     14  C   LIG    1        2.843   1.002  -1.511  0.00  0.00    +0.040 C 
BRANCH  14  15
ATOM     15  C   LIG    1        4.165   0.282  -1.565  0.00  0.00    +0.520 C 
ATOM     16  N   LIG    1        4.728  -0.005  -2.756  0.00  0.00    -0.610 N 
ATOM     17  C   LIG    1        4.054   0.384  -3.997  0.00  0.00    +0.290 C 
ATOM     18  O   LIG    1        4.723  -0.040  -0.537  0.00  0.00    -0.530 OA
BRANCH  16  19
ATOM     19  C   LIG    1        6.014  -0.705  -2.808  0.00  0.00    +0.280 C 
ATOM     20  C   LIG    1        5.856  -2.019  -3.594  0.00  0.00    +0.070 C 
ATOM     21  C   LIG    1        7.287  -2.533  -3.892  0.00  0.00    -0.310 C 
ATOM     22  S   LIG    1        8.165  -1.000  -4.382  0.00  0.00    +2.390 S 
ATOM     23  O   LIG    1        9.445  -0.973  -3.766  0.00  0.00    -0.930 OA
ATOM     24  O   LIG    1        8.049  -0.821  -5.787  0.00  0.00    -0.930 OA
ATOM     25  C   LIG    1        7.055   0.176  -3.528  0.00  0.00    -0.320 C 
ENDBRANCH  16  19
ENDBRANCH  14  15
ENDBRANCH   1  14
TORSDOF 4
