REMARK  Name = ZINCqH0000008GqT.0
REMARK                            x       y       z     vdW  Elec       q    Type
REMARK                         _______ _______ _______ _____ _____    ______ ____
ROOT
ATOM      1  C   LIG    1        0.583  10.109  -6.288  0.00  0.00    +0.050 C 
ATOM      2  C   LIG    1        1.362  10.295  -4.984  0.00  0.00    +0.050 C 
ATOM      3  C   LIG    1        1.514   8.955  -4.245  0.00  0.00    +0.260 C 
ATOM      4  N   LIG    1        0.831   9.144  -2.963  0.00  0.00    -0.570 N 
ATOM      5  C   LIG    1        0.314  10.441  -2.881  0.00  0.00    +0.170 A 
ATOM      6  C   LIG    1       -0.400  11.045  -1.845  0.00  0.00    +0.010 A 
ATOM      7  C   LIG    1       -0.826  12.351  -1.964  0.00  0.00    +0.040 A 
ATOM      8  C   LIG    1       -0.549  13.072  -3.111  0.00  0.00    -0.010 A 
ATOM      9  C   LIG    1        0.157  12.480  -4.141  0.00  0.00    +0.040 A 
ATOM     10  C   LIG    1        0.722   8.206  -2.001  0.00  0.00    +0.720 C 
ATOM     11  N   LIG    1        1.346   7.020  -2.141  0.00  0.00    -0.740 N 
ATOM     12  H   LIG    1        1.813   6.813  -2.966  0.00  0.00    +0.400 HD
ATOM     13  O   LIG    1        0.060   8.431  -1.006  0.00  0.00    -0.560 OA
ATOM     14  C   LIG    1        0.586  11.171  -4.027  0.00  0.00    -0.140 A 
ENDROOT
BRANCH  11  15
ATOM     15  C   LIG    1        1.319   6.044  -1.049  0.00  0.00    +0.250 C 
ATOM     16  C   LIG    1        2.533   5.120  -1.161  0.00  0.00    +0.030 C 
ATOM     17  C   LIG    1        2.520   4.123   0.002  0.00  0.00    +0.310 C 
ATOM     18  N   LIG    1        1.228   3.423   0.010  0.00  0.00    -0.600 N 
ATOM     19  C   LIG    1       -0.006   4.219   0.019  0.00  0.00    +0.300 C 
ATOM     20  C   LIG    1        1.177   2.076   0.003  0.00  0.00    +0.660 C 
ATOM     21  O   LIG    1        2.205   1.429  -0.009  0.00  0.00    -0.570 OA
ATOM     22  C   LIG    1        0.035   5.215  -1.139  0.00  0.00    +0.010 C 
BRANCH  20  23
ATOM     23  O   LIG    1       -0.014   1.448   0.011  0.00  0.00    -0.360 OA
BRANCH  23  24
ATOM     24  C   LIG    1        0.007  -0.004   0.003  0.00  0.00    +0.140 C 
ATOM     25  C   LIG    1        0.724  -0.497  -1.255  0.00  0.00    +0.040 C 
ATOM     26  C   LIG    1       -1.428  -0.535   0.013  0.00  0.00    +0.080 C 
ATOM     27  C   LIG    1        0.747  -0.510   1.243  0.00  0.00    +0.040 C 
ENDBRANCH  23  24
ENDBRANCH  20  23
ENDBRANCH  11  15
TORSDOF 3
