REMARK  Name = ZINCpe00000MJJ48.0
REMARK                            x       y       z     vdW  Elec       q    Type
REMARK                         _______ _______ _______ _____ _____    ______ ____
ROOT
ATOM      1  N   LIG    1       -3.318   1.419   1.534  0.00  0.00    -0.490 NA
ENDROOT
BRANCH   1   2
ATOM      2  C   LIG    1       -2.718   1.500   0.196  0.00  0.00    +0.160 C 
ATOM      3  C   LIG    1       -1.292   2.035   0.318  0.00  0.00    +0.030 C 
ATOM      4  C   LIG    1       -0.565   1.889  -1.021  0.00  0.00    -0.330 C 
ATOM      5  S   LIG    1       -1.398   2.920  -2.264  0.00  0.00    +2.410 S 
ATOM      6  C   LIG    1       -3.108   2.318  -2.137  0.00  0.00    -0.320 C 
ATOM      7  O   LIG    1       -0.890   2.584  -3.548  0.00  0.00    -0.940 OA
ATOM      8  O   LIG    1       -1.359   4.273  -1.832  0.00  0.00    -0.930 OA
ATOM      9  C   LIG    1       -3.565   2.419  -0.680  0.00  0.00    +0.070 C 
ENDBRANCH   1   2
BRANCH   1  10
ATOM     10  C   LIG    1       -3.362   2.741   2.173  0.00  0.00    +0.210 C 
BRANCH  10  13
ATOM     11  N   LIG    1       -4.417   3.772   4.159  0.00  0.00    -0.680 N 
ATOM     12  H   LIG    1       -3.957   4.597   3.939  0.00  0.00    +0.410 HD
ATOM     13  C   LIG    1       -4.303   2.700   3.349  0.00  0.00    +0.510 C 
ATOM     14  O   LIG    1       -4.958   1.703   3.567  0.00  0.00    -0.470 OA
BRANCH  11  19
ATOM     15  C   LIG    1       -6.647   4.732   6.925  0.00  0.00    +0.150 A 
ATOM     16  C   LIG    1       -6.742   3.531   7.612  0.00  0.00    -0.090 A 
ATOM     17  C   LIG    1       -6.066   2.415   7.154  0.00  0.00    +0.070 A 
ATOM     18  C   LIG    1       -5.301   2.491   6.007  0.00  0.00    -0.020 A 
ATOM     19  C   LIG    1       -5.198   3.693   5.318  0.00  0.00    +0.190 A 
ATOM     20  C   LIG    1       -5.875   4.814   5.777  0.00  0.00    -0.050 A 
BRANCH  15  22
ATOM     21  C   LIG    1       -8.088   5.672   8.566  0.00  0.00    +0.250 C 
ATOM     22  O   LIG    1       -7.311   5.828   7.376  0.00  0.00    -0.320 OA
ENDBRANCH  15  22
ENDBRANCH  11  19
ENDBRANCH  10  13
ENDBRANCH   1  10
BRANCH   1  23
ATOM     23  C   LIG    1       -2.601   0.452   2.376  0.00  0.00    +0.200 C 
BRANCH  23  24
ATOM     24  C   LIG    1       -2.958  -0.969   1.937  0.00  0.00    +0.160 C 
ATOM     25  C   LIG    1       -2.186  -1.976   2.791  0.00  0.00    +0.000 C 
BRANCH  24  26
ATOM     26  O   LIG    1       -4.362  -1.181   2.104  0.00  0.00    -0.540 OA
ATOM     27  H   LIG    1       -4.675  -2.031   1.767  0.00  0.00    +0.370 HD
ENDBRANCH  24  26
ENDBRANCH  23  24
ENDBRANCH   1  23
TORSDOF 8
