REMARK  Name = ZINCqH0000004R0g.0
REMARK                            x       y       z     vdW  Elec       q    Type
REMARK                         _______ _______ _______ _____ _____    ______ ____
ROOT
ATOM      1  N   LIG    1       -2.439   3.836   0.104  0.00  0.00    -0.510 N 
ATOM      2  C   LIG    1       -3.593   3.134   0.118  0.00  0.00    +0.490 A 
ATOM      3  C   LIG    1       -3.540   1.668   0.102  0.00  0.00    +0.120 A 
ATOM      4  N   LIG    1       -2.392   1.054   0.075  0.00  0.00    -0.410 NA
ATOM      5  C   LIG    1       -1.235   1.746   0.055  0.00  0.00    +0.020 A 
ATOM      6  C   LIG    1       -0.012   1.064   0.031  0.00  0.00    +0.150 A 
ATOM      7  C   LIG    1        1.175   1.785   0.015  0.00  0.00    -0.150 A 
ATOM      8  C   LIG    1        1.150   3.186   0.030  0.00  0.00    +0.140 A 
ATOM      9  C   LIG    1       -0.038   3.857   0.059  0.00  0.00    -0.010 A 
ATOM     10  C   LIG    1       -4.818   0.869   0.118  0.00  0.00    +0.180 C 
ATOM     11  O   LIG    1       -4.665   3.711   0.143  0.00  0.00    -0.500 OA
ATOM     12  C   LIG    1       -1.241   3.155   0.074  0.00  0.00    +0.170 A 
ENDROOT
BRANCH   7  13
ATOM     13  C   LIG    1        2.469   1.072  -0.016  0.00  0.00    +0.580 C 
ATOM     14  N   LIG    1        2.538  -0.177  -0.516  0.00  0.00    -0.610 N 
ATOM     15  C   LIG    1        1.433  -0.905  -1.165  0.00  0.00    +0.250 C 
ATOM     16  C   LIG    1        2.130  -1.949  -2.078  0.00  0.00    +0.040 C 
ATOM     17  C   LIG    1        3.344  -2.361  -1.204  0.00  0.00    +0.050 C 
ATOM     18  C   LIG    1        3.727  -1.042  -0.500  0.00  0.00    +0.290 C 
ATOM     19  O   LIG    1        3.471   1.613   0.410  0.00  0.00    -0.520 OA
BRANCH  18  20
ATOM     20  C   LIG    1        4.141  -1.318   0.922  0.00  0.00    -0.100 A 
ATOM     21  C   LIG    1        3.258  -1.552   1.894  0.00  0.00    -0.040 A 
ATOM     22  S   LIG    1        4.107  -1.829   3.409  0.00  0.00    +0.100 S 
ATOM     23  C   LIG    1        5.660  -1.605   2.614  0.00  0.00    -0.050 A 
ATOM     24  C   LIG    1        5.467  -1.353   1.319  0.00  0.00    +0.020 A 
ENDBRANCH  18  20
ENDBRANCH   7  13
BRANCH   1  26
ATOM     25  C   LIG    1       -2.495   5.825  -1.318  0.00  0.00    +0.030 C 
ATOM     26  C   LIG    1       -2.461   5.301   0.119  0.00  0.00    +0.290 C 
ENDBRANCH   1  26
TORSDOF 3
