REMARK  Name = ZINCkj00000GeNCA.1
REMARK                            x       y       z     vdW  Elec       q    Type
REMARK                         _______ _______ _______ _____ _____    ______ ____
ROOT
ATOM      1  C   LIG    1        1.224   1.837   0.000  0.00  0.00    +0.340 A 
ATOM      2  N   LIG    1       -0.017   1.395   0.010  0.00  0.00    -0.330 NA
ATOM      3  N   LIG    1        0.002  -0.004   0.002  0.00  0.00    -0.290 N 
ATOM      4  C   LIG    1       -0.992  -0.939   0.006  0.00  0.00    +0.420 A 
ATOM      5  C   LIG    1       -0.661  -2.255  -0.003  0.00  0.00    -0.210 A 
ATOM      6  C   LIG    1        0.691  -2.625  -0.019  0.00  0.00    +0.440 A 
ATOM      7  N   LIG    1        1.629  -1.707  -0.023  0.00  0.00    -0.470 NA
ATOM      8 BR   LIG    1       -2.012  -3.578   0.004  0.00  0.00    +0.040 Br
ATOM      9  C   LIG    1        1.314  -0.404  -0.013  0.00  0.00    +0.320 A 
ATOM     10  C   LIG    1        2.089   0.748  -0.014  0.00  0.00    -0.320 A 
ENDROOT
BRANCH   1  12
ATOM     11  C   LIG    1        0.553   4.118   0.019  0.00  0.00    +0.280 C 
ATOM     12  O   LIG    1        1.598   3.144   0.004  0.00  0.00    -0.280 OA
ENDBRANCH   1  12
BRANCH  10  13
ATOM     13  C   LIG    1        3.595   0.807  -0.028  0.00  0.00    +0.380 C 
BRANCH  13  14
ATOM     14  N   LIG    1        4.071   0.834  -1.417  0.00  0.00    -0.390 N 
ATOM     15  C   LIG    1        3.754  -0.451  -2.077  0.00  0.00    +0.250 C 
ATOM     16  C   LIG    1        4.952  -0.722  -3.017  0.00  0.00    +0.090 C 
ATOM     17  C   LIG    1        6.139  -0.198  -2.167  0.00  0.00    +0.010 C 
ATOM     18  C   LIG    1        5.534   1.020  -1.437  0.00  0.00    +0.260 C 
ATOM     19  H   LIG    1        3.626   1.590  -1.915  0.00  0.00    +0.420 HD
BRANCH  17  20
ATOM     20  C   LIG    1        7.303   0.233  -3.063  0.00  0.00    +0.200 C 
BRANCH  20  21
ATOM     21  O   LIG    1        7.917  -0.924  -3.634  0.00  0.00    -0.570 OA
ATOM     22  H   LIG    1        8.664  -0.726  -4.215  0.00  0.00    +0.400 HD
ENDBRANCH  20  21
ENDBRANCH  17  20
ENDBRANCH  13  14
ENDBRANCH  10  13
TORSDOF 5
