REMARK  Name = ZINCkj00000GeNCA.2
REMARK                            x       y       z     vdW  Elec       q    Type
REMARK                         _______ _______ _______ _____ _____    ______ ____
ROOT
ATOM      1  C   LIG    1       -0.149   1.182   2.380  0.00  0.00    +0.340 A 
ATOM      2  N   LIG    1        0.929   0.443   2.545  0.00  0.00    -0.330 NA
ATOM      3  N   LIG    1        1.162   0.285   3.916  0.00  0.00    -0.290 N 
ATOM      4  C   LIG    1        2.128  -0.377   4.616  0.00  0.00    +0.430 A 
ATOM      5  C   LIG    1        2.096  -0.353   5.972  0.00  0.00    -0.210 A 
ATOM      6  C   LIG    1        1.073   0.351   6.624  0.00  0.00    +0.450 A 
ATOM      7  N   LIG    1        0.155   0.980   5.928  0.00  0.00    -0.480 NA
ATOM      8 BR   LIG    1        3.418  -1.260   6.974  0.00  0.00    +0.040 Br
ATOM      9  C   LIG    1        0.177   0.962   4.588  0.00  0.00    +0.320 A 
ATOM     10  C   LIG    1       -0.649   1.534   3.630  0.00  0.00    -0.320 A 
ENDROOT
BRANCH   1  12
ATOM     11  C   LIG    1       -0.013   1.086   0.008  0.00  0.00    +0.280 C 
ATOM     12  O   LIG    1       -0.682   1.547   1.184  0.00  0.00    -0.280 OA
ENDBRANCH   1  12
BRANCH  10  13
ATOM     13  C   LIG    1       -1.868   2.379   3.894  0.00  0.00    +0.380 C 
BRANCH  13  14
ATOM     14  N   LIG    1       -3.052   1.515   3.986  0.00  0.00    -0.390 N 
ATOM     15  C   LIG    1       -2.947   0.654   5.178  0.00  0.00    +0.240 C 
ATOM     16  C   LIG    1       -4.171   0.956   6.069  0.00  0.00    +0.080 C 
ATOM     17  C   LIG    1       -5.193   1.555   5.068  0.00  0.00    +0.000 C 
ATOM     18  C   LIG    1       -4.267   2.348   4.112  0.00  0.00    +0.280 C 
ATOM     19  H   LIG    1       -3.120   0.942   3.158  0.00  0.00    +0.420 HD
BRANCH  17  20
ATOM     20  C   LIG    1       -6.175   2.488   5.780  0.00  0.00    +0.210 C 
BRANCH  20  21
ATOM     21  O   LIG    1       -6.992   1.729   6.673  0.00  0.00    -0.570 OA
ATOM     22  H   LIG    1       -7.639   2.257   7.160  0.00  0.00    +0.400 HD
ENDBRANCH  20  21
ENDBRANCH  17  20
ENDBRANCH  13  14
ENDBRANCH  10  13
TORSDOF 5
