REMARK  Name = ZINCrD000000AKj5.0
REMARK                            x       y       z     vdW  Elec       q    Type
REMARK                         _______ _______ _______ _____ _____    ______ ____
ROOT
ATOM      1  O   LIG    1        2.311   5.287   0.926  0.00  0.00    -0.510 OA
ATOM      2  C   LIG    1        2.347   6.265   0.209  0.00  0.00    +0.530 C 
ATOM      3  N   LIG    1        1.209   6.747  -0.330  0.00  0.00    -0.710 N 
ATOM      4  H   LIG    1        1.245   7.484  -0.960  0.00  0.00    +0.410 HD
ENDROOT
BRANCH   2   5
ATOM      5  C   LIG    1        3.662   6.941  -0.079  0.00  0.00    -0.010 C 
ATOM      6  C   LIG    1        3.716   8.345   0.566  0.00  0.00    +0.080 C 
ATOM      7  C   LIG    1        5.149   8.486   1.031  0.00  0.00    +0.520 C 
ATOM      8  N   LIG    1        5.746   7.282   1.058  0.00  0.00    -0.610 N 
ATOM      9  O   LIG    1        5.680   9.532   1.336  0.00  0.00    -0.520 OA
ATOM     10  C   LIG    1        4.824   6.219   0.641  0.00  0.00    +0.310 C 
BRANCH   8  11
ATOM     11  C   LIG    1        7.139   7.059   1.453  0.00  0.00    +0.380 C 
BRANCH  11  12
ATOM     12  C   LIG    1        8.027   7.156   0.240  0.00  0.00    +0.100 A 
ATOM     13  C   LIG    1        8.642   8.357  -0.062  0.00  0.00    -0.010 A 
ATOM     14  C   LIG    1        9.461   8.434  -1.179  0.00  0.00    +0.060 A 
ATOM     15  C   LIG    1        9.623   7.300  -1.958  0.00  0.00    -0.030 A 
ATOM     16  C   LIG    1        8.971   6.135  -1.597  0.00  0.00    +0.260 A 
ATOM     17  N   LIG    1        8.204   6.097  -0.525  0.00  0.00    -0.470 NA
ENDBRANCH  11  12
ENDBRANCH   8  11
ENDBRANCH   2   5
BRANCH   3  18
ATOM     18  C   LIG    1       -0.081   6.158   0.035  0.00  0.00    +0.190 C 
ATOM     19  C   LIG    1       -0.459   6.368   1.511  0.00  0.00    +0.050 C 
ATOM     20  C   LIG    1       -1.126   7.684   1.069  0.00  0.00    +0.020 C 
ATOM     21  C   LIG    1       -1.286   7.045  -0.321  0.00  0.00    +0.050 C 
BRANCH  18  22
ATOM     22  C   LIG    1       -0.225   4.731  -0.427  0.00  0.00    -0.050 A 
ATOM     23  C   LIG    1        0.642   4.221  -1.376  0.00  0.00    +0.030 A 
ATOM     24  C   LIG    1        0.510   2.912  -1.800  0.00  0.00    +0.040 A 
ATOM     25  C   LIG    1       -0.489   2.112  -1.276  0.00  0.00    -0.090 A 
ATOM     26  C   LIG    1       -1.360   2.625  -0.331  0.00  0.00    +0.040 A 
ATOM     27 BR   LIG    1       -0.670   0.322  -1.856  0.00  0.00    -0.050 Br
ATOM     28  C   LIG    1       -1.224   3.932   0.097  0.00  0.00    +0.020 A 
ENDBRANCH  18  22
ENDBRANCH   3  18
TORSDOF 5
