REMARK  Name = ZINCrH00000No4P9.0
REMARK                            x       y       z     vdW  Elec       q    Type
REMARK                         _______ _______ _______ _____ _____    ______ ____
ROOT
ATOM      1  C   LIG    1       -3.331   0.937  -3.653  0.00  0.00    +0.250 C 
ATOM      2  C   LIG    1       -2.248   1.401  -2.977  0.00  0.00    -0.240 C 
ATOM      3  S   LIG    1       -1.573   3.042  -2.991  0.00  0.00    -0.010 S 
ATOM      4  C   LIG    1       -0.258   2.664  -1.865  0.00  0.00    +0.530 C 
ATOM      5  N   LIG    1       -0.383   1.371  -1.542  0.00  0.00    -0.570 N 
ATOM      6  O   LIG    1        0.594   3.432  -1.461  0.00  0.00    -0.420 OA
ATOM      7  C   LIG    1       -1.366   0.660  -2.070  0.00  0.00    +0.550 C 
ATOM      8  O   LIG    1       -1.528  -0.519  -1.818  0.00  0.00    -0.450 OA
ENDROOT
BRANCH   1  12
ATOM      9  C   LIG    1       -4.822  -2.940  -2.854  0.00  0.00    -0.060 A 
ATOM     10  C   LIG    1       -4.391  -2.132  -1.804  0.00  0.00    +0.020 A 
ATOM     11  C   LIG    1       -3.909  -0.879  -2.058  0.00  0.00    +0.110 A 
ATOM     12  C   LIG    1       -3.848  -0.408  -3.376  0.00  0.00    -0.110 A 
ATOM     13  C   LIG    1       -4.288  -1.222  -4.428  0.00  0.00    +0.070 A 
ATOM     14  C   LIG    1       -4.763  -2.476  -4.166  0.00  0.00    -0.020 A 
BRANCH   9  16
ATOM     15  C   LIG    1       -5.858  -5.181  -4.172  0.00  0.00    +0.140 C 
ATOM     16  S   LIG    1       -5.442  -4.556  -2.521  0.00  0.00    -0.100 S 
ENDBRANCH   9  16
ENDBRANCH   1  12
BRANCH   5  17
ATOM     17  C   LIG    1        0.565   0.747  -0.616  0.00  0.00    +0.310 C 
BRANCH  17  18
ATOM     18  C   LIG    1        0.047   0.888   0.817  0.00  0.00    +0.270 C 
BRANCH  18  19
ATOM     19  N   LIG    1        0.995   0.263   1.742  0.00  0.00    -0.720 N 
ATOM     20  H   LIG    1        1.803  -0.152   1.402  0.00  0.00    +0.410 HD
ATOM     21  C   LIG    1        0.745   0.266   3.067  0.00  0.00    +0.610 C 
ATOM     22  O   LIG    1       -0.269   0.787   3.494  0.00  0.00    -0.510 OA
BRANCH  21  23
ATOM     23  C   LIG    1        1.694  -0.359   3.994  0.00  0.00    -0.090 A 
ATOM     24  C   LIG    1        1.566  -0.422   5.352  0.00  0.00    +0.050 A 
ATOM     25  C   LIG    1        2.694  -1.106   5.832  0.00  0.00    -0.060 A 
ATOM     26  C   LIG    1        3.455  -1.420   4.760  0.00  0.00    +0.030 A 
ATOM     27  C   LIG    1        4.769  -2.156   4.802  0.00  0.00    +0.180 C 
ATOM     28  O   LIG    1        2.849  -0.968   3.654  0.00  0.00    -0.160 OA
ENDBRANCH  21  23
ENDBRANCH  18  19
ENDBRANCH  17  18
ENDBRANCH   5  17
TORSDOF 6
