REMARK  Name = ZINCtV00000L6k1G.0
REMARK                            x       y       z     vdW  Elec       q    Type
REMARK                         _______ _______ _______ _____ _____    ______ ____
ROOT
ATOM      1  C   LIG    1        2.350   4.353   0.008  0.00  0.00    +0.250 C 
ATOM      2  C   LIG    1        1.747   5.772   0.015  0.00  0.00    +0.070 C 
ATOM      3  C   LIG    1        0.255   5.530   0.028  0.00  0.00    +0.070 C 
ATOM      4  N   LIG    1        0.022   4.282   0.024  0.00  0.00    -0.230 NA
ATOM      5  N   LIG    1        1.163   3.482   0.009  0.00  0.00    -0.470 N 
ENDROOT
BRANCH   1  10
ATOM      6  C   LIG    1        5.539   3.459   4.744  0.00  0.00    +0.090 C 
ATOM      7  C   LIG    1        4.707   3.693   3.509  0.00  0.00    -0.080 A 
ATOM      8  C   LIG    1        5.324   3.919   2.293  0.00  0.00    +0.000 A 
ATOM      9  C   LIG    1        4.561   4.133   1.160  0.00  0.00    +0.020 A 
ATOM     10  C   LIG    1        3.182   4.120   1.243  0.00  0.00    -0.100 A 
ATOM     11  C   LIG    1        2.565   3.899   2.461  0.00  0.00    +0.030 A 
ATOM     12  C   LIG    1        3.327   3.680   3.592  0.00  0.00    +0.000 A 
ENDBRANCH   1  10
BRANCH   5  13
ATOM     13  C   LIG    1        1.178   2.086   0.002  0.00  0.00    +0.230 A 
ATOM     14  C   LIG    1       -0.017   1.377   0.010  0.00  0.00    -0.030 A 
ATOM     15  C   LIG    1        0.002  -0.004   0.002  0.00  0.00    +0.040 A 
ATOM     16  C   LIG    1        1.208  -0.681  -0.013  0.00  0.00    -0.050 A 
ATOM     17  C   LIG    1        2.399   0.022  -0.020  0.00  0.00    +0.040 A 
ATOM     18  C   LIG    1        2.388   1.403  -0.012  0.00  0.00    -0.060 A 
ENDBRANCH   5  13
BRANCH   3  19
ATOM     19  C   LIG    1       -0.798   6.608   0.044  0.00  0.00    +0.140 C 
BRANCH  19  20
ATOM     20  C   LIG    1       -2.187   5.965   0.054  0.00  0.00    +0.110 C 
BRANCH  20  21
ATOM     21  C   LIG    1       -3.240   7.043   0.069  0.00  0.00    -0.170 A 
ATOM     22  C   LIG    1       -3.854   7.543   1.153  0.00  0.00    +0.220 A 
ATOM     23  N   LIG    1       -4.750   8.507   0.777  0.00  0.00    -0.600 N 
ATOM     24  H   LIG    1       -5.313   9.012   1.385  0.00  0.00    +0.420 HD
ATOM     25  C   LIG    1       -4.733   8.654  -0.592  0.00  0.00    +0.090 A 
ATOM     26  C   LIG    1       -5.428   9.473  -1.475  0.00  0.00    -0.010 A 
ATOM     27  C   LIG    1       -5.182   9.384  -2.828  0.00  0.00    +0.020 A 
ATOM     28  C   LIG    1       -4.247   8.484  -3.320  0.00  0.00    -0.030 A 
ATOM     29  C   LIG    1       -3.554   7.669  -2.470  0.00  0.00    +0.050 A 
ATOM     30  C   LIG    1       -3.782   7.747  -1.095  0.00  0.00    -0.100 A 
ENDBRANCH  20  21
ENDBRANCH  19  20
ENDBRANCH   3  19
TORSDOF 5
