REMARK  Name = ZINCqH00000387mN.0
REMARK                            x       y       z     vdW  Elec       q    Type
REMARK                         _______ _______ _______ _____ _____    ______ ____
ROOT
ATOM      1  C   LIG    1        2.415   3.956  -0.010  0.00  0.00    +0.560 C 
ATOM      2  N   LIG    1        2.383   5.303   0.007  0.00  0.00    -0.670 N 
ATOM      3  H   LIG    1        1.534   5.769  -0.048  0.00  0.00    +0.410 HD
ATOM      4  O   LIG    1        3.482   3.372  -0.027  0.00  0.00    -0.460 OA
ENDROOT
BRANCH   2   5
ATOM      5  C   LIG    1        3.576   6.030   0.105  0.00  0.00    +0.050 A 
ATOM      6  C   LIG    1        3.782   6.886   1.152  0.00  0.00    +0.140 A 
ATOM      7  C   LIG    1        4.987   7.598   1.229  0.00  0.00    -0.280 A 
ATOM      8  C   LIG    1        5.927   7.443   0.269  0.00  0.00    +0.380 A 
ATOM      9  N   LIG    1        5.723   6.597  -0.776  0.00  0.00    -0.600 N 
ATOM     10  H   LIG    1        6.409   6.499  -1.455  0.00  0.00    +0.430 HD
ATOM     11  C   LIG    1        4.580   5.893  -0.879  0.00  0.00    +0.520 A 
ATOM     12  O   LIG    1        4.411   5.136  -1.822  0.00  0.00    -0.500 OA
BRANCH   7  13
ATOM     13  C   LIG    1        5.233   8.541   2.378  0.00  0.00    +0.530 C 
ATOM     14  F   LIG    1        5.189   7.830   3.582  0.00  0.00    -0.170 F 
ATOM     15  F   LIG    1        4.248   9.534   2.386  0.00  0.00    -0.170 F 
ATOM     16  F   LIG    1        6.492   9.134   2.233  0.00  0.00    -0.180 F 
ENDBRANCH   7  13
ENDBRANCH   2   5
BRANCH   1  22
ATOM     17  C   LIG    1       -2.570   3.852   0.034  0.00  0.00    +0.090 C 
ATOM     18  C   LIG    1       -1.246   3.132   0.013  0.00  0.00    -0.100 A 
ATOM     19  C   LIG    1       -1.216   1.747  -0.010  0.00  0.00    +0.050 A 
ATOM     20  C   LIG    1       -0.010   1.075  -0.023  0.00  0.00    -0.030 A 
ATOM     21  C   LIG    1        1.183   1.786  -0.025  0.00  0.00    +0.150 A 
ATOM     22  C   LIG    1        1.155   3.189  -0.007  0.00  0.00    -0.110 A 
ATOM     23  C   LIG    1       -0.073   3.854   0.012  0.00  0.00    +0.050 A 
BRANCH  21  24
ATOM     24  N   LIG    1        2.397   1.111  -0.044  0.00  0.00    -0.490 N 
ATOM     25  C   LIG    1        2.576   0.314   1.177  0.00  0.00    +0.210 C 
BRANCH  24  26
ATOM     26  C   LIG    1        2.514   0.271  -1.243  0.00  0.00    +0.130 C 
ATOM     27  C   LIG    1        3.861  -0.455  -1.228  0.00  0.00    +0.040 C 
ATOM     28  C   LIG    1        2.421   1.149  -2.493  0.00  0.00    +0.040 C 
ENDBRANCH  24  26
ENDBRANCH  21  24
ENDBRANCH   1  22
TORSDOF 5
