REMARK  Name = ZINCrH000004mo4v.0
REMARK                            x       y       z     vdW  Elec       q    Type
REMARK                         _______ _______ _______ _____ _____    ______ ____
ROOT
ATOM      1  C   LIG    1        3.682  -0.184  -0.034  0.00  0.00    +0.350 C 
ATOM      2  C   LIG    1        4.263   0.039  -1.432  0.00  0.00    +0.040 C 
ENDROOT
BRANCH   1   6
ATOM      3  C   LIG    1       -0.016   1.298   0.009  0.00  0.00    +0.140 A 
ATOM      4  N   LIG    1        0.002  -0.004   0.002  0.00  0.00    -0.460 NA
ATOM      5  C   LIG    1        1.180  -0.585  -0.012  0.00  0.00    +0.090 A 
ATOM      6  C   LIG    1        2.235   0.236  -0.018  0.00  0.00    -0.240 A 
ATOM      7  C   LIG    1        1.333  -2.084  -0.022  0.00  0.00    +0.150 C 
ATOM      8  S   LIG    1        1.642   1.896  -0.003  0.00  0.00    +0.080 S 
BRANCH   3  12
ATOM      9  C   LIG    1       -3.509   3.717   0.040  0.00  0.00    +0.150 A 
ATOM     10  C   LIG    1       -3.625   2.333   0.033  0.00  0.00    -0.010 A 
ATOM     11  C   LIG    1       -2.494   1.545   0.023  0.00  0.00    +0.110 A 
ATOM     12  C   LIG    1       -1.231   2.140   0.020  0.00  0.00    -0.070 A 
ATOM     13  C   LIG    1       -1.119   3.531   0.032  0.00  0.00    +0.080 A 
ATOM     14  C   LIG    1       -2.254   4.312   0.036  0.00  0.00    -0.070 A 
BRANCH   9  16
ATOM     15  C   LIG    1       -4.434   5.906   0.055  0.00  0.00    +0.240 C 
ATOM     16  O   LIG    1       -4.626   4.490   0.049  0.00  0.00    -0.310 OA
ENDBRANCH   9  16
ENDBRANCH   3  12
ENDBRANCH   1   6
BRANCH   1  17
ATOM     17  N   LIG    1        4.433   0.612   0.940  0.00  0.00    -0.740 N 
ATOM     18  H   LIG    1        4.112   1.490   1.199  0.00  0.00    +0.390 HD
ATOM     19  C   LIG    1        5.570   0.125   1.475  0.00  0.00    +0.710 C 
ATOM     20  N   LIG    1        6.261   0.857   2.371  0.00  0.00    -0.740 N 
ATOM     21  H   LIG    1        5.939   1.735   2.631  0.00  0.00    +0.400 HD
ATOM     22  O   LIG    1        5.972  -0.975   1.150  0.00  0.00    -0.590 OA
BRANCH  20  23
ATOM     23  C   LIG    1        7.497   0.328   2.953  0.00  0.00    +0.370 C 
BRANCH  23  24
ATOM     24  C   LIG    1        8.069   1.335   3.917  0.00  0.00    -0.260 A 
ATOM     25  C   LIG    1        9.083   2.193   3.662  0.00  0.00    +0.270 A 
ATOM     26  N   LIG    1        9.295   2.923   4.778  0.00  0.00    -0.470 N 
ATOM     27  H   LIG    1        9.962   3.618   4.887  0.00  0.00    +0.440 HD
ATOM     28  N   LIG    1        8.380   2.498   5.750  0.00  0.00    -0.290 NA
ATOM     29  C   LIG    1        7.642   1.550   5.231  0.00  0.00    +0.090 A 
ATOM     30  C   LIG    1        6.528   0.815   5.930  0.00  0.00    +0.150 C 
ENDBRANCH  23  24
ENDBRANCH  20  23
ENDBRANCH   1  17
TORSDOF 6
