REMARK  Name = ZINCpk00000xImk7.0
REMARK                            x       y       z     vdW  Elec       q    Type
REMARK                         _______ _______ _______ _____ _____    ______ ____
ROOT
ATOM      1  C   LIG    1        1.169   2.088   0.002  0.00  0.00    -0.050 A 
ATOM      2  C   LIG    1       -0.017   1.379   0.010  0.00  0.00    +0.120 A 
ATOM      3  C   LIG    1        0.002  -0.004   0.002  0.00  0.00    -0.010 A 
ATOM      4  C   LIG    1        1.206  -0.685  -0.018  0.00  0.00    +0.170 A 
ATOM      5  O   LIG    1        1.238  -2.043  -0.020  0.00  0.00    -0.300 OA
ATOM      6  C   LIG    1        0.143  -2.750  -0.598  0.00  0.00    +0.220 C 
ATOM      7  C   LIG    1        0.218  -4.226  -0.197  0.00  0.00    +0.220 C 
ATOM      8  O   LIG    1        0.660  -5.008  -1.307  0.00  0.00    -0.380 OA
ATOM      9  C   LIG    1        1.422  -6.162  -0.942  0.00  0.00    +0.210 C 
ATOM     10  C   LIG    1        2.700  -6.206  -1.783  0.00  0.00    +0.160 C 
ATOM     11  O   LIG    1        3.712  -6.928  -1.079  0.00  0.00    -0.380 OA
ATOM     12  C   LIG    1        5.014  -6.827  -1.659  0.00  0.00    +0.240 C 
ATOM     13  C   LIG    1        5.355  -5.355  -1.895  0.00  0.00    +0.130 C 
ATOM     14  O   LIG    1        6.774  -5.194  -1.922  0.00  0.00    -0.380 OA
ATOM     15  C   LIG    1        7.210  -3.891  -2.315  0.00  0.00    +0.240 C 
ATOM     16  C   LIG    1        7.012  -2.914  -1.154  0.00  0.00    +0.150 C 
ATOM     17  O   LIG    1        6.155  -1.846  -1.565  0.00  0.00    -0.390 OA
ATOM     18  C   LIG    1        5.939  -0.856  -0.559  0.00  0.00    +0.210 C 
ATOM     19  C   LIG    1        4.639  -0.104  -0.853  0.00  0.00    +0.210 C 
ATOM     20  O   LIG    1        3.588  -0.632  -0.044  0.00  0.00    -0.300 OA
ATOM     21  C   LIG    1        2.403   0.033  -0.029  0.00  0.00    +0.100 A 
ATOM     22  C   LIG    1        2.377   1.417  -0.019  0.00  0.00    +0.060 A 
ENDROOT
BRANCH   1  24
ATOM     23  O   LIG    1        0.084   4.162   0.040  0.00  0.00    -0.150 OA
ATOM     24  N   LIG    1        1.148   3.569   0.019  0.00  0.00    +0.030 N 
ATOM     25  O   LIG    1        2.193   4.193   0.013  0.00  0.00    -0.160 OA
ENDBRANCH   1  24
TORSDOF 1
