REMARK  Name = ZINCrg000000nNWR.0
REMARK                            x       y       z     vdW  Elec       q    Type
REMARK                         _______ _______ _______ _____ _____    ______ ____
ROOT
ATOM      1  N   LIG    1       -2.085   7.218   4.239  0.00  0.00    -0.520 NA
ATOM      2  C   LIG    1       -3.101   6.479   3.477  0.00  0.00    +0.170 C 
ATOM      3  C   LIG    1       -3.786   5.463   4.398  0.00  0.00    +0.310 C 
ATOM      4  N   LIG    1       -2.750   4.629   5.027  0.00  0.00    -1.000 NA
ATOM      5  C   LIG    1       -1.627   5.302   5.697  0.00  0.00    +0.310 C 
ATOM      6  C   LIG    1       -1.024   6.323   4.720  0.00  0.00    +0.180 C 
ENDROOT
BRANCH   4   7
ATOM      7  S   LIG    1       -2.850   2.977   4.986  0.00  0.00    +2.690 S 
ATOM      8  O   LIG    1       -2.083   2.501   6.084  0.00  0.00    -0.940 OA
ATOM      9  O   LIG    1       -4.223   2.662   4.803  0.00  0.00    -0.940 OA
BRANCH   7  10
ATOM     10  C   LIG    1       -2.018   2.440   3.528  0.00  0.00    -0.690 A 
ATOM     11  C   LIG    1       -0.666   2.153   3.570  0.00  0.00    +0.190 A 
ATOM     12  C   LIG    1       -0.014   1.731   2.427  0.00  0.00    +0.020 A 
ATOM     13  C   LIG    1       -0.713   1.596   1.242  0.00  0.00    +0.040 A 
ATOM     14  C   LIG    1       -2.063   1.888   1.199  0.00  0.00    -0.070 A 
ATOM     15  C   LIG    1       -0.001   1.136  -0.004  0.00  0.00    +0.150 C 
ATOM     16  C   LIG    1       -2.716   2.306   2.343  0.00  0.00    +0.220 A 
BRANCH  14  17
ATOM     17  N   LIG    1       -2.810   1.749  -0.071  0.00  0.00    +0.030 N 
ATOM     18  O   LIG    1       -2.265   1.271  -1.050  0.00  0.00    -0.150 OA
ATOM     19  O   LIG    1       -3.971   2.113  -0.138  0.00  0.00    -0.150 OA
ENDBRANCH  14  17
ENDBRANCH   7  10
ENDBRANCH   4   7
BRANCH   1  20
ATOM     20  C   LIG    1       -1.525   8.316   3.440  0.00  0.00    +0.210 C 
BRANCH  20  22
ATOM     21  N   LIG    1       -0.057  10.274   3.802  0.00  0.00    -0.620 N 
ATOM     22  C   LIG    1       -0.676   9.196   4.322  0.00  0.00    +0.520 C 
ATOM     23  O   LIG    1       -0.550   8.934   5.499  0.00  0.00    -0.520 OA
BRANCH  21  25
ATOM     24  C   LIG    1       -1.417  11.511   2.188  0.00  0.00    +0.020 C 
ATOM     25  C   LIG    1       -0.209  10.591   2.380  0.00  0.00    +0.260 C 
ENDBRANCH  21  25
BRANCH  21  26
ATOM     26  C   LIG    1        0.768  11.130   4.659  0.00  0.00    +0.280 C 
ATOM     27  C   LIG    1        2.210  10.618   4.654  0.00  0.00    +0.010 C 
ENDBRANCH  21  26
ENDBRANCH  20  22
ENDBRANCH   1  20
TORSDOF 7
