REMARK  Name = ZINCvU0000000FD8.0
REMARK                            x       y       z     vdW  Elec       q    Type
REMARK                         _______ _______ _______ _____ _____    ______ ____
ROOT
ATOM      1  N   LIG    1        0.074   2.491   4.717  0.00  0.00    -0.610 N 
ENDROOT
BRANCH   1   2
ATOM      2  C   LIG    1       -0.650   2.253   3.546  0.00  0.00    +0.220 A 
ATOM      3  C   LIG    1       -2.023   2.465   3.522  0.00  0.00    -0.070 A 
ATOM      4  C   LIG    1       -2.736   2.229   2.362  0.00  0.00    +0.050 A 
ATOM      5  C   LIG    1       -2.084   1.789   1.225  0.00  0.00    -0.140 A 
ATOM      6  C   LIG    1       -0.718   1.572   1.248  0.00  0.00    -0.040 A 
ATOM      7  C   LIG    1       -0.013   1.086   0.008  0.00  0.00    +0.080 C 
ATOM      8  C   LIG    1       -2.864   1.540  -0.040  0.00  0.00    +0.070 C 
ATOM      9  C   LIG    1        0.001   1.805   2.404  0.00  0.00    -0.050 A 
ENDBRANCH   1   2
BRANCH   1  10
ATOM     10  C   LIG    1       -0.615   2.963   5.921  0.00  0.00    +0.330 C 
BRANCH  10  16
ATOM     11  C   LIG    1       -0.160   1.114   7.553  0.00  0.00    +0.140 A 
ATOM     12  C   LIG    1       -0.579   0.030   8.310  0.00  0.00    -0.080 A 
ATOM     13  C   LIG    1       -1.893  -0.392   8.241  0.00  0.00    +0.040 A 
ATOM     14  C   LIG    1       -2.791   0.269   7.425  0.00  0.00    -0.040 A 
ATOM     15  C   LIG    1       -2.377   1.354   6.674  0.00  0.00    +0.070 A 
ATOM     16  C   LIG    1       -1.065   1.780   6.739  0.00  0.00    -0.140 A 
BRANCH  11  17
ATOM     17  O   LIG    1        1.133   1.528   7.614  0.00  0.00    -0.310 OA
BRANCH  17  18
ATOM     18  C   LIG    1        2.009   0.795   8.473  0.00  0.00    +0.230 C 
BRANCH  18  20
ATOM     19  C   LIG    1        4.067   1.596   9.515  0.00  0.00    +0.050 C 
ATOM     20  C   LIG    1        3.390   1.394   8.412  0.00  0.00    -0.040 C 
ENDBRANCH  18  20
ENDBRANCH  17  18
ENDBRANCH  11  17
ENDBRANCH  10  16
ENDBRANCH   1  10
BRANCH   1  21
ATOM     21  C   LIG    1        1.521   2.267   4.741  0.00  0.00    +0.390 C 
BRANCH  21  22
ATOM     22  C   LIG    1        2.232   3.535   4.343  0.00  0.00    +0.190 A 
ATOM     23  C   LIG    1        3.034   4.199   5.247  0.00  0.00    -0.140 A 
ATOM     24  C   LIG    1        3.682   5.371   4.855  0.00  0.00    +0.530 A 
ATOM     25  N   LIG    1        3.514   5.846   3.586  0.00  0.00    -0.470 N 
ATOM     26  C   LIG    1        4.075   6.976   3.045  0.00  0.00    +0.240 A 
ATOM     27  C   LIG    1        3.803   7.289   1.791  0.00  0.00    +0.010 A 
ATOM     28  S   LIG    1        2.712   6.018   1.212  0.00  0.00    +0.180 S 
ATOM     29  C   LIG    1        2.707   5.137   2.749  0.00  0.00    +0.310 A 
ATOM     30  O   LIG    1        4.396   5.970   5.644  0.00  0.00    -0.520 OA
ATOM     31  N   LIG    1        2.098   4.026   3.117  0.00  0.00    -0.480 NA
ENDBRANCH  21  22
ENDBRANCH   1  21
TORSDOF 8
