REMARK  Name = ZINCvU0000000AIf.0
REMARK                            x       y       z     vdW  Elec       q    Type
REMARK                         _______ _______ _______ _____ _____    ______ ____
ROOT
ATOM      1  C   LIG    1        7.115  -2.094   5.035  0.00  0.00    +0.190 A 
ATOM      2  N   LIG    1        5.993  -1.452   5.195  0.00  0.00    -0.250 NA
ATOM      3  N   LIG    1        5.431  -1.253   4.057  0.00  0.00    -0.290 NA
ATOM      4  C   LIG    1        6.170  -1.762   3.098  0.00  0.00    +0.170 A 
ATOM      5  N   LIG    1        7.267  -2.321   3.693  0.00  0.00    -0.410 N 
ENDROOT
BRANCH   5   6
ATOM      6  C   LIG    1        8.328  -2.985   3.061  0.00  0.00    +0.090 A 
ATOM      7  C   LIG    1        8.544  -4.336   3.299  0.00  0.00    +0.050 A 
ATOM      8  C   LIG    1        9.586  -4.988   2.670  0.00  0.00    +0.030 A 
ATOM      9  C   LIG    1       10.421  -4.295   1.813  0.00  0.00    +0.030 A 
ATOM     10  C   LIG    1       10.212  -2.949   1.578  0.00  0.00    +0.040 A 
ATOM     11  C   LIG    1        9.168  -2.292   2.199  0.00  0.00    +0.030 A 
ENDBRANCH   5   6
BRANCH   1  12
ATOM     12  C   LIG    1        8.067  -2.515   6.126  0.00  0.00    +0.330 C 
BRANCH  12  13
ATOM     13  O   LIG    1        7.713  -3.820   6.589  0.00  0.00    -0.320 OA
BRANCH  13  21
ATOM     14  C   LIG    1        9.955  -5.358   5.821  0.00  0.00    +0.100 C 
ATOM     15  C   LIG    1        9.591  -5.115   7.263  0.00  0.00    -0.090 A 
ATOM     16  C   LIG    1       10.370  -5.649   8.272  0.00  0.00    +0.010 A 
ATOM     17  C   LIG    1       10.033  -5.432   9.595  0.00  0.00    +0.020 A 
ATOM     18  C   LIG    1        8.920  -4.675   9.913  0.00  0.00    +0.010 A 
ATOM     19  C   LIG    1        8.142  -4.134   8.908  0.00  0.00    -0.090 A 
ATOM     20  C   LIG    1        6.929  -3.310   9.254  0.00  0.00    +0.100 C 
ATOM     21  C   LIG    1        8.478  -4.351   7.579  0.00  0.00    +0.080 A 
ENDBRANCH  13  21
ENDBRANCH  12  13
ENDBRANCH   1  12
BRANCH   4  22
ATOM     22  S   LIG    1        5.811  -1.737   1.373  0.00  0.00    +0.040 S 
BRANCH  22  23
ATOM     23  C   LIG    1        4.232  -0.853   1.393  0.00  0.00    +0.070 C 
BRANCH  23  24
ATOM     24  C   LIG    1        3.711  -0.707  -0.038  0.00  0.00    +0.290 C 
BRANCH  24  25
ATOM     25  C   LIG    1        2.396   0.029  -0.022  0.00  0.00    -0.120 A 
ATOM     26  C   LIG    1        1.208  -0.679  -0.013  0.00  0.00    +0.020 A 
ATOM     27  C   LIG    1        0.002  -0.004   0.002  0.00  0.00    +0.010 A 
ATOM     28  C   LIG    1       -0.017   1.378   0.010  0.00  0.00    +0.010 A 
ATOM     29  C   LIG    1        1.171   2.086   0.002  0.00  0.00    +0.010 A 
ATOM     30  C   LIG    1        2.377   1.411  -0.015  0.00  0.00    +0.010 A 
ENDBRANCH  24  25
BRANCH  24  31
ATOM     31  O   LIG    1        4.658   0.027  -0.817  0.00  0.00    -0.540 OA
ATOM     32  H   LIG    1        4.834   0.918  -0.485  0.00  0.00    +0.380 HD
ENDBRANCH  24  31
ENDBRANCH  23  24
ENDBRANCH  22  23
ENDBRANCH   4  22
TORSDOF 9
