REMARK  Name = ZINCrD000006gDQu.0
REMARK                            x       y       z     vdW  Elec       q    Type
REMARK                         _______ _______ _______ _____ _____    ______ ____
ROOT
ATOM      1  C   LIG    1       -0.114   1.863  -1.776  0.00  0.00    +0.210 A 
ATOM      2  C   LIG    1        0.432   0.614  -1.557  0.00  0.00    -0.110 A 
ATOM      3  C   LIG    1       -0.415  -0.419  -1.149  0.00  0.00    +0.360 A 
ATOM      4  N   LIG    1       -1.710  -0.162  -0.987  0.00  0.00    -0.550 NA
ATOM      5  C   LIG    1       -2.188   1.046  -1.207  0.00  0.00    +0.360 A 
ATOM      6  N   LIG    1       -1.415   2.041  -1.592  0.00  0.00    -0.520 NA
ENDROOT
BRANCH   3   7
ATOM      7  N   LIG    1        0.084  -1.690  -0.918  0.00  0.00    -0.470 N 
ATOM      8  C   LIG    1        0.793  -2.200  -2.099  0.00  0.00    +0.210 C 
ATOM      9  C   LIG    1        1.482  -3.522  -1.746  0.00  0.00    +0.280 C 
ATOM     10  N   LIG    1        0.478  -4.436  -1.181  0.00  0.00    -0.620 N 
ATOM     11  C   LIG    1       -0.368  -3.947  -0.082  0.00  0.00    +0.300 C 
ATOM     12  C   LIG    1        0.336  -5.688  -1.658  0.00  0.00    +0.590 C 
ATOM     13  O   LIG    1       -0.498  -6.432  -1.176  0.00  0.00    -0.520 OA
ATOM     14  C   LIG    1       -0.984  -2.607  -0.501  0.00  0.00    +0.210 C 
BRANCH  12  15
ATOM     15  C   LIG    1        1.186  -6.154  -2.759  0.00  0.00    -0.060 A 
ATOM     16  C   LIG    1        0.857  -7.114  -3.693  0.00  0.00    +0.040 A 
ATOM     17  C   LIG    1        1.953  -7.244  -4.551  0.00  0.00    -0.060 A 
ATOM     18  C   LIG    1        2.911  -6.381  -4.136  0.00  0.00    +0.190 A 
ATOM     19  N   LIG    1        2.456  -5.710  -3.051  0.00  0.00    -0.550 N 
ATOM     20  H   LIG    1        2.944  -5.030  -2.560  0.00  0.00    +0.420 HD
ENDBRANCH  12  15
ENDBRANCH   3   7
BRANCH   1  22
ATOM     21  C   LIG    1        1.117   2.838  -3.694  0.00  0.00    +0.050 C 
ATOM     22  C   LIG    1        0.758   3.010  -2.217  0.00  0.00    -0.020 C 
ATOM     23  C   LIG    1        2.038   3.029  -1.380  0.00  0.00    +0.050 C 
ATOM     24  C   LIG    1        0.004   4.327  -2.025  0.00  0.00    +0.060 C 
ENDBRANCH   1  22
BRANCH   5  25
ATOM     25  C   LIG    1       -3.663   1.296  -1.018  0.00  0.00    +0.000 C 
ATOM     26  C   LIG    1       -4.272   1.772  -2.338  0.00  0.00    +0.060 C 
ATOM     27  C   LIG    1       -3.865   2.369   0.054  0.00  0.00    +0.050 C 
ATOM     28  C   LIG    1       -4.347  -0.000  -0.579  0.00  0.00    +0.050 C 
ENDBRANCH   5  25
TORSDOF 4
