REMARK  Name = ZINCqH0000006Zxa.0
REMARK                            x       y       z     vdW  Elec       q    Type
REMARK                         _______ _______ _______ _____ _____    ______ ____
ROOT
ATOM      1  C   LIG    1        1.169   3.564   0.010  0.00  0.00    +0.250 A 
ATOM      2  N   LIG    1        2.226   4.342   0.004  0.00  0.00    -0.470 NA
ATOM      3  C   LIG    1        1.818   5.620   0.013  0.00  0.00    -0.050 A 
ATOM      4  C   LIG    1        0.473   5.624   0.025  0.00  0.00    +0.190 A 
ATOM      5  O   LIG    1        0.069   4.338   0.018  0.00  0.00    -0.190 OA
ENDROOT
BRANCH   1   9
ATOM      6  C   LIG    1        1.213  -0.684  -0.013  0.00  0.00    +0.150 A 
ATOM      7  C   LIG    1        0.002  -0.004   0.002  0.00  0.00    -0.010 A 
ATOM      8  C   LIG    1       -0.017   1.374   0.010  0.00  0.00    +0.090 A 
ATOM      9  C   LIG    1        1.184   2.087   0.002  0.00  0.00    -0.070 A 
ATOM     10  C   LIG    1        2.400   1.399  -0.013  0.00  0.00    +0.120 A 
ATOM     11  C   LIG    1        2.410   0.021  -0.021  0.00  0.00    -0.070 A 
BRANCH   6  13
ATOM     12  C   LIG    1        2.507  -2.678  -0.036  0.00  0.00    +0.240 C 
ATOM     13  O   LIG    1        1.227  -2.042  -0.020  0.00  0.00    -0.310 OA
ENDBRANCH   6  13
ENDBRANCH   1   9
BRANCH   3  14
ATOM     14  C   LIG    1        2.709   6.836   0.010  0.00  0.00    +0.420 C 
BRANCH  14  15
ATOM     15  N   LIG    1        3.107   7.153   1.383  0.00  0.00    -0.540 N 
ATOM     16  C   LIG    1        4.238   6.604   1.900  0.00  0.00    +0.600 A 
ATOM     17  N   LIG    1        4.657   6.836   3.107  0.00  0.00    -0.520 NA
ATOM     18  C   LIG    1        3.981   7.657   3.949  0.00  0.00    +0.170 A 
ATOM     19  C   LIG    1        4.431   7.906   5.246  0.00  0.00    +0.050 A 
ATOM     20  C   LIG    1        3.712   8.748   6.068  0.00  0.00    +0.010 A 
ATOM     21  C   LIG    1        2.543   9.353   5.620  0.00  0.00    +0.020 A 
ATOM     22  C   LIG    1        2.080   9.121   4.344  0.00  0.00    +0.120 A 
ATOM     23 CL   LIG    1        4.273   9.057   7.681  0.00  0.00    -0.050 Cl
ATOM     24  C   LIG    1        2.792   8.274   3.498  0.00  0.00    -0.200 A 
ATOM     25  C   LIG    1        2.349   7.994   2.124  0.00  0.00    +0.550 A 
ATOM     26  O   LIG    1        1.336   8.497   1.672  0.00  0.00    -0.510 OA
ENDBRANCH  14  15
ENDBRANCH   3  14
TORSDOF 4
