REMARK  Name = ZINCrg00001Jdv27.0
REMARK                            x       y       z     vdW  Elec       q    Type
REMARK                         _______ _______ _______ _____ _____    ______ ____
ROOT
ATOM      1  C   LIG    1        3.644   1.203   2.607  0.00  0.00    +0.180 C 
ENDROOT
BRANCH   1   2
ATOM      2  N   LIG    1        3.170   1.183   1.217  0.00  0.00    -0.510 NA
ATOM      3  C   LIG    1        4.074   0.410   0.366  0.00  0.00    +0.170 C 
ATOM      4  C   LIG    1        3.412  -0.276  -0.760  0.00  0.00    +0.030 C 
ATOM      5  C   LIG    1        2.766   0.770  -1.703  0.00  0.00    +0.280 C 
ATOM      6  N   LIG    1        1.638   1.387  -1.040  0.00  0.00    -0.590 N 
ATOM      7  C   LIG    1        1.764   2.594  -0.198  0.00  0.00    +0.280 C 
ATOM      8  C   LIG    1        0.418   0.836  -1.199  0.00  0.00    +0.530 C 
ATOM      9  O   LIG    1        0.270  -0.105  -1.950  0.00  0.00    -0.530 OA
ATOM     10  C   LIG    1        3.010   2.528   0.704  0.00  0.00    +0.170 C 
BRANCH   8  11
ATOM     11  C   LIG    1       -0.762   1.389  -0.443  0.00  0.00    -0.040 C 
ATOM     12  C   LIG    1       -1.903   0.349  -0.384  0.00  0.00    +0.030 C 
ATOM     13  C   LIG    1       -3.077   1.037  -1.117  0.00  0.00    +0.200 C 
ATOM     14  O   LIG    1       -2.451   2.008  -1.985  0.00  0.00    -0.370 OA
ATOM     15  C   LIG    1       -1.381   2.583  -1.204  0.00  0.00    +0.220 C 
ENDBRANCH   8  11
ENDBRANCH   1   2
BRANCH   1  18
ATOM     16  C   LIG    1        4.707  -1.951   4.396  0.00  0.00    +0.130 A 
ATOM     17  C   LIG    1        4.729  -0.658   3.909  0.00  0.00    -0.040 A 
ATOM     18  C   LIG    1        3.660  -0.202   3.153  0.00  0.00    -0.040 A 
ATOM     19  C   LIG    1        2.608  -1.071   2.906  0.00  0.00    +0.000 A 
ATOM     20  C   LIG    1        2.658  -2.352   3.422  0.00  0.00    +0.260 A 
ATOM     21  N   LIG    1        3.689  -2.750   4.142  0.00  0.00    -0.470 NA
BRANCH  16  23
ATOM     22  C   LIG    1        5.338  -2.985   6.560  0.00  0.00    +0.040 C 
ATOM     23  C   LIG    1        5.861  -2.455   5.223  0.00  0.00    +0.090 C 
ENDBRANCH  16  23
ENDBRANCH   1  18
BRANCH   1  24
ATOM     24  C   LIG    1        2.721   2.054   3.441  0.00  0.00    +0.520 C 
ATOM     25  N   LIG    1        3.188   2.673   4.544  0.00  0.00    -0.730 N 
ATOM     26  H   LIG    1        4.117   2.570   4.801  0.00  0.00    +0.400 HD
ATOM     27  C   LIG    1        2.291   3.501   5.354  0.00  0.00    +0.290 C 
ATOM     28  O   LIG    1        1.559   2.184   3.119  0.00  0.00    -0.510 OA
ENDBRANCH   1  24
TORSDOF 5
