REMARK  Name = ZINCrH000004jARh.0
REMARK                            x       y       z     vdW  Elec       q    Type
REMARK                         _______ _______ _______ _____ _____    ______ ____
ROOT
ATOM      1  C   LIG    1       -2.338   2.649  -2.773  0.00  0.00    +0.520 C 
ATOM      2  N   LIG    1       -3.021   3.762  -3.108  0.00  0.00    -0.620 N 
ATOM      3  H   LIG    1       -3.032   4.523  -2.508  0.00  0.00    +0.430 HD
ATOM      4  O   LIG    1       -2.324   1.697  -3.524  0.00  0.00    -0.490 OA
ENDROOT
BRANCH   2   5
ATOM      5  C   LIG    1       -3.708   3.817  -4.311  0.00  0.00    +0.290 A 
ATOM      6  N   LIG    1       -4.395   4.828  -4.723  0.00  0.00    -0.500 NA
ATOM      7  C   LIG    1       -5.001   4.734  -5.911  0.00  0.00    +0.120 A 
ATOM      8  C   LIG    1       -4.796   3.508  -6.537  0.00  0.00    -0.230 A 
ATOM      9  C   LIG    1       -5.365   3.238  -7.791  0.00  0.00    +0.070 A 
ATOM     10  C   LIG    1       -6.132   4.144  -8.441  0.00  0.00    +0.040 A 
ATOM     11  C   LIG    1       -6.384   5.407  -7.871  0.00  0.00    -0.040 A 
ATOM     12  C   LIG    1       -7.178   6.358  -8.535  0.00  0.00    +0.030 A 
ATOM     13  C   LIG    1       -7.402   7.570  -7.955  0.00  0.00    +0.020 A 
ATOM     14  C   LIG    1       -6.857   7.882  -6.713  0.00  0.00    +0.010 A 
ATOM     15  C   LIG    1       -6.082   6.981  -6.042  0.00  0.00    +0.040 A 
ATOM     16  C   LIG    1       -5.833   5.728  -6.612  0.00  0.00    -0.010 A 
ATOM     17  S   LIG    1       -3.777   2.518  -5.493  0.00  0.00    +0.210 S 
ENDBRANCH   2   5
BRANCH   1  24
ATOM     18  C   LIG    1       -1.895   0.234   4.423  0.00  0.00    +0.310 C 
ATOM     19  N   LIG    1       -1.635   1.156   3.315  0.00  0.00    -0.640 N 
ATOM     20  C   LIG    1       -1.143   0.689   2.151  0.00  0.00    +0.710 C 
ATOM     21  N   LIG    1       -1.027   1.512   1.090  0.00  0.00    -0.630 N 
ATOM     22  C   LIG    1       -0.121   1.181  -0.018  0.00  0.00    +0.300 C 
ATOM     23  C   LIG    1       -0.907   1.226  -1.332  0.00  0.00    +0.050 C 
ATOM     24  C   LIG    1       -1.591   2.588  -1.466  0.00  0.00    +0.010 C 
ATOM     25  C   LIG    1       -2.573   2.784  -0.308  0.00  0.00    +0.030 C 
ATOM     26  C   LIG    1       -1.806   2.756   1.017  0.00  0.00    +0.270 C 
ATOM     27  O   LIG    1       -0.805  -0.475   2.057  0.00  0.00    -0.580 OA
ATOM     28  C   LIG    1       -1.909   2.587   3.473  0.00  0.00    +0.280 C 
ENDBRANCH   1  24
TORSDOF 2
