REMARK  Name = ZINCtV00000L6k2H.0
REMARK                            x       y       z     vdW  Elec       q    Type
REMARK                         _______ _______ _______ _____ _____    ______ ____
ROOT
ATOM      1  C   LIG    1        3.497   2.173  -1.778  0.00  0.00    +0.340 A 
ATOM      2  N   LIG    1        3.374   3.433  -2.135  0.00  0.00    -0.490 NA
ATOM      3  C   LIG    1        3.284   3.807  -3.416  0.00  0.00    +0.150 A 
ATOM      4  C   LIG    1        3.154   5.161  -3.769  0.00  0.00    +0.030 A 
ATOM      5  C   LIG    1        3.065   5.512  -5.082  0.00  0.00    +0.040 A 
ATOM      6  C   LIG    1        3.099   4.548  -6.086  0.00  0.00    +0.010 A 
ATOM      7  C   LIG    1        3.224   3.225  -5.780  0.00  0.00    +0.070 A 
ATOM      8  C   LIG    1        3.319   2.832  -4.441  0.00  0.00    -0.090 A 
ATOM      9  C   LIG    1        3.454   1.423  -4.065  0.00  0.00    +0.040 A 
ATOM     10  C   LIG    1        3.547   1.132  -2.711  0.00  0.00    +0.000 A 
ENDROOT
BRANCH   1  16
ATOM     11  C   LIG    1        6.479   5.910   0.161  0.00  0.00    +0.000 A 
ATOM     12  C   LIG    1        5.231   6.279   0.628  0.00  0.00    +0.000 A 
ATOM     13  C   LIG    1        4.220   5.341   0.702  0.00  0.00    +0.010 A 
ATOM     14  C   LIG    1        4.446   4.033   0.300  0.00  0.00    -0.080 A 
ATOM     15  C   LIG    1        3.311   3.047   0.398  0.00  0.00    +0.300 C 
ATOM     16  N   LIG    1        3.584   1.867  -0.428  0.00  0.00    -0.470 N 
ATOM     17  C   LIG    1        4.906   1.309  -0.098  0.00  0.00    +0.250 C 
ATOM     18  C   LIG    1        5.979   2.261  -0.627  0.00  0.00    +0.040 C 
ATOM     19  C   LIG    1        5.688   3.668  -0.173  0.00  0.00    -0.080 A 
ATOM     20  C   LIG    1        6.705   4.608  -0.240  0.00  0.00    +0.000 A 
ENDBRANCH   1  16
BRANCH   9  21
ATOM     21  C   LIG    1        3.497   0.356  -5.085  0.00  0.00    +0.150 A 
ATOM     22  N   LIG    1        3.417   0.549  -6.359  0.00  0.00    -0.450 NA
ATOM     23  C   LIG    1        3.476  -0.518  -7.163  0.00  0.00    +0.080 A 
ATOM     24  C   LIG    1        3.415  -0.568  -8.574  0.00  0.00    +0.080 A 
ATOM     25  C   LIG    1        3.486  -1.759  -9.227  0.00  0.00    +0.030 A 
ATOM     26  C   LIG    1        3.618  -2.949  -8.525  0.00  0.00    +0.050 A 
ATOM     27  C   LIG    1        3.678  -2.934  -7.150  0.00  0.00    +0.060 A 
ATOM     28  C   LIG    1        3.609  -1.724  -6.462  0.00  0.00    -0.170 A 
ATOM     29  S   LIG    1        3.657  -1.361  -4.738  0.00  0.00    +0.090 S 
ENDBRANCH   9  21
TORSDOF 2
