REMARK  Name = ZINCpk00000Pk2m5.0
REMARK                            x       y       z     vdW  Elec       q    Type
REMARK                         _______ _______ _______ _____ _____    ______ ____
ROOT
ATOM      1  C   LIG    1       -2.648  -0.085   1.470  0.00  0.00    +0.240 C 
ATOM      2  C   LIG    1       -1.165  -0.386   1.702  0.00  0.00    +0.010 C 
ATOM      3  C   LIG    1       -0.578  -1.055   0.457  0.00  0.00    +0.020 C 
ATOM      4  C   LIG    1       -0.698  -0.102  -0.736  0.00  0.00    +0.260 C 
ATOM      5  N   LIG    1       -2.103   0.306  -0.876  0.00  0.00    -0.600 N 
ATOM      6  C   LIG    1       -2.747   0.159  -2.050  0.00  0.00    +0.600 C 
ATOM      7  O   LIG    1       -3.939   0.388  -2.123  0.00  0.00    -0.520 OA
ATOM      8  C   LIG    1       -2.791   0.880   0.289  0.00  0.00    +0.220 C 
ATOM      9  C   LIG    1       -4.273   1.075  -0.037  0.00  0.00    +0.070 C 
ENDROOT
BRANCH   6  10
ATOM     10  C   LIG    1       -2.006  -0.282  -3.248  0.00  0.00    -0.190 A 
ATOM     11  C   LIG    1       -0.677  -0.022  -3.531  0.00  0.00    +0.240 A 
ATOM     12  N   LIG    1       -0.366  -0.591  -4.711  0.00  0.00    -0.250 N 
ATOM     13  N   LIG    1        0.831  -0.629  -5.441  0.00  0.00    -0.280 NA
ATOM     14  C   LIG    1        0.895  -1.248  -6.587  0.00  0.00    +0.350 A 
ATOM     15  C   LIG    1       -0.226  -1.897  -7.127  0.00  0.00    -0.070 A 
ATOM     16  C   LIG    1       -1.409  -1.888  -6.455  0.00  0.00    +0.160 A 
ATOM     17  C   LIG    1       -1.488  -1.220  -5.215  0.00  0.00    -0.040 A 
ATOM     18  C   LIG    1       -2.523  -1.039  -4.318  0.00  0.00    +0.070 A 
ENDBRANCH   6  10
BRANCH   1  20
ATOM     19  C   LIG    1       -3.667  -0.251   3.678  0.00  0.00    +0.520 C 
ATOM     20  N   LIG    1       -3.216   0.528   2.674  0.00  0.00    -0.720 N 
ATOM     21  H   LIG    1       -3.268   1.494   2.748  0.00  0.00    +0.400 HD
ATOM     22  O   LIG    1       -3.602  -1.458   3.585  0.00  0.00    -0.510 OA
BRANCH  19  23
ATOM     23  C   LIG    1       -4.252   0.380   4.915  0.00  0.00    +0.160 C 
ATOM     24  C   LIG    1       -5.537   1.125   4.550  0.00  0.00    +0.040 C 
BRANCH  23  26
ATOM     25  C   LIG    1       -4.451  -0.203   7.231  0.00  0.00    +0.200 C 
ATOM     26  O   LIG    1       -4.548  -0.638   5.874  0.00  0.00    -0.360 OA
ENDBRANCH  23  26
ENDBRANCH  19  23
ENDBRANCH   1  20
TORSDOF 4
