REMARK  Name = ZINCpk00000y6ySO.0
REMARK                            x       y       z     vdW  Elec       q    Type
REMARK                         _______ _______ _______ _____ _____    ______ ____
ROOT
ATOM      1  C   LIG    1       -2.566   1.425   0.021  0.00  0.00    +0.600 C 
ATOM      2  N   LIG    1       -2.837   0.105   0.015  0.00  0.00    -0.710 N 
ATOM      3  H   LIG    1       -2.112  -0.539   0.009  0.00  0.00    +0.400 HD
ATOM      4  O   LIG    1       -3.476   2.232   0.028  0.00  0.00    -0.540 OA
ENDROOT
BRANCH   1   7
ATOM      5  C   LIG    1       -1.620   4.427   0.041  0.00  0.00    +0.170 C 
ATOM      6  C   LIG    1       -0.741   3.203   0.026  0.00  0.00    +0.170 A 
ATOM      7  C   LIG    1       -1.168   1.890   0.017  0.00  0.00    -0.300 A 
ATOM      8  C   LIG    1       -0.013   1.076   0.008  0.00  0.00    +0.280 A 
ATOM      9  N   LIG    1        1.033   1.856   0.002  0.00  0.00    -0.290 NA
ATOM     10  N   LIG    1        0.605   3.188   0.013  0.00  0.00    -0.310 N 
BRANCH  10  11
ATOM     11  C   LIG    1        1.436   4.317   0.012  0.00  0.00    +0.140 A 
ATOM     12  C   LIG    1        1.053   5.463  -0.672  0.00  0.00    +0.000 A 
ATOM     13  C   LIG    1        1.873   6.574  -0.668  0.00  0.00    +0.040 A 
ATOM     14  C   LIG    1        3.079   6.543   0.008  0.00  0.00    +0.020 A 
ATOM     15  C   LIG    1        3.465   5.402   0.686  0.00  0.00    +0.040 A 
ATOM     16  C   LIG    1        2.648   4.288   0.690  0.00  0.00    +0.040 A 
ENDBRANCH  10  11
ENDBRANCH   1   7
BRANCH   2  17
ATOM     17  C   LIG    1       -4.227  -0.358   0.018  0.00  0.00    +0.260 C 
ATOM     18  C   LIG    1       -4.706  -0.880  -1.347  0.00  0.00    +0.010 C 
ATOM     19  C   LIG    1       -5.437  -1.993  -0.576  0.00  0.00    +0.180 C 
ATOM     20  C   LIG    1       -4.397  -1.795   0.540  0.00  0.00    +0.270 C 
BRANCH  20  21
ATOM     21  N   LIG    1       -4.964  -1.866   1.889  0.00  0.00    -0.360 N 
ATOM     22  C   LIG    1       -6.276  -1.839   2.201  0.00  0.00    +0.220 A 
ATOM     23  C   LIG    1       -6.382  -1.931   3.547  0.00  0.00    -0.120 A 
ATOM     24  C   LIG    1       -5.089  -2.007   4.076  0.00  0.00    +0.230 A 
ATOM     25  N   LIG    1       -4.239  -1.968   3.083  0.00  0.00    -0.290 NA
ENDBRANCH  20  21
BRANCH  19  26
ATOM     26  O   LIG    1       -5.362  -3.272  -1.210  0.00  0.00    -0.550 OA
ATOM     27  H   LIG    1       -5.984  -3.384  -1.942  0.00  0.00    +0.390 HD
ENDBRANCH  19  26
ENDBRANCH   2  17
TORSDOF 5
