REMARK  Name = ZINC9p0000006lwV.0
REMARK                            x       y       z     vdW  Elec       q    Type
REMARK                         _______ _______ _______ _____ _____    ______ ____
ROOT
ATOM      1  C   LIG    1        3.674   1.582   1.001  0.00  0.00    +0.030 C 
ENDROOT
BRANCH   1   2
ATOM      2  C   LIG    1        4.558   0.852   2.015  0.00  0.00    +0.250 C 
BRANCH   2   3
ATOM      3  N   LIG    1        5.903   1.441   2.005  0.00  0.00    -0.640 N 
ATOM      4  H   LIG    1        6.486   0.959   2.674  0.00  0.00    +0.440 HD
ATOM      5  H   LIG    1        5.845   2.417   2.252  0.00  0.00    +0.440 HD
ATOM      6  H   LIG    1        6.303   1.350   1.084  0.00  0.00    +0.440 HD
ENDBRANCH   2   3
ENDBRANCH   1   2
BRANCH   1   7
ATOM      7  C   LIG    1        2.272   0.969   1.012  0.00  0.00    +0.020 C 
BRANCH   7   8
ATOM      8  C   LIG    1        1.389   1.699  -0.002  0.00  0.00    +0.030 C 
BRANCH   8   9
ATOM      9  C   LIG    1       -0.013   1.086   0.008  0.00  0.00    -0.020 C 
ATOM     10  C   LIG    1       -0.939   1.683   1.080  0.00  0.00    +0.010 C 
ATOM     11  C   LIG    1       -2.063   1.621   0.029  0.00  0.00    +0.000 C 
ATOM     12  C   LIG    1       -0.959   1.695  -1.040  0.00  0.00    +0.010 C 
ENDBRANCH   8   9
ENDBRANCH   7   8
ENDBRANCH   1   7
TORSDOF 5
