REMARK  Name = ZINCqH0000037I0T.0
REMARK                            x       y       z     vdW  Elec       q    Type
REMARK                         _______ _______ _______ _____ _____    ______ ____
ROOT
ATOM      1  C   LIG    1        3.700   2.122  -0.037  0.00  0.00    +0.570 C 
ATOM      2  N   LIG    1        4.809   1.362   0.072  0.00  0.00    -0.580 N 
ATOM      3  C   LIG    1        4.655  -0.089   0.104  0.00  0.00    +0.280 C 
ATOM      4  C   LIG    1        5.306  -0.705  -1.140  0.00  0.00    +0.080 C 
ATOM      5  C   LIG    1        6.797  -0.805  -0.906  0.00  0.00    -0.090 A 
ATOM      6  C   LIG    1        7.375  -2.049  -0.720  0.00  0.00    +0.050 A 
ATOM      7  C   LIG    1        8.737  -2.148  -0.508  0.00  0.00    -0.010 A 
ATOM      8  C   LIG    1        9.519  -1.006  -0.481  0.00  0.00    +0.100 A 
ATOM      9  C   LIG    1        8.935   0.236  -0.667  0.00  0.00    -0.010 A 
ATOM     10  F   LIG    1       10.850  -1.103  -0.273  0.00  0.00    -0.140 F 
ATOM     11  C   LIG    1        7.572   0.329  -0.880  0.00  0.00    -0.050 A 
ATOM     12  C   LIG    1        6.941   1.688  -1.084  0.00  0.00    +0.030 C 
ATOM     13  C   LIG    1        6.041   1.656  -2.321  0.00  0.00    +0.040 C 
ATOM     14  C   LIG    1        6.104   2.031   0.147  0.00  0.00    +0.310 C 
ATOM     15  O   LIG    1        3.799   3.327  -0.152  0.00  0.00    -0.510 OA
ENDROOT
BRANCH   1  19
ATOM     16  C   LIG    1       -0.956   1.743   1.784  0.00  0.00    +0.170 C 
ATOM     17  C   LIG    1        0.141   1.300   0.851  0.00  0.00    +0.190 A 
ATOM     18  C   LIG    1        1.378   1.928   0.872  0.00  0.00    +0.020 A 
ATOM     19  C   LIG    1        2.359   1.485  -0.016  0.00  0.00    +0.150 A 
ATOM     20  N   LIG    1        2.073   0.484  -0.844  0.00  0.00    -0.460 NA
ATOM     21  C   LIG    1        0.886  -0.083  -0.829  0.00  0.00    +0.240 A 
ATOM     22  N   LIG    1       -0.064   0.311  -0.003  0.00  0.00    -0.470 NA
BRANCH  21  23
ATOM     23  C   LIG    1        0.603  -1.214  -1.783  0.00  0.00    +0.550 C 
ATOM     24  F   LIG    1        1.241  -2.375  -1.333  0.00  0.00    -0.160 F 
ATOM     25  F   LIG    1        1.081  -0.882  -3.055  0.00  0.00    -0.160 F 
ATOM     26  F   LIG    1       -0.777  -1.436  -1.847  0.00  0.00    -0.150 F 
ENDBRANCH  21  23
ENDBRANCH   1  19
TORSDOF 2
