REMARK  Name = ZINCah0000003ZR9.0
REMARK                            x       y       z     vdW  Elec       q    Type
REMARK                         _______ _______ _______ _____ _____    ______ ____
ROOT
ATOM      1  C   LIG    1        3.350   2.894  -0.015  0.00  0.00    +0.370 A 
ATOM      2  N   LIG    1        2.834   4.117  -0.003  0.00  0.00    -0.520 NA
ATOM      3  C   LIG    1        1.534   4.336   0.011  0.00  0.00    +0.320 A 
ATOM      4  C   LIG    1        0.641   3.276   0.014  0.00  0.00    -0.010 A 
ATOM      5  N   LIG    1       -0.734   3.176   0.026  0.00  0.00    -0.590 N 
ATOM      6  H   LIG    1       -1.348   3.928   0.035  0.00  0.00    +0.420 HD
ATOM      7  C   LIG    1       -1.104   1.861   0.017  0.00  0.00    +0.250 A 
ATOM      8  C   LIG    1       -0.013   1.076   0.008  0.00  0.00    -0.080 A 
ATOM      9  C   LIG    1        1.150   1.960   0.002  0.00  0.00    -0.030 A 
ATOM     10  C   LIG    1        2.534   1.776  -0.013  0.00  0.00    -0.080 A 
ENDROOT
BRANCH   1  11
ATOM     11  N   LIG    1        4.735   2.733  -0.030  0.00  0.00    -0.860 N 
ATOM     12  H   LIG    1        5.314   3.512  -0.031  0.00  0.00    +0.400 HD
ATOM     13  H   LIG    1        5.120   1.843  -0.038  0.00  0.00    +0.410 HD
ENDBRANCH   1  11
TORSDOF 1
