REMARK  Name = ZINCtV00000L6k8a.0
REMARK                            x       y       z     vdW  Elec       q    Type
REMARK                         _______ _______ _______ _____ _____    ______ ____
ROOT
ATOM      1  C   LIG    1       -1.219   2.133   0.054  0.00  0.00    +0.210 A 
ATOM      2  C   LIG    1       -2.405   1.414   0.052  0.00  0.00    +0.000 A 
ATOM      3  C   LIG    1       -3.616   2.079   0.037  0.00  0.00    -0.130 A 
ATOM      4  C   LIG    1       -3.650   3.461   0.013  0.00  0.00    +0.030 A 
ATOM      5  C   LIG    1       -2.471   4.185   0.009  0.00  0.00    +0.080 A 
ATOM      6  C   LIG    1       -1.253   3.526   0.029  0.00  0.00    +0.030 A 
ENDROOT
BRANCH   3   7
ATOM      7  C   LIG    1       -4.904   1.296   0.040  0.00  0.00    +0.510 C 
ATOM      8  F   LIG    1       -4.969   0.510   1.195  0.00  0.00    -0.170 F 
ATOM      9  F   LIG    1       -4.951   0.471  -1.089  0.00  0.00    -0.170 F 
ATOM     10  F   LIG    1       -5.988   2.181   0.017  0.00  0.00    -0.170 F 
ENDBRANCH   3   7
BRANCH   1  11
ATOM     11  N   LIG    1        0.009   1.462   0.074  0.00  0.00    -0.720 N 
ATOM     12  H   LIG    1        0.838   1.966   0.067  0.00  0.00    +0.420 HD
BRANCH  11  13
ATOM     13  C   LIG    1        0.043  -0.002   0.100  0.00  0.00    +0.300 C 
BRANCH  13  15
ATOM     14  O   LIG    1        2.378   0.338   0.099  0.00  0.00    -0.530 OA
ATOM     15  C   LIG    1        1.475  -0.471   0.111  0.00  0.00    +0.510 C 
ATOM     16  N   LIG    1        1.752  -1.790   0.135  0.00  0.00    -0.720 N 
ATOM     17  H   LIG    1        1.029  -2.438   0.145  0.00  0.00    +0.400 HD
BRANCH  16  18
ATOM     18  C   LIG    1        3.144  -2.246   0.146  0.00  0.00    +0.240 C 
ATOM     19  C   LIG    1        3.671  -2.311  -1.289  0.00  0.00    +0.000 C 
ATOM     20  C   LIG    1        5.125  -2.787  -1.277  0.00  0.00    +0.010 C 
ATOM     21  C   LIG    1        5.201  -4.177  -0.643  0.00  0.00    +0.010 C 
ATOM     22  C   LIG    1        4.674  -4.113   0.792  0.00  0.00    +0.020 C 
ATOM     23  C   LIG    1        3.220  -3.637   0.780  0.00  0.00    +0.010 C 
ENDBRANCH  16  18
ENDBRANCH  13  15
ENDBRANCH  11  13
ENDBRANCH   1  11
BRANCH   6  24
ATOM     24  O   LIG    1       -0.094   4.237   0.026  0.00  0.00    -0.240 OA
BRANCH  24  25
ATOM     25  C   LIG    1        0.555   4.393  -1.158  0.00  0.00    +0.130 A 
ATOM     26  C   LIG    1       -0.022   3.933  -2.333  0.00  0.00    -0.040 A 
ATOM     27  C   LIG    1        0.637   4.096  -3.535  0.00  0.00    +0.090 A 
ATOM     28  C   LIG    1        1.877   4.710  -3.568  0.00  0.00    -0.120 A 
ATOM     29  C   LIG    1        2.456   5.166  -2.397  0.00  0.00    +0.090 A 
ATOM     30 BR   LIG    1        2.780   4.926  -5.215  0.00  0.00    -0.050 Br
ATOM     31  C   LIG    1        1.798   5.008  -1.193  0.00  0.00    +0.000 A 
ENDBRANCH  24  25
ENDBRANCH   6  24
TORSDOF 7
