REMARK  Name = ZINCrg000000tnzd.0
REMARK                            x       y       z     vdW  Elec       q    Type
REMARK                         _______ _______ _______ _____ _____    ______ ____
ROOT
ATOM      1  O   LIG    1        0.848  -0.955   3.436  0.00  0.00    -0.570 OA
ATOM      2  C   LIG    1        0.166  -0.630   2.483  0.00  0.00    +0.710 C 
ATOM      3  N   LIG    1        0.754  -0.298   1.316  0.00  0.00    -0.610 N 
ATOM      4  C   LIG    1        2.167  -0.317   1.165  0.00  0.00    +0.280 C 
ATOM      5  C   LIG    1        2.891   0.980   1.656  0.00  0.00    +0.010 C 
ATOM      6  C   LIG    1        1.984   2.193   1.269  0.00  0.00    +0.270 C 
ATOM      7  N   LIG    1        1.335   2.070   0.011  0.00  0.00    -0.590 N 
ATOM      8  C   LIG    1       -0.060   1.557   0.017  0.00  0.00    +0.270 C 
ATOM      9  C   LIG    1        1.956   2.404  -1.137  0.00  0.00    +0.560 C 
ATOM     10  O   LIG    1        3.099   2.819  -1.111  0.00  0.00    -0.520 OA
ATOM     11  C   LIG    1       -0.047   0.103   0.131  0.00  0.00    +0.280 C 
ATOM     12  N   LIG    1       -1.177  -0.602   2.593  0.00  0.00    -0.750 N 
ATOM     13  H   LIG    1       -1.720  -0.343   1.832  0.00  0.00    +0.390 HD
ENDROOT
BRANCH   9  14
ATOM     14  C   LIG    1        1.250   2.265  -2.427  0.00  0.00    -0.140 A 
ATOM     15  C   LIG    1        0.282   1.272  -2.593  0.00  0.00    +0.070 A 
ATOM     16  C   LIG    1       -0.377   1.149  -3.797  0.00  0.00    -0.020 A 
ATOM     17  C   LIG    1       -0.074   2.004  -4.846  0.00  0.00    +0.130 A 
ATOM     18  C   LIG    1        0.890   2.988  -4.689  0.00  0.00    -0.010 A 
ATOM     19  F   LIG    1       -0.719   1.876  -6.026  0.00  0.00    -0.130 F 
ATOM     20  C   LIG    1        1.552   3.122  -3.487  0.00  0.00    +0.120 A 
ENDBRANCH   9  14
BRANCH  12  21
ATOM     21  C   LIG    1       -1.816  -0.963   3.861  0.00  0.00    +0.290 C 
BRANCH  21  22
ATOM     22  C   LIG    1       -3.335  -0.849   3.717  0.00  0.00    +0.170 C 
BRANCH  22  23
ATOM     23  N   LIG    1       -3.975  -1.210   4.989  0.00  0.00    -0.530 NA
ATOM     24  C   LIG    1       -3.765  -2.632   5.299  0.00  0.00    +0.150 C 
ATOM     25  C   LIG    1       -4.396  -2.951   6.657  0.00  0.00    +0.220 C 
ATOM     26  O   LIG    1       -5.783  -2.602   6.627  0.00  0.00    -0.380 OA
ATOM     27  C   LIG    1       -6.024  -1.224   6.328  0.00  0.00    +0.220 C 
ATOM     28  C   LIG    1       -5.409  -0.888   4.967  0.00  0.00    +0.160 C 
ENDBRANCH  22  23
ENDBRANCH  21  22
ENDBRANCH  12  21
TORSDOF 4
