REMARK  Name = ZINCrH000004qndf.0
REMARK                            x       y       z     vdW  Elec       q    Type
REMARK                         _______ _______ _______ _____ _____    ______ ____
ROOT
ATOM      1  C   LIG    1       -1.327  -3.290  -0.791  0.00  0.00    +0.420 C 
ATOM      2  O   LIG    1       -2.379  -3.167  -1.383  0.00  0.00    -0.450 OA
ENDROOT
BRANCH   1   6
ATOM      3  C   LIG    1        2.223  -0.249   1.237  0.00  0.00    +0.130 C 
ATOM      4  C   LIG    1        0.992  -0.772   0.544  0.00  0.00    +0.020 A 
ATOM      5  C   LIG    1        0.692  -2.069   0.364  0.00  0.00    +0.000 A 
ATOM      6  C   LIG    1       -0.587  -2.102  -0.358  0.00  0.00    -0.270 A 
ATOM      7  C   LIG    1       -0.949  -0.781  -0.545  0.00  0.00    +0.130 A 
ATOM      8  C   LIG    1       -2.195  -0.296  -1.242  0.00  0.00    +0.140 C 
ATOM      9  N   LIG    1        0.002  -0.004   0.002  0.00  0.00    -0.430 N 
BRANCH   9  10
ATOM     10  C   LIG    1       -0.018   1.461   0.010  0.00  0.00    +0.380 C 
BRANCH  10  11
ATOM     11  C   LIG    1       -0.723   1.947   1.250  0.00  0.00    -0.220 A 
ATOM     12  C   LIG    1       -0.135   2.200   2.420  0.00  0.00    +0.040 A 
ATOM     13  C   LIG    1       -0.987   2.641   3.418  0.00  0.00    +0.000 A 
ATOM     14  C   LIG    1       -2.268   2.737   3.061  0.00  0.00    -0.030 A 
ATOM     15  S   LIG    1       -2.449   2.260   1.378  0.00  0.00    +0.120 S 
ENDBRANCH  10  11
ENDBRANCH   9  10
ENDBRANCH   1   6
BRANCH   1  16
ATOM     16  C   LIG    1       -0.781  -4.664  -0.501  0.00  0.00    +0.390 C 
BRANCH  16  17
ATOM     17  N   LIG    1       -1.698  -5.676  -1.032  0.00  0.00    -0.130 N 
ATOM     18  N   LIG    1       -2.677  -6.206  -0.385  0.00  0.00    -0.050 NA
ATOM     19  N   LIG    1       -3.276  -7.053  -1.152  0.00  0.00    -0.270 NA
ATOM     20  C   LIG    1       -2.630  -7.051  -2.327  0.00  0.00    +0.210 A 
ATOM     21  N   LIG    1       -1.648  -6.178  -2.217  0.00  0.00    -0.290 NA
BRANCH  20  22
ATOM     22  C   LIG    1       -2.957  -7.873  -3.519  0.00  0.00    -0.010 A 
ATOM     23  C   LIG    1       -2.193  -7.758  -4.678  0.00  0.00    +0.050 A 
ATOM     24  C   LIG    1       -2.497  -8.529  -5.782  0.00  0.00    +0.010 A 
ATOM     25  C   LIG    1       -3.566  -9.406  -5.742  0.00  0.00    +0.030 A 
ATOM     26  C   LIG    1       -4.331  -9.520  -4.596  0.00  0.00    +0.010 A 
ATOM     27  C   LIG    1       -4.032  -8.758  -3.485  0.00  0.00    +0.060 A 
ENDBRANCH  20  22
ENDBRANCH  16  17
ENDBRANCH   1  16
TORSDOF 6
