REMARK  Name = ZINCqH0000007GFu.0
REMARK                            x       y       z     vdW  Elec       q    Type
REMARK                         _______ _______ _______ _____ _____    ______ ____
ROOT
ATOM      1  C   LIG    1        1.032  -1.994   0.003  0.00  0.00    +0.330 A 
ATOM      2  N   LIG    1        1.121  -0.715  -0.198  0.00  0.00    -0.520 NA
ATOM      3  C   LIG    1       -0.008  -0.012  -0.117  0.00  0.00    +0.180 A 
ATOM      4  C   LIG    1       -1.113  -0.731   0.157  0.00  0.00    -0.110 A 
ATOM      5  S   LIG    1       -0.646  -2.421   0.324  0.00  0.00    +0.110 S 
ENDROOT
BRANCH   3   6
ATOM      6  C   LIG    1       -0.046   1.452  -0.319  0.00  0.00    -0.130 A 
ATOM      7  C   LIG    1        1.022   2.227  -0.595  0.00  0.00    +0.050 A 
ATOM      8  C   LIG    1        0.736   3.570  -0.743  0.00  0.00    +0.020 A 
ATOM      9  C   LIG    1       -0.550   3.895  -0.591  0.00  0.00    -0.180 A 
ATOM     10  S   LIG    1       -1.492   2.451  -0.245  0.00  0.00    +0.140 S 
BRANCH   9  11
ATOM     11  C   LIG    1       -1.111   5.289  -0.703  0.00  0.00    +0.130 C 
BRANCH  11  12
ATOM     12  C   LIG    1       -1.519   5.559  -2.152  0.00  0.00    +0.280 C 
BRANCH  12  13
ATOM     13  N   LIG    1       -2.064   6.915  -2.262  0.00  0.00    -1.120 NA
ATOM     14  H   LIG    1       -2.321   7.400  -1.462  0.00  0.00    +0.420 HD
BRANCH  13  15
ATOM     15  S   LIG    1       -2.242   7.618  -3.750  0.00  0.00    +2.620 S 
ATOM     16  O   LIG    1       -0.972   7.459  -4.367  0.00  0.00    -0.950 OA
ATOM     17  O   LIG    1       -2.762   8.910  -3.468  0.00  0.00    -0.960 OA
ATOM     18  C   LIG    1       -3.488   6.599  -4.586  0.00  0.00    -0.280 C 
ENDBRANCH  13  15
ENDBRANCH  12  13
ENDBRANCH  11  12
ENDBRANCH   9  11
ENDBRANCH   3   6
BRANCH   1  19
ATOM     19  N   LIG    1        2.092  -2.886  -0.035  0.00  0.00    -0.630 N 
ATOM     20  H   LIG    1        2.999  -2.557  -0.131  0.00  0.00    +0.430 HD
BRANCH  19  25
ATOM     21  C   LIG    1        2.507  -6.434   0.846  0.00  0.00    +0.160 A 
ATOM     22  C   LIG    1        1.374  -6.981   0.261  0.00  0.00    -0.090 A 
ATOM     23  C   LIG    1        0.484  -6.170  -0.418  0.00  0.00    +0.090 A 
ATOM     24  C   LIG    1        0.720  -4.813  -0.518  0.00  0.00    -0.070 A 
ATOM     25  C   LIG    1        1.853  -4.259   0.066  0.00  0.00    +0.200 A 
ATOM     26  C   LIG    1        2.750  -5.073   0.744  0.00  0.00    -0.040 A 
BRANCH  21  28
ATOM     27  C   LIG    1        3.070  -8.626   1.575  0.00  0.00    +0.250 C 
ATOM     28  O   LIG    1        3.381  -7.232   1.514  0.00  0.00    -0.310 OA
ENDBRANCH  21  28
ENDBRANCH  19  25
ENDBRANCH   1  19
TORSDOF 8
