REMARK  Name = ZINCvU0000000EWH.0
REMARK                            x       y       z     vdW  Elec       q    Type
REMARK                         _______ _______ _______ _____ _____    ______ ____
ROOT
ATOM      1  C   LIG    1        1.283  -0.416   0.134  0.00  0.00    +0.160 A 
ATOM      2  N   LIG    1        1.962   0.694   0.211  0.00  0.00    -0.270 NA
ATOM      3  N   LIG    1        1.161   1.694   0.312  0.00  0.00    -0.290 NA
ATOM      4  C   LIG    1       -0.082   1.273   0.304  0.00  0.00    +0.160 A 
ATOM      5  N   LIG    1       -0.043  -0.087   0.191  0.00  0.00    -0.450 N 
ENDROOT
BRANCH   1   6
ATOM      6  C   LIG    1        1.855  -1.804   0.006  0.00  0.00    +0.270 C 
BRANCH   6   7
ATOM      7  N   LIG    1        2.875  -1.819  -1.051  0.00  0.00    -0.510 NA
ATOM      8  C   LIG    1        3.983  -0.911  -0.725  0.00  0.00    +0.210 C 
ATOM      9  C   LIG    1        2.287  -1.485  -2.355  0.00  0.00    +0.190 C 
ENDBRANCH   6   7
BRANCH   6  11
ATOM     10  C   LIG    1        3.007  -3.655   1.226  0.00  0.00    +0.030 C 
ATOM     11  C   LIG    1        2.490  -2.219   1.334  0.00  0.00    +0.030 C 
ENDBRANCH   6  11
ENDBRANCH   1   6
BRANCH   4  12
ATOM     12  S   LIG    1       -1.528   2.274   0.413  0.00  0.00    +0.020 S 
BRANCH  12  13
ATOM     13  C   LIG    1       -0.769   3.912   0.536  0.00  0.00    +0.200 C 
BRANCH  13  14
ATOM     14  C   LIG    1       -1.847   4.959   0.643  0.00  0.00    +0.080 A 
ATOM     15  C   LIG    1       -2.372   5.550  -0.436  0.00  0.00    -0.040 A 
ATOM     16  S   LIG    1       -3.592   6.700   0.105  0.00  0.00    +0.110 S 
ATOM     17  C   LIG    1       -3.256   6.263   1.778  0.00  0.00    +0.120 A 
ATOM     18  N   LIG    1       -2.326   5.352   1.800  0.00  0.00    -0.450 NA
BRANCH  17  19
ATOM     19  C   LIG    1       -3.924   6.837   2.966  0.00  0.00    -0.030 A 
ATOM     20  C   LIG    1       -3.574   6.402   4.245  0.00  0.00    +0.070 A 
ATOM     21  C   LIG    1       -4.196   6.946   5.349  0.00  0.00    +0.010 A 
ATOM     22  C   LIG    1       -5.174   7.912   5.191  0.00  0.00    +0.030 A 
ATOM     23  C   LIG    1       -5.530   8.343   3.925  0.00  0.00    +0.010 A 
ATOM     24  C   LIG    1       -4.911   7.811   2.812  0.00  0.00    +0.020 A 
ENDBRANCH  17  19
ENDBRANCH  13  14
ENDBRANCH  12  13
ENDBRANCH   4  12
BRANCH   5  25
ATOM     25  C   LIG    1       -1.184  -1.004   0.140  0.00  0.00    +0.360 C 
BRANCH  25  26
ATOM     26  C   LIG    1       -1.607  -1.201  -1.293  0.00  0.00    -0.120 A 
ATOM     27  C   LIG    1       -2.555  -0.367  -1.855  0.00  0.00    +0.040 A 
ATOM     28  C   LIG    1       -2.939  -0.545  -3.171  0.00  0.00    +0.010 A 
ATOM     29  C   LIG    1       -2.383  -1.564  -3.922  0.00  0.00    +0.030 A 
ATOM     30  C   LIG    1       -1.439  -2.401  -3.358  0.00  0.00    +0.010 A 
ATOM     31  C   LIG    1       -1.051  -2.220  -2.044  0.00  0.00    +0.020 A 
ENDBRANCH  25  26
ENDBRANCH   5  25
TORSDOF 9
