REMARK  Name = ZINCpk00000kVfLD.0
REMARK                            x       y       z     vdW  Elec       q    Type
REMARK                         _______ _______ _______ _____ _____    ______ ____
ROOT
ATOM      1  C   LIG    1        2.316  -4.048  -2.957  0.00  0.00    +0.520 C 
ATOM      2  N   LIG    1        2.691  -5.292  -3.317  0.00  0.00    -0.640 N 
ATOM      3  H   LIG    1        2.897  -5.952  -2.637  0.00  0.00    +0.410 HD
ATOM      4  O   LIG    1        2.058  -3.222  -3.807  0.00  0.00    -0.500 OA
ENDROOT
BRANCH   2   5
ATOM      5  C   LIG    1        2.784  -5.632  -4.679  0.00  0.00    +0.020 A 
ATOM      6  C   LIG    1        3.153  -6.839  -5.179  0.00  0.00    +0.210 A 
ATOM      7  N   LIG    1        3.111  -6.752  -6.536  0.00  0.00    -0.320 N 
ATOM      8  N   LIG    1        2.713  -5.452  -6.871  0.00  0.00    -0.260 NA
ATOM      9  C   LIG    1        2.518  -4.782  -5.763  0.00  0.00    +0.290 A 
BRANCH   7  10
ATOM     10  C   LIG    1        3.417  -7.781  -7.439  0.00  0.00    +0.100 A 
ATOM     11  C   LIG    1        3.806  -9.029  -6.968  0.00  0.00    +0.100 A 
ATOM     12  C   LIG    1        4.101 -10.043  -7.863  0.00  0.00    +0.030 A 
ATOM     13  C   LIG    1        4.021  -9.812  -9.223  0.00  0.00    +0.080 A 
ATOM     14  C   LIG    1        3.640  -8.570  -9.696  0.00  0.00    +0.010 A 
ATOM     15  F   LIG    1        3.891  -9.254  -5.639  0.00  0.00    -0.120 F 
ATOM     16  C   LIG    1        3.337  -7.553  -8.808  0.00  0.00    +0.130 A 
ATOM     17  F   LIG    1        2.964  -6.339  -9.271  0.00  0.00    -0.100 F 
ENDBRANCH   7  10
ENDBRANCH   2   5
BRANCH   1  18
ATOM     18  C   LIG    1        2.216  -3.684  -1.498  0.00  0.00    +0.230 C 
BRANCH  18  19
ATOM     19  O   LIG    1        1.803  -2.322  -1.374  0.00  0.00    -0.350 OA
BRANCH  19  20
ATOM     20  C   LIG    1        1.677  -1.873  -0.024  0.00  0.00    +0.320 C 
BRANCH  20  26
ATOM     21  C   LIG    1        3.515   0.633  -0.028  0.00  0.00    +0.370 C 
ATOM     22  N   LIG    1        2.050   0.641  -0.014  0.00  0.00    -0.370 N 
ATOM     23  N   LIG    1        1.214   1.769   0.000  0.00  0.00    -0.310 NA
ATOM     24  C   LIG    1       -0.016   1.328   0.009  0.00  0.00    +0.420 A 
ATOM     25  N   LIG    1        0.002  -0.004   0.002  0.00  0.00    -0.520 NA
ATOM     26  C   LIG    1        1.239  -0.431  -0.012  0.00  0.00    +0.270 A 
ENDBRANCH  20  26
ENDBRANCH  19  20
ENDBRANCH  18  19
ENDBRANCH   1  18
TORSDOF 6
