REMARK  Name = ZINCvU0000000HoK.0
REMARK                            x       y       z     vdW  Elec       q    Type
REMARK                         _______ _______ _______ _____ _____    ______ ____
ROOT
ATOM      1  C   LIG    1       -1.069  -4.931   0.406  0.00  0.00    -0.050 A 
ATOM      2  C   LIG    1       -2.280  -4.262   0.423  0.00  0.00    +0.040 A 
ATOM      3  C   LIG    1       -2.314  -2.886   0.327  0.00  0.00    +0.090 A 
ATOM      4  C   LIG    1       -1.122  -2.168   0.214  0.00  0.00    -0.130 A 
ATOM      5  C   LIG    1        0.096  -2.849   0.193  0.00  0.00    +0.050 A 
ATOM      6  C   LIG    1        0.116  -4.225   0.295  0.00  0.00    +0.040 A 
ENDROOT
BRANCH   4   7
ATOM      7  C   LIG    1       -1.150  -0.694   0.111  0.00  0.00    +0.560 C 
ATOM      8  N   LIG    1        0.002  -0.004   0.002  0.00  0.00    -0.670 N 
ATOM      9  H   LIG    1        0.844  -0.477  -0.086  0.00  0.00    +0.410 HD
ATOM     10  O   LIG    1       -2.213  -0.104   0.124  0.00  0.00    -0.510 OA
BRANCH   8  11
ATOM     11  C   LIG    1       -0.016   1.396   0.016  0.00  0.00    +0.110 A 
ATOM     12  C   LIG    1        0.912   2.110  -0.730  0.00  0.00    +0.030 A 
ATOM     13  C   LIG    1        0.890   3.491  -0.720  0.00  0.00    -0.060 A 
ATOM     14  C   LIG    1       -0.053   4.165   0.043  0.00  0.00    +0.120 A 
ATOM     15  C   LIG    1       -0.977   3.452   0.792  0.00  0.00    +0.010 A 
ATOM     16  C   LIG    1       -0.960   2.071   0.779  0.00  0.00    +0.060 A 
BRANCH  14  17
ATOM     17  O   LIG    1       -0.070   5.524   0.056  0.00  0.00    -0.320 OA
ATOM     18  C   LIG    1        0.910   6.194  -0.739  0.00  0.00    +0.250 C 
ENDBRANCH  14  17
ENDBRANCH   8  11
ENDBRANCH   4   7
BRANCH   1  19
ATOM     19  C   LIG    1       -1.040  -6.434   0.510  0.00  0.00    +0.150 C 
BRANCH  19  20
ATOM     20  S   LIG    1       -1.118  -7.155  -1.148  0.00  0.00    +0.020 S 
BRANCH  20  22
ATOM     21  N   LIG    1       -1.106  -9.913  -1.620  0.00  0.00    -0.460 N 
ATOM     22  C   LIG    1       -1.069  -8.868  -0.739  0.00  0.00    +0.160 A 
ATOM     23  N   LIG    1       -0.997  -9.379   0.469  0.00  0.00    -0.280 NA
ATOM     24  N   LIG    1       -0.981 -10.662   0.407  0.00  0.00    -0.260 NA
ATOM     25  C   LIG    1       -1.041 -11.052  -0.847  0.00  0.00    +0.260 A 
BRANCH  25  26
ATOM     26  C   LIG    1       -1.045 -12.441  -1.333  0.00  0.00    -0.140 A 
ATOM     27  C   LIG    1       -1.269 -13.534  -0.571  0.00  0.00    +0.070 A 
ATOM     28  C   LIG    1       -1.226 -14.730  -1.255  0.00  0.00    +0.020 A 
ATOM     29  C   LIG    1       -0.961 -14.628  -2.561  0.00  0.00    -0.030 A 
ATOM     30  S   LIG    1       -0.753 -12.937  -2.995  0.00  0.00    +0.130 S 
ENDBRANCH  25  26
BRANCH  21  32
ATOM     31  C   LIG    1        0.217  -9.792  -3.673  0.00  0.00    +0.060 C 
ATOM     32  C   LIG    1       -1.192  -9.838  -3.080  0.00  0.00    +0.300 C 
ENDBRANCH  21  32
ENDBRANCH  20  22
ENDBRANCH  19  20
ENDBRANCH   1  19
TORSDOF 8
