REMARK  Name = ZINCrD00000l8hSe.0
REMARK                            x       y       z     vdW  Elec       q    Type
REMARK                         _______ _______ _______ _____ _____    ______ ____
ROOT
ATOM      1  N   LIG    1        4.113   4.223   2.716  0.00  0.00    -0.740 N 
ATOM      2  H   LIG    1        3.613   4.972   2.357  0.00  0.00    +0.400 HD
ATOM      3  C   LIG    1        5.409   4.377   3.052  0.00  0.00    +0.710 C 
ATOM      4  N   LIG    1        6.010   5.573   2.889  0.00  0.00    -0.680 N 
ATOM      5  H   LIG    1        5.530   6.303   2.467  0.00  0.00    +0.410 HD
ATOM      6  O   LIG    1        6.036   3.438   3.502  0.00  0.00    -0.570 OA
ENDROOT
BRANCH   4   7
ATOM      7  C   LIG    1        7.328   5.761   3.328  0.00  0.00    +0.080 A 
ATOM      8  C   LIG    1        8.253   4.721   3.250  0.00  0.00    +0.100 A 
ATOM      9  C   LIG    1        9.542   4.951   3.695  0.00  0.00    -0.030 A 
ATOM     10  C   LIG    1        9.870   6.203   4.203  0.00  0.00    +0.300 A 
ATOM     11  N   LIG    1        8.966   7.168   4.263  0.00  0.00    -0.500 NA
ATOM     12  C   LIG    1        7.729   6.985   3.841  0.00  0.00    +0.270 A 
BRANCH  10  13
ATOM     13  N   LIG    1       11.165   6.445   4.654  0.00  0.00    -0.470 N 
ATOM     14  C   LIG    1       11.556   5.471   5.681  0.00  0.00    +0.190 C 
ATOM     15  C   LIG    1       13.027   5.676   6.047  0.00  0.00    +0.020 C 
ATOM     16  C   LIG    1       13.226   7.102   6.568  0.00  0.00    +0.010 C 
ATOM     17  C   LIG    1       12.767   8.096   5.497  0.00  0.00    +0.020 C 
ATOM     18  C   LIG    1       11.302   7.822   5.147  0.00  0.00    +0.210 C 
ENDBRANCH  10  13
ENDBRANCH   4   7
BRANCH   1  19
ATOM     19  C   LIG    1        3.460   2.924   2.893  0.00  0.00    +0.290 C 
BRANCH  19  20
ATOM     20  C   LIG    1        2.002   3.019   2.439  0.00  0.00    -0.030 C 
ATOM     21  C   LIG    1        1.954   3.295   0.935  0.00  0.00    +0.030 C 
BRANCH  20  22
ATOM     22  C   LIG    1        1.287   1.701   2.740  0.00  0.00    +0.340 C 
BRANCH  22  29
ATOM     23  C   LIG    1        0.006   1.075  -0.013  0.00  0.00    +0.140 C 
ATOM     24  C   LIG    1       -0.706   1.563   1.222  0.00  0.00    +0.090 A 
ATOM     25  C   LIG    1       -2.031   1.815   1.333  0.00  0.00    -0.120 A 
ATOM     26  C   LIG    1       -2.280   2.245   2.640  0.00  0.00    +0.080 A 
ATOM     27  N   LIG    1       -1.144   2.259   3.289  0.00  0.00    -0.300 NA
ATOM     28  C   LIG    1       -3.624   2.631   3.202  0.00  0.00    +0.160 C 
ATOM     29  N   LIG    1       -0.136   1.832   2.415  0.00  0.00    -0.370 N 
ENDBRANCH  22  29
ENDBRANCH  20  22
ENDBRANCH  19  20
ENDBRANCH   1  19
TORSDOF 6
