REMARK  Name = ZINCvU0000000Fc8.1
REMARK                            x       y       z     vdW  Elec       q    Type
REMARK                         _______ _______ _______ _____ _____    ______ ____
ROOT
ATOM      1  C   LIG    1       -7.021   2.765   0.356  0.00  0.00    -0.170 A 
ATOM      2  C   LIG    1       -7.271   1.401   0.521  0.00  0.00    +0.070 A 
ATOM      3  C   LIG    1       -8.569   0.945   0.599  0.00  0.00    +0.000 A 
ATOM      4  C   LIG    1       -9.630   1.832   0.514  0.00  0.00    +0.090 A 
ATOM      5  C   LIG    1       -9.399   3.183   0.351  0.00  0.00    -0.020 A 
ATOM      6  C   LIG    1       -8.098   3.663   0.277  0.00  0.00    +0.230 A 
ENDROOT
BRANCH   1   9
ATOM      7  N   LIG    1       -4.605   2.395   0.354  0.00  0.00    -0.620 N 
ATOM      8  H   LIG    1       -4.775   1.447   0.468  0.00  0.00    +0.430 HD
ATOM      9  C   LIG    1       -5.635   3.260   0.272  0.00  0.00    +0.570 C 
ATOM     10  O   LIG    1       -5.421   4.449   0.128  0.00  0.00    -0.500 OA
BRANCH   7  17
ATOM     11  C   LIG    1        2.490   5.136  -0.096  0.00  0.00    +0.110 C 
ATOM     12  C   LIG    1        1.248   4.290   0.024  0.00  0.00    -0.070 A 
ATOM     13  C   LIG    1        1.357   2.917   0.183  0.00  0.00    +0.020 A 
ATOM     14  C   LIG    1        0.235   2.136   0.294  0.00  0.00    -0.030 A 
ATOM     15  C   LIG    1       -1.049   2.718   0.244  0.00  0.00    +0.100 A 
ATOM     16  N   LIG    1       -2.252   2.118   0.342  0.00  0.00    -0.500 NA
ATOM     17  C   LIG    1       -3.303   2.860   0.275  0.00  0.00    +0.310 A 
ATOM     18  S   LIG    1       -2.850   4.546   0.069  0.00  0.00    +0.180 S 
ATOM     19  C   LIG    1       -1.145   4.105   0.089  0.00  0.00    -0.210 A 
ATOM     20  C   LIG    1        0.374   0.645   0.466  0.00  0.00    +0.100 C 
ATOM     21  C   LIG    1        0.005   4.882  -0.023  0.00  0.00    +0.050 A 
ENDBRANCH   7  17
ENDBRANCH   1   9
BRANCH   6  22
ATOM     22  N   LIG    1       -7.863   5.023   0.119  0.00  0.00    -1.040 N 
ATOM     23  H   LIG    1       -7.116   5.327  -0.421  0.00  0.00    +0.440 HD
BRANCH  22  24
ATOM     24  S   LIG    1       -8.857   6.125   0.853  0.00  0.00    +2.690 S 
ATOM     25  O   LIG    1      -10.183   5.789   0.466  0.00  0.00    -0.940 OA
ATOM     26  O   LIG    1       -8.280   7.403   0.620  0.00  0.00    -0.940 OA
BRANCH  24  27
ATOM     27  C   LIG    1       -8.758   5.843   2.589  0.00  0.00    -0.670 A 
ATOM     28  C   LIG    1       -9.634   4.963   3.197  0.00  0.00    +0.140 A 
ATOM     29  C   LIG    1       -9.553   4.737   4.558  0.00  0.00    +0.040 A 
ATOM     30  C   LIG    1       -8.602   5.400   5.314  0.00  0.00    -0.040 A 
ATOM     31  C   LIG    1       -7.729   6.284   4.706  0.00  0.00    +0.040 A 
ATOM     32 BR   LIG    1       -8.496   5.097   7.177  0.00  0.00    -0.030 Br
ATOM     33  C   LIG    1       -7.808   6.505   3.344  0.00  0.00    +0.140 A 
ENDBRANCH  24  27
ENDBRANCH  22  24
ENDBRANCH   6  22
TORSDOF 5
