REMARK  Name = ZINCvU0000000DnN.0
REMARK                            x       y       z     vdW  Elec       q    Type
REMARK                         _______ _______ _______ _____ _____    ______ ____
ROOT
ATOM      1  C   LIG    1       -6.698  -4.544  -3.197  0.00  0.00    -0.150 C 
ATOM      2  C   LIG    1       -6.497  -3.799  -2.056  0.00  0.00    +0.270 C 
ENDROOT
BRANCH   2   3
ATOM      3  C   LIG    1       -5.322  -2.930  -1.946  0.00  0.00    -0.150 A 
ATOM      4  C   LIG    1       -4.932  -2.133  -3.031  0.00  0.00    +0.130 A 
ATOM      5  C   LIG    1       -3.836  -1.325  -2.922  0.00  0.00    -0.030 A 
ATOM      6  C   LIG    1       -3.108  -1.292  -1.737  0.00  0.00    +0.170 A 
ATOM      7  C   LIG    1       -3.487  -2.085  -0.659  0.00  0.00    -0.100 A 
ATOM      8  C   LIG    1       -4.584  -2.893  -0.754  0.00  0.00    +0.100 A 
BRANCH   6   9
ATOM      9  O   LIG    1       -2.020  -0.488  -1.635  0.00  0.00    -0.300 OA
BRANCH   9  10
ATOM     10  C   LIG    1       -1.318  -0.501  -0.391  0.00  0.00    +0.240 C 
BRANCH  10  11
ATOM     11  C   LIG    1       -0.148   0.446  -0.464  0.00  0.00    -0.100 A 
ATOM     12  C   LIG    1       -0.307   1.769  -0.095  0.00  0.00    +0.030 A 
ATOM     13  C   LIG    1        0.766   2.639  -0.161  0.00  0.00    +0.010 A 
ATOM     14  C   LIG    1        1.997   2.185  -0.597  0.00  0.00    +0.020 A 
ATOM     15  C   LIG    1        2.156   0.862  -0.966  0.00  0.00    +0.010 A 
ATOM     16  C   LIG    1        1.083  -0.007  -0.898  0.00  0.00    +0.030 A 
ENDBRANCH  10  11
ENDBRANCH   9  10
ENDBRANCH   6   9
ENDBRANCH   2   3
BRANCH   1  17
ATOM     17  C   LIG    1       -5.634  -4.642  -4.209  0.00  0.00    +0.570 C 
ATOM     18  N   LIG    1       -5.880  -5.243  -5.389  0.00  0.00    -0.620 N 
ATOM     19  H   LIG    1       -6.759  -5.611  -5.572  0.00  0.00    +0.420 HD
ATOM     20  O   LIG    1       -4.532  -4.180  -3.979  0.00  0.00    -0.480 OA
BRANCH  18  21
ATOM     21  C   LIG    1       -4.877  -5.335  -6.344  0.00  0.00    +0.280 A 
ATOM     22  N   LIG    1       -5.001  -5.890  -7.509  0.00  0.00    -0.490 NA
ATOM     23  C   LIG    1       -3.926  -5.885  -8.297  0.00  0.00    +0.160 A 
ATOM     24  C   LIG    1       -2.834  -5.295  -7.774  0.00  0.00    -0.120 A 
ATOM     25  S   LIG    1       -3.241  -4.711  -6.162  0.00  0.00    +0.230 S 
BRANCH  23  26
ATOM     26  C   LIG    1       -3.933  -6.482  -9.649  0.00  0.00    -0.130 A 
ATOM     27  C   LIG    1       -4.988  -7.090 -10.227  0.00  0.00    +0.050 A 
ATOM     28  C   LIG    1       -4.752  -7.568 -11.501  0.00  0.00    +0.000 A 
ATOM     29  C   LIG    1       -3.515  -7.365 -11.961  0.00  0.00    -0.040 A 
ATOM     30  S   LIG    1       -2.562  -6.518 -10.750  0.00  0.00    +0.130 S 
ENDBRANCH  23  26
ENDBRANCH  18  21
ENDBRANCH   1  17
BRANCH   1  32
ATOM     31  N   LIG    1       -8.929  -5.763  -3.559  0.00  0.00    -0.390 NA
ATOM     32  C   LIG    1       -7.942  -5.224  -3.399  0.00  0.00    +0.240 C 
ENDBRANCH   1  32
TORSDOF 8
