REMARK  Name = ZINCrD000000AkDF.0
REMARK                            x       y       z     vdW  Elec       q    Type
REMARK                         _______ _______ _______ _____ _____    ______ ____
ROOT
ATOM      1  N   LIG    1       -2.255   4.311   0.342  0.00  0.00    -0.590 N 
ATOM      2  C   LIG    1       -3.082   4.555  -0.694  0.00  0.00    +0.530 C 
ATOM      3  O   LIG    1       -2.747   4.255  -1.820  0.00  0.00    -0.500 OA
ENDROOT
BRANCH   1   4
ATOM      4  C   LIG    1       -0.952   3.683   0.107  0.00  0.00    +0.340 C 
BRANCH   4   6
ATOM      5  O   LIG    1       -2.176   1.691   0.428  0.00  0.00    -0.510 OA
ATOM      6  C   LIG    1       -1.093   2.185   0.193  0.00  0.00    +0.500 C 
ATOM      7  N   LIG    1       -0.017   1.395   0.010  0.00  0.00    -0.670 N 
ATOM      8  H   LIG    1        0.861   1.791  -0.106  0.00  0.00    +0.410 HD
BRANCH   7   9
ATOM      9  C   LIG    1       -0.167   0.004  -0.020  0.00  0.00    +0.140 A 
ATOM     10  C   LIG    1        0.843  -0.815   0.467  0.00  0.00    -0.020 A 
ATOM     11  C   LIG    1        0.690  -2.188   0.440  0.00  0.00    +0.030 A 
ATOM     12  C   LIG    1       -0.464  -2.746  -0.080  0.00  0.00    -0.010 A 
ATOM     13  C   LIG    1       -1.469  -1.933  -0.570  0.00  0.00    +0.030 A 
ATOM     14  C   LIG    1       -1.324  -0.560  -0.542  0.00  0.00    +0.010 A 
ENDBRANCH   7   9
ENDBRANCH   4   6
ENDBRANCH   1   4
BRANCH   2  15
ATOM     15  C   LIG    1       -4.421   5.201  -0.452  0.00  0.00    +0.240 C 
BRANCH  15  16
ATOM     16  O   LIG    1       -5.108   5.354  -1.696  0.00  0.00    -0.290 OA
BRANCH  16  17
ATOM     17  C   LIG    1       -6.341   5.925  -1.654  0.00  0.00    +0.130 A 
ATOM     18  C   LIG    1       -6.881   6.324  -0.440  0.00  0.00    -0.080 A 
ATOM     19  C   LIG    1       -8.132   6.908  -0.401  0.00  0.00    +0.050 A 
ATOM     20  C   LIG    1       -8.850   7.086  -1.569  0.00  0.00    -0.030 A 
ATOM     21  C   LIG    1       -8.316   6.684  -2.780  0.00  0.00    +0.050 A 
ATOM     22  C   LIG    1       -7.063   6.104  -2.825  0.00  0.00    -0.020 A 
ENDBRANCH  16  17
ENDBRANCH  15  16
ENDBRANCH   2  15
BRANCH   1  23
ATOM     23  C   LIG    1       -2.658   4.673   1.703  0.00  0.00    +0.420 C 
BRANCH  23  24
ATOM     24  C   LIG    1       -2.209   6.080   2.003  0.00  0.00    -0.050 A 
ATOM     25  C   LIG    1       -2.921   7.198   1.776  0.00  0.00    -0.040 A 
ATOM     26  C   LIG    1       -2.123   8.285   2.204  0.00  0.00    -0.060 A 
ATOM     27  C   LIG    1       -0.972   7.765   2.666  0.00  0.00    +0.180 A 
ATOM     28  O   LIG    1       -1.032   6.429   2.547  0.00  0.00    -0.170 OA
ENDBRANCH  23  24
ENDBRANCH   1  23
TORSDOF 8
