REMARK  Name = ZINCrg00001JduZg.0
REMARK                            x       y       z     vdW  Elec       q    Type
REMARK                         _______ _______ _______ _____ _____    ______ ____
ROOT
ATOM      1  C   LIG    1       -0.982  -0.805   0.455  0.00  0.00    +0.670 C 
ATOM      2  N   LIG    1        0.002  -0.004   0.002  0.00  0.00    -0.610 N 
ATOM      3  C   LIG    1       -0.018   1.470   0.010  0.00  0.00    +0.310 C 
ATOM      4  C   LIG    1        1.474   1.887  -0.002  0.00  0.00    +0.020 C 
ATOM      5  C   LIG    1        2.092   0.807  -0.929  0.00  0.00    +0.290 C 
ATOM      6  C   LIG    1        1.274  -0.455  -0.582  0.00  0.00    +0.300 C 
ATOM      7  O   LIG    1       -1.995  -0.321   0.920  0.00  0.00    -0.550 OA
ENDROOT
BRANCH   5   8
ATOM      8  N   LIG    1        1.914   1.169  -2.337  0.00  0.00    -0.290 N 
ATOM      9  C   LIG    1        0.787   0.994  -3.064  0.00  0.00    +0.170 A 
ATOM     10  C   LIG    1        1.060   1.465  -4.303  0.00  0.00    -0.030 A 
ATOM     11  N   LIG    1        2.328   1.892  -4.276  0.00  0.00    -0.250 NA
ATOM     12  N   LIG    1        2.806   1.703  -3.097  0.00  0.00    -0.070 NA
BRANCH  10  13
ATOM     13  C   LIG    1        0.123   1.497  -5.483  0.00  0.00    +0.350 C 
BRANCH  13  14
ATOM     14  O   LIG    1       -1.140   0.949  -5.103  0.00  0.00    -0.290 OA
BRANCH  14  15
ATOM     15  C   LIG    1       -2.103   0.904  -6.055  0.00  0.00    +0.510 A 
ATOM     16  N   LIG    1       -1.835   1.365  -7.266  0.00  0.00    -0.570 NA
ATOM     17  C   LIG    1       -2.750   1.332  -8.221  0.00  0.00    +0.370 A 
ATOM     18  C   LIG    1       -4.004   0.816  -7.936  0.00  0.00    -0.120 A 
ATOM     19  C   LIG    1       -4.252   0.346  -6.656  0.00  0.00    +0.370 A 
ATOM     20  N   LIG    1       -3.289   0.404  -5.750  0.00  0.00    -0.520 NA
ENDBRANCH  14  15
ENDBRANCH  13  14
ENDBRANCH  10  13
ENDBRANCH   5   8
BRANCH   1  21
ATOM     21  O   LIG    1       -0.844  -2.143   0.393  0.00  0.00    -0.360 OA
BRANCH  21  23
ATOM     22  C   LIG    1       -3.214  -2.625   0.108  0.00  0.00    +0.040 C 
ATOM     23  C   LIG    1       -1.944  -2.944   0.899  0.00  0.00    +0.140 C 
ATOM     24  C   LIG    1       -2.170  -2.623   2.378  0.00  0.00    +0.040 C 
ATOM     25  C   LIG    1       -1.607  -4.429   0.745  0.00  0.00    +0.080 C 
ENDBRANCH  21  23
ENDBRANCH   1  21
BRANCH   4  26
ATOM     26  C   LIG    1        1.648   3.285  -0.598  0.00  0.00    +0.200 C 
BRANCH  26  27
ATOM     27  O   LIG    1        1.041   4.250   0.265  0.00  0.00    -0.570 OA
ATOM     28  H   LIG    1        1.113   5.161  -0.051  0.00  0.00    +0.390 HD
ENDBRANCH  26  27
ENDBRANCH   4  26
TORSDOF 8
