REMARK  Name = ZINCpk00000y6tFg.0
REMARK                            x       y       z     vdW  Elec       q    Type
REMARK                         _______ _______ _______ _____ _____    ______ ____
ROOT
ATOM      1  C   LIG    1       -0.368  -2.278   0.760  0.00  0.00    +0.170 C 
ATOM      2  C   LIG    1        1.146  -2.003   0.960  0.00  0.00    +0.030 C 
ATOM      3  C   LIG    1        1.357  -0.766   0.048  0.00  0.00    +0.280 C 
ATOM      4  N   LIG    1        0.128   0.032   0.208  0.00  0.00    -0.610 N 
ATOM      5  C   LIG    1        0.021   1.360  -0.000  0.00  0.00    +0.550 C 
ATOM      6  O   LIG    1        1.008   2.015  -0.256  0.00  0.00    -0.510 OA
ATOM      7  C   LIG    1       -0.963  -0.861   0.626  0.00  0.00    +0.270 C 
ENDROOT
BRANCH   5   8
ATOM      8  C   LIG    1       -1.326   2.030   0.092  0.00  0.00    +0.030 C 
ATOM      9  C   LIG    1       -2.223   1.535  -1.046  0.00  0.00    +0.040 C 
ATOM     10  C   LIG    1       -3.560   2.280  -0.992  0.00  0.00    +0.220 C 
ATOM     11  O   LIG    1       -3.325   3.686  -1.081  0.00  0.00    -0.370 OA
ATOM     12  C   LIG    1       -2.530   4.213  -0.017  0.00  0.00    +0.220 C 
ATOM     13  C   LIG    1       -1.152   3.547  -0.032  0.00  0.00    +0.070 C 
BRANCH   8  14
ATOM     14  C   LIG    1       -1.948   1.710   1.387  0.00  0.00    +0.200 C 
ATOM     15  N   LIG    1       -2.428   1.463   2.386  0.00  0.00    -0.390 NA
ENDBRANCH   8  14
ENDBRANCH   5   8
BRANCH   1  16
ATOM     16  O   LIG    1       -0.914  -2.949   1.898  0.00  0.00    -0.280 OA
BRANCH  16  22
ATOM     17  C   LIG    1       -1.339  -5.037   2.987  0.00  0.00    +0.290 A 
ATOM     18  N   LIG    1       -1.298  -6.359   2.982  0.00  0.00    -0.490 NA
ATOM     19  C   LIG    1       -0.819  -7.034   1.953  0.00  0.00    +0.250 A 
ATOM     20  C   LIG    1       -0.341  -6.380   0.837  0.00  0.00    -0.020 A 
ATOM     21  C   LIG    1       -0.369  -4.992   0.795  0.00  0.00    -0.010 A 
ATOM     22  C   LIG    1       -0.872  -4.309   1.892  0.00  0.00    +0.070 A 
BRANCH  17  24
ATOM     23  C   LIG    1       -2.285  -5.314   5.130  0.00  0.00    +0.220 C 
ATOM     24  N   LIG    1       -1.851  -4.366   4.095  0.00  0.00    -0.480 N 
ATOM     25  C   LIG    1       -0.873  -3.412   4.632  0.00  0.00    +0.220 C 
ENDBRANCH  17  24
ENDBRANCH  16  22
ENDBRANCH   1  16
TORSDOF 5
