REMARK  Name = ZINCpe00000VVGZp.0
REMARK                            x       y       z     vdW  Elec       q    Type
REMARK                         _______ _______ _______ _____ _____    ______ ____
ROOT
ATOM      1  C   LIG    1        1.415   2.062   0.040  0.00  0.00    -0.010 C 
ATOM      2  C   LIG    1        2.079   1.912   1.426  0.00  0.00    +0.270 C 
ATOM      3  N   LIG    1        2.918   3.124   1.572  0.00  0.00    -0.620 N 
ATOM      4  C   LIG    1        2.093   4.212   0.996  0.00  0.00    +0.280 C 
ATOM      5  C   LIG    1        4.151   3.216   2.108  0.00  0.00    +0.550 C 
ATOM      6  O   LIG    1        4.712   4.290   2.156  0.00  0.00    -0.530 OA
ATOM      7  C   LIG    1        1.425   3.579  -0.243  0.00  0.00    +0.130 C 
ENDROOT
BRANCH   5   8
ATOM      8  C   LIG    1        4.832   1.985   2.648  0.00  0.00    +0.000 C 
ATOM      9  C   LIG    1        5.045   0.937   1.532  0.00  0.00    +0.070 C 
ATOM     10  C   LIG    1        6.389   0.321   1.852  0.00  0.00    +0.520 C 
ATOM     11  N   LIG    1        7.059   1.101   2.719  0.00  0.00    -0.620 N 
ATOM     12  O   LIG    1        6.802  -0.724   1.395  0.00  0.00    -0.520 OA
ATOM     13  C   LIG    1        6.285   2.297   3.068  0.00  0.00    +0.300 C 
BRANCH  11  14
ATOM     14  C   LIG    1        8.392   0.794   3.246  0.00  0.00    +0.340 C 
BRANCH  14  15
ATOM     15  C   LIG    1        9.455   1.397   2.326  0.00  0.00    -0.070 C 
ATOM     16  C   LIG    1       10.400   0.431   1.610  0.00  0.00    +0.020 C 
ATOM     17  C   LIG    1       10.916   1.288   2.768  0.00  0.00    +0.030 C 
ENDBRANCH  14  15
ENDBRANCH  11  14
ENDBRANCH   5   8
BRANCH   7  18
ATOM     18  N   LIG    1        0.052   4.079  -0.397  0.00  0.00    -0.520 NA
ATOM     19  C   LIG    1       -0.442   3.853  -1.763  0.00  0.00    +0.150 C 
ATOM     20  C   LIG    1       -1.893   4.333  -1.861  0.00  0.00    +0.220 C 
ATOM     21  O   LIG    1       -1.961   5.710  -1.482  0.00  0.00    -0.380 OA
ATOM     22  C   LIG    1       -1.488   5.966  -0.156  0.00  0.00    +0.220 C 
ATOM     23  C   LIG    1       -0.034   5.502  -0.040  0.00  0.00    +0.150 C 
ENDBRANCH   7  18
BRANCH   1  25
ATOM     24  C   LIG    1       -0.006   0.022   0.290  0.00  0.00    +0.000 C 
ATOM     25  C   LIG    1       -0.022   1.538   0.079  0.00  0.00    +0.040 C 
ENDBRANCH   1  25
TORSDOF 5
