REMARK  Name = ZINCvU0000000EdJ.0
REMARK                            x       y       z     vdW  Elec       q    Type
REMARK                         _______ _______ _______ _____ _____    ______ ____
ROOT
ATOM      1  C   LIG    1        3.692   3.635  -0.038  0.00  0.00    +0.520 C 
ATOM      2  O   LIG    1        2.660   4.270  -0.120  0.00  0.00    -0.490 OA
ENDROOT
BRANCH   1   3
ATOM      3  C   LIG    1        3.653   2.157  -0.050  0.00  0.00    -0.070 A 
ATOM      4  C   LIG    1        4.817   1.405  -0.066  0.00  0.00    +0.060 A 
ATOM      5  C   LIG    1        4.733   0.002  -0.077  0.00  0.00    +0.230 A 
ATOM      6  N   LIG    1        3.577  -0.633  -0.073  0.00  0.00    -0.440 NA
ATOM      7  C   LIG    1        2.409   0.012  -0.058  0.00  0.00    +0.130 A 
ATOM      8  C   LIG    1        1.191  -0.692  -0.054  0.00  0.00    +0.050 A 
ATOM      9  C   LIG    1        0.015  -0.006  -0.039  0.00  0.00    +0.040 A 
ATOM     10  C   LIG    1       -0.005   1.386  -0.027  0.00  0.00    +0.030 A 
ATOM     11  C   LIG    1        1.156   2.102  -0.030  0.00  0.00    +0.050 A 
ATOM     12  C   LIG    1        2.382   1.430  -0.046  0.00  0.00    -0.060 A 
BRANCH   5  13
ATOM     13  C   LIG    1        5.979  -0.787  -0.093  0.00  0.00    -0.170 A 
ATOM     14  C   LIG    1        6.048  -2.136  -0.100  0.00  0.00    +0.070 A 
ATOM     15  C   LIG    1        7.327  -2.646  -0.119  0.00  0.00    +0.010 A 
ATOM     16  C   LIG    1        8.303  -1.731  -0.119  0.00  0.00    -0.030 A 
ATOM     17  S   LIG    1        7.606  -0.117  -0.099  0.00  0.00    +0.140 S 
ENDBRANCH   5  13
ENDBRANCH   1   3
BRANCH   1  18
ATOM     18  O   LIG    1        4.872   4.276   0.064  0.00  0.00    -0.320 OA
BRANCH  18  19
ATOM     19  C   LIG    1        4.835   5.728   0.069  0.00  0.00    +0.190 C 
ATOM     20  C   LIG    1        4.941   6.246  -1.367  0.00  0.00    +0.080 C 
BRANCH  19  23
ATOM     21  N   LIG    1        6.101   7.580   1.110  0.00  0.00    -0.670 N 
ATOM     22  H   LIG    1        5.399   8.184   0.821  0.00  0.00    +0.410 HD
ATOM     23  C   LIG    1        5.989   6.257   0.881  0.00  0.00    +0.520 C 
ATOM     24  O   LIG    1        6.817   5.492   1.327  0.00  0.00    -0.490 OA
BRANCH  21  28
ATOM     25  C   LIG    1        9.461   9.079   3.064  0.00  0.00    -0.090 A 
ATOM     26  C   LIG    1        9.584   7.997   2.212  0.00  0.00    +0.030 A 
ATOM     27  C   LIG    1        8.472   7.498   1.563  0.00  0.00    +0.020 A 
ATOM     28  C   LIG    1        7.229   8.084   1.766  0.00  0.00    +0.140 A 
ATOM     29  C   LIG    1        7.111   9.174   2.618  0.00  0.00    -0.010 A 
ATOM     30  C   LIG    1        8.226   9.665   3.268  0.00  0.00    +0.030 A 
BRANCH  25  32
ATOM     31  C   LIG    1       11.331  10.701   2.906  0.00  0.00    +0.030 C 
ATOM     32  C   LIG    1       10.677   9.621   3.771  0.00  0.00    +0.050 C 
ENDBRANCH  25  32
ENDBRANCH  21  28
ENDBRANCH  19  23
ENDBRANCH  18  19
ENDBRANCH   1  18
TORSDOF 7
