REMARK  Name = ZINCrD0000071bN7.0
REMARK                            x       y       z     vdW  Elec       q    Type
REMARK                         _______ _______ _______ _____ _____    ______ ____
ROOT
ATOM      1  C   LIG    1        1.039   5.972   3.023  0.00  0.00    +0.270 C 
ATOM      2  C   LIG    1        1.023   7.502   2.821  0.00  0.00    +0.050 C 
ATOM      3  C   LIG    1        1.590   7.671   1.386  0.00  0.00    +0.040 C 
ATOM      4  C   LIG    1        1.009   6.425   0.673  0.00  0.00    +0.250 C 
ATOM      5  N   LIG    1        1.052   5.356   1.688  0.00  0.00    -0.610 N 
ATOM      6  C   LIG    1        1.089   4.033   1.434  0.00  0.00    +0.520 C 
ATOM      7  O   LIG    1        1.122   3.240   2.352  0.00  0.00    -0.510 OA
ENDROOT
BRANCH   1  11
ATOM      8  C   LIG    1       -2.450   4.745   5.159  0.00  0.00    -0.070 A 
ATOM      9  C   LIG    1       -1.237   4.844   5.815  0.00  0.00    +0.010 A 
ATOM     10  C   LIG    1       -0.108   5.241   5.124  0.00  0.00    +0.020 A 
ATOM     11  C   LIG    1       -0.192   5.539   3.776  0.00  0.00    -0.090 A 
ATOM     12  C   LIG    1       -1.405   5.445   3.122  0.00  0.00    +0.010 A 
ATOM     13  C   LIG    1       -2.534   5.043   3.812  0.00  0.00    +0.000 A 
BRANCH   8  15
ATOM     14  C   LIG    1       -3.956   5.297   7.050  0.00  0.00    +0.040 C 
ATOM     15  C   LIG    1       -3.681   4.311   5.912  0.00  0.00    -0.030 C 
ATOM     16  C   LIG    1       -3.458   2.913   6.492  0.00  0.00    +0.040 C 
ATOM     17  C   LIG    1       -4.879   4.284   4.960  0.00  0.00    +0.040 C 
ENDBRANCH   8  15
ENDBRANCH   1  11
BRANCH   6  18
ATOM     18  C   LIG    1        1.091   3.538   0.011  0.00  0.00    +0.340 C 
BRANCH  18  19
ATOM     19  N   LIG    1        1.135   2.074   0.002  0.00  0.00    -0.470 N 
ATOM     20  C   LIG    1       -0.017   1.376   0.010  0.00  0.00    +0.380 A 
ATOM     21  C   LIG    1        0.002  -0.004   0.002  0.00  0.00    -0.130 A 
ATOM     22  C   LIG    1        1.244  -0.684  -0.013  0.00  0.00    +0.160 A 
ATOM     23  C   LIG    1        2.394   0.042  -0.021  0.00  0.00    -0.070 A 
ATOM     24  C   LIG    1        2.326   1.448  -0.013  0.00  0.00    +0.520 A 
ATOM     25  O   LIG    1        3.355   2.103  -0.019  0.00  0.00    -0.530 OA
BRANCH  21  26
ATOM     26  C   LIG    1       -1.225  -0.742   0.009  0.00  0.00    +0.260 C 
ATOM     27  N   LIG    1       -2.198  -1.328   0.015  0.00  0.00    -0.410 NA
ENDBRANCH  21  26
ENDBRANCH  18  19
ENDBRANCH   6  18
TORSDOF 5
