REMARK  Name = ZINCrD00000hQ7eJ.0
REMARK                            x       y       z     vdW  Elec       q    Type
REMARK                         _______ _______ _______ _____ _____    ______ ____
ROOT
ATOM      1  O   LIG    1       -1.490   2.232  -2.212  0.00  0.00    -0.530 OA
ATOM      2  C   LIG    1       -1.883   2.449  -1.083  0.00  0.00    +0.700 C 
ATOM      3  N   LIG    1       -3.025   3.101  -0.800  0.00  0.00    -0.710 N 
ATOM      4  H   LIG    1       -3.656   3.468  -1.439  0.00  0.00    +0.440 HD
ATOM      5  C   LIG    1       -3.127   3.156   0.668  0.00  0.00    +0.230 C 
ATOM      6  C   LIG    1       -1.880   2.435   1.139  0.00  0.00    +0.520 C 
ATOM      7  O   LIG    1       -1.538   2.235   2.285  0.00  0.00    -0.450 OA
ATOM      8  N   LIG    1       -1.229   2.063   0.019  0.00  0.00    -0.530 N 
ENDROOT
BRANCH   8   9
ATOM      9  C   LIG    1       -0.017   1.364   0.009  0.00  0.00    +0.090 A 
ATOM     10  C   LIG    1        0.002  -0.004   0.002  0.00  0.00    +0.280 A 
ATOM     11  N   LIG    1        1.138  -0.686  -0.012  0.00  0.00    -0.480 NA
ATOM     12  C   LIG    1        2.316  -0.108  -0.020  0.00  0.00    +0.340 A 
ATOM     13  C   LIG    1        2.411   1.293  -0.014  0.00  0.00    -0.110 A 
ATOM     14  C   LIG    1        3.648   1.956  -0.023  0.00  0.00    +0.060 A 
ATOM     15  C   LIG    1        3.680   3.318  -0.017  0.00  0.00    +0.010 A 
ATOM     16  C   LIG    1        2.505   4.064  -0.001  0.00  0.00    +0.050 A 
ATOM     17  C   LIG    1        1.286   3.454   0.007  0.00  0.00    +0.010 A 
ATOM     18  C   LIG    1        1.215   2.056   0.002  0.00  0.00    -0.010 A 
ENDBRANCH   8   9
BRANCH   5  19
ATOM     19  C   LIG    1       -4.384   2.429   1.151  0.00  0.00    +0.150 C 
BRANCH  19  20
ATOM     20  C   LIG    1       -5.604   3.230   0.775  0.00  0.00    -0.180 A 
ATOM     21  C   LIG    1       -6.252   4.110   1.555  0.00  0.00    +0.240 A 
ATOM     22  N   LIG    1       -7.310   4.646   0.873  0.00  0.00    -0.590 N 
ATOM     23  H   LIG    1       -7.925   5.307   1.228  0.00  0.00    +0.420 HD
ATOM     24  C   LIG    1       -7.376   4.103  -0.391  0.00  0.00    +0.090 A 
ATOM     25  C   LIG    1       -8.237   4.286  -1.468  0.00  0.00    -0.010 A 
ATOM     26  C   LIG    1       -8.037   3.576  -2.632  0.00  0.00    +0.030 A 
ATOM     27  C   LIG    1       -6.984   2.678  -2.742  0.00  0.00    -0.020 A 
ATOM     28  C   LIG    1       -6.126   2.484  -1.696  0.00  0.00    +0.040 A 
ATOM     29  C   LIG    1       -6.310   3.192  -0.507  0.00  0.00    -0.100 A 
ENDBRANCH  19  20
ENDBRANCH   5  19
TORSDOF 3
