REMARK  Name = ZINCvU000000059Q.0
REMARK                            x       y       z     vdW  Elec       q    Type
REMARK                         _______ _______ _______ _____ _____    ______ ____
ROOT
ATOM      1  C   LIG    1       -1.333   2.317  -0.068  0.00  0.00    +0.130 C 
ATOM      2  C   LIG    1       -2.530   1.403  -0.006  0.00  0.00    +0.040 A 
ATOM      3  C   LIG    1       -2.498   0.049   0.027  0.00  0.00    -0.150 A 
ATOM      4  N   LIG    1       -3.792  -0.470   0.087  0.00  0.00    -0.280 N 
ATOM      5  C   LIG    1       -4.231  -1.744   0.140  0.00  0.00    +0.220 A 
ATOM      6  C   LIG    1       -5.582  -2.028   0.196  0.00  0.00    +0.030 A 
ATOM      7  C   LIG    1       -6.504  -0.995   0.199  0.00  0.00    +0.070 A 
ATOM      8  C   LIG    1       -6.038   0.327   0.144  0.00  0.00    +0.050 A 
ATOM      9  C   LIG    1       -4.680   0.562   0.089  0.00  0.00    +0.140 A 
ATOM     10  C   LIG    1       -3.888   1.810   0.025  0.00  0.00    -0.360 A 
ENDROOT
BRANCH   3  11
ATOM     11  C   LIG    1       -1.265  -0.763   0.007  0.00  0.00    +0.480 C 
ATOM     12  O   LIG    1       -0.767  -1.138   1.051  0.00  0.00    -0.410 OA
BRANCH  11  13
ATOM     13  C   LIG    1       -0.636  -1.121  -1.281  0.00  0.00    -0.160 A 
ATOM     14  C   LIG    1       -1.264  -0.790  -2.484  0.00  0.00    +0.140 A 
ATOM     15  C   LIG    1       -0.671  -1.127  -3.683  0.00  0.00    +0.040 A 
ATOM     16  C   LIG    1        0.542  -1.792  -3.696  0.00  0.00    +0.150 A 
ATOM     17  C   LIG    1        1.171  -2.123  -2.507  0.00  0.00    -0.010 A 
ATOM     18  C   LIG    1        0.590  -1.792  -1.301  0.00  0.00    +0.180 A 
BRANCH  17  19
ATOM     19  N   LIG    1        2.469  -2.834  -2.531  0.00  0.00    -0.020 N 
ATOM     20  O   LIG    1        3.025  -3.151  -3.682  0.00  0.00    -0.160 OA
ATOM     21  O   LIG    1        3.067  -3.150  -1.401  0.00  0.00    -0.160 OA
ENDBRANCH  17  19
ENDBRANCH  11  13
ENDBRANCH   3  11
BRANCH  10  22
ATOM     22  S   LIG    1       -4.487   3.414  -0.001  0.00  0.00    +0.230 S 
BRANCH  22  23
ATOM     23  C   LIG    1       -4.533   3.751   1.728  0.00  0.00    -0.070 A 
ATOM     24  C   LIG    1       -4.129   2.778   2.641  0.00  0.00    +0.020 A 
ATOM     25  C   LIG    1       -4.167   3.047   3.994  0.00  0.00    +0.100 A 
ATOM     26  C   LIG    1       -4.606   4.280   4.444  0.00  0.00    +0.020 A 
ATOM     27  C   LIG    1       -5.008   5.250   3.542  0.00  0.00    +0.130 A 
ATOM     28  C   LIG    1       -4.969   4.994   2.187  0.00  0.00    -0.000 A 
BRANCH  28  29
ATOM     29  N   LIG    1       -5.394   6.033   1.223  0.00  0.00    -0.010 N 
ATOM     30  O   LIG    1       -5.362   5.785  -0.070  0.00  0.00    -0.170 OA
ATOM     31  O   LIG    1       -5.806   7.206   1.658  0.00  0.00    -0.180 OA
ENDBRANCH  28  29
ENDBRANCH  22  23
ENDBRANCH  10  22
TORSDOF 6
