REMARK  Name = ZINCrD00000fMTQ9.0
REMARK                            x       y       z     vdW  Elec       q    Type
REMARK                         _______ _______ _______ _____ _____    ______ ____
ROOT
ATOM      1  C   LIG    1        3.054  -1.551   1.458  0.00  0.00    -0.060 A 
ATOM      2  C   LIG    1        2.229  -0.535   1.079  0.00  0.00    +0.080 A 
ATOM      3  C   LIG    1        0.798  -0.323   1.500  0.00  0.00    +0.150 C 
ATOM      4  C   LIG    1        0.060   0.446   0.402  0.00  0.00    +0.020 C 
ATOM      5  C   LIG    1        0.216   1.946   0.636  0.00  0.00    +0.010 C 
ATOM      6  C   LIG    1        1.690   2.344   0.585  0.00  0.00    +0.020 C 
ATOM      7  C   LIG    1        2.428   1.464  -0.427  0.00  0.00    +0.300 C 
ATOM      8  N   LIG    1        2.934   0.265   0.246  0.00  0.00    -0.440 N 
ATOM      9  C   LIG    1        4.191  -0.259   0.141  0.00  0.00    +0.240 A 
ATOM     10  N   LIG    1        4.251  -1.351   0.866  0.00  0.00    -0.440 NA
ENDROOT
BRANCH   1  12
ATOM     11  O   LIG    1        1.584  -2.740   2.824  0.00  0.00    -0.540 OA
ATOM     12  C   LIG    1        2.702  -2.669   2.351  0.00  0.00    +0.620 C 
ATOM     13  N   LIG    1        3.619  -3.612   2.644  0.00  0.00    -0.610 N 
ATOM     14  C   LIG    1        4.998  -3.646   2.136  0.00  0.00    +0.280 C 
ATOM     15  C   LIG    1        5.783  -4.571   3.104  0.00  0.00    -0.030 C 
ATOM     16  C   LIG    1        6.257  -3.719   4.282  0.00  0.00    +0.220 C 
ATOM     17  O   LIG    1        6.665  -4.570   5.353  0.00  0.00    -0.380 OA
ATOM     18  C   LIG    1        5.590  -5.317   5.917  0.00  0.00    +0.210 C 
ATOM     19  C   LIG    1        4.965  -6.208   4.883  0.00  0.00    +0.010 C 
ATOM     20  C   LIG    1        4.710  -5.569   3.548  0.00  0.00    -0.010 C 
ATOM     21  C   LIG    1        3.398  -4.774   3.519  0.00  0.00    +0.250 C 
ENDBRANCH   1  12
BRANCH   9  22
ATOM     22  C   LIG    1        5.299   0.308  -0.658  0.00  0.00    -0.010 A 
ATOM     23  C   LIG    1        6.619   0.155  -0.234  0.00  0.00    +0.050 A 
ATOM     24  C   LIG    1        7.648   0.683  -0.986  0.00  0.00    +0.010 A 
ATOM     25  C   LIG    1        7.373   1.372  -2.154  0.00  0.00    +0.020 A 
ATOM     26  C   LIG    1        6.066   1.531  -2.578  0.00  0.00    +0.010 A 
ATOM     27  C   LIG    1        5.028   1.004  -1.837  0.00  0.00    +0.000 A 
ENDBRANCH   9  22
TORSDOF 2
