REMARK  Name = ZINCrg00000SjSIh.0
REMARK                            x       y       z     vdW  Elec       q    Type
REMARK                         _______ _______ _______ _____ _____    ______ ____
ROOT
ATOM      1  C   LIG    1        2.460   1.015   0.106  0.00  0.00    +0.190 C 
ATOM      2  C   LIG    1        2.689   0.158  -1.141  0.00  0.00    +0.070 C 
ENDROOT
BRANCH   1   5
ATOM      3  N   LIG    1       -0.011   0.966   0.007  0.00  0.00    -0.670 N 
ATOM      4  H   LIG    1        0.038  -0.003   0.004  0.00  0.00    +0.410 HD
ATOM      5  C   LIG    1        1.120   1.698   0.006  0.00  0.00    +0.520 C 
ATOM      6  O   LIG    1        1.060   2.907  -0.074  0.00  0.00    -0.490 OA
BRANCH   3  11
ATOM      7  C   LIG    1       -2.673   3.424  -0.682  0.00  0.00    -0.150 A 
ATOM      8  C   LIG    1       -3.740   2.851   0.019  0.00  0.00    +0.050 A 
ATOM      9  C   LIG    1       -3.558   1.667   0.703  0.00  0.00    +0.030 A 
ATOM     10  C   LIG    1       -2.326   1.040   0.695  0.00  0.00    +0.020 A 
ATOM     11  C   LIG    1       -1.257   1.603   0.007  0.00  0.00    +0.130 A 
ATOM     12  C   LIG    1       -1.427   2.792  -0.684  0.00  0.00    +0.090 A 
BRANCH   7  14
ATOM     13  C   LIG    1       -4.208   5.366  -1.408  0.00  0.00    +0.080 C 
ATOM     14  C   LIG    1       -2.863   4.687  -1.413  0.00  0.00    +0.390 C 
ATOM     15  O   LIG    1       -1.936   5.181  -2.019  0.00  0.00    -0.450 OA
ENDBRANCH   7  14
ENDBRANCH   3  11
ENDBRANCH   1   5
BRANCH   1  16
ATOM     16  O   LIG    1        3.507   2.016   0.203  0.00  0.00    -0.330 OA
BRANCH  16  17
ATOM     17  C   LIG    1        4.611   1.678   0.888  0.00  0.00    +0.470 C 
ATOM     18  O   LIG    1        4.699   0.582   1.389  0.00  0.00    -0.500 OA
BRANCH  17  19
ATOM     19  C   LIG    1        5.741   2.666   1.032  0.00  0.00    +0.130 C 
BRANCH  19  20
ATOM     20  C   LIG    1        6.869   2.035   1.851  0.00  0.00    +0.030 C 
BRANCH  20  21
ATOM     21  C   LIG    1        8.015   3.037   1.997  0.00  0.00    +0.320 C 
BRANCH  21  22
ATOM     22  N   LIG    1        9.095   2.433   2.781  0.00  0.00    -0.580 N 
ATOM     23  C   LIG    1        9.195   2.516   4.122  0.00  0.00    +0.520 C 
ATOM     24  C   LIG    1       10.451   1.751   4.488  0.00  0.00    +0.320 C 
ATOM     25  N   LIG    1       10.966   1.288   3.188  0.00  0.00    -0.730 N 
ATOM     26  H   LIG    1       11.767   0.764   3.035  0.00  0.00    +0.440 HD
ATOM     27  O   LIG    1        8.437   3.084   4.879  0.00  0.00    -0.460 OA
ATOM     28  C   LIG    1       10.107   1.735   2.253  0.00  0.00    +0.700 C 
ATOM     29  O   LIG    1       10.237   1.528   1.063  0.00  0.00    -0.540 OA
ENDBRANCH  21  22
ENDBRANCH  20  21
ENDBRANCH  19  20
ENDBRANCH  17  19
ENDBRANCH  16  17
ENDBRANCH   1  16
TORSDOF 9
