REMARK  Name = ZINCvU00000007dV.0
REMARK                            x       y       z     vdW  Elec       q    Type
REMARK                         _______ _______ _______ _____ _____    ______ ____
ROOT
ATOM      1  C   LIG    1        3.703  -0.695  -0.041  0.00  0.00    +0.240 C 
ENDROOT
BRANCH   1   2
ATOM      2  C   LIG    1        2.391   0.046  -0.035  0.00  0.00    -0.120 A 
ATOM      3  C   LIG    1        1.200  -0.657  -0.028  0.00  0.00    +0.030 A 
ATOM      4  C   LIG    1       -0.004   0.023  -0.022  0.00  0.00    +0.010 A 
ATOM      5  C   LIG    1       -0.017   1.405  -0.022  0.00  0.00    +0.030 A 
ATOM      6  C   LIG    1        1.174   2.108  -0.028  0.00  0.00    +0.010 A 
ATOM      7  C   LIG    1        2.377   1.428  -0.035  0.00  0.00    +0.040 A 
ENDBRANCH   1   2
BRANCH   1  10
ATOM      8  N   LIG    1        3.596  -1.397  -2.411  0.00  0.00    -0.660 N 
ATOM      9  H   LIG    1        2.811  -1.922  -2.189  0.00  0.00    +0.410 HD
ATOM     10  C   LIG    1        4.254  -0.728  -1.444  0.00  0.00    +0.520 C 
ATOM     11  O   LIG    1        5.290  -0.153  -1.702  0.00  0.00    -0.490 OA
BRANCH   8  17
ATOM     12  C   LIG    1        6.050   0.994  -5.937  0.00  0.00    +0.090 C 
ATOM     13  C   LIG    1        5.235  -0.185  -5.471  0.00  0.00    -0.070 A 
ATOM     14  C   LIG    1        4.929  -1.204  -6.353  0.00  0.00    -0.010 A 
ATOM     15  C   LIG    1        4.181  -2.288  -5.930  0.00  0.00    +0.030 A 
ATOM     16  C   LIG    1        3.738  -2.355  -4.624  0.00  0.00    -0.120 A 
ATOM     17  C   LIG    1        4.044  -1.332  -3.735  0.00  0.00    +0.150 A 
ATOM     18  C   LIG    1        2.922  -3.535  -4.163  0.00  0.00    +0.080 C 
ATOM     19  C   LIG    1        4.790  -0.243  -4.165  0.00  0.00    +0.010 A 
ENDBRANCH   8  17
ENDBRANCH   1  10
BRANCH   1  20
ATOM     20  O   LIG    1        4.645  -0.019   0.833  0.00  0.00    -0.320 OA
BRANCH  20  21
ATOM     21  C   LIG    1        4.667  -0.406   2.123  0.00  0.00    +0.500 C 
ATOM     22  O   LIG    1        3.920  -1.283   2.507  0.00  0.00    -0.460 OA
BRANCH  21  23
ATOM     23  C   LIG    1        5.599   0.237   3.071  0.00  0.00    -0.070 A 
ATOM     24  C   LIG    1        6.463   1.243   2.632  0.00  0.00    +0.140 A 
ATOM     25  C   LIG    1        7.328   1.842   3.523  0.00  0.00    +0.110 A 
ATOM     26  C   LIG    1        7.348   1.444   4.848  0.00  0.00    +0.000 A 
ATOM     27  C   LIG    1        6.500   0.445   5.290  0.00  0.00    +0.120 A 
ATOM     28  C   LIG    1        5.625  -0.161   4.410  0.00  0.00    +0.010 A 
ATOM     29 CL   LIG    1        4.560  -1.415   4.966  0.00  0.00    +0.010 Cl
BRANCH  26  30
ATOM     30  N   LIG    1        8.283   2.089   5.797  0.00  0.00    +0.020 N 
ATOM     31  O   LIG    1        9.032   2.969   5.411  0.00  0.00    -0.140 OA
ATOM     32  O   LIG    1        8.304   1.740   6.964  0.00  0.00    -0.140 OA
ENDBRANCH  26  30
ENDBRANCH  21  23
ENDBRANCH  20  21
ENDBRANCH   1  20
TORSDOF 7
