REMARK  Name = ZINCqH0000007C4r.0
REMARK                            x       y       z     vdW  Elec       q    Type
REMARK                         _______ _______ _______ _____ _____    ______ ____
ROOT
ATOM      1  C   LIG    1        2.481   1.067  -0.015  0.00  0.00    +0.220 A 
ATOM      2  N   LIG    1        3.671   1.608  -0.023  0.00  0.00    -0.360 NA
ATOM      3  O   LIG    1        4.522   0.744  -0.035  0.00  0.00    +0.100 OA
ATOM      4  C   LIG    1        3.949  -0.463  -0.036  0.00  0.00    +0.200 A 
ATOM      5  N   LIG    1        2.653  -0.275  -0.018  0.00  0.00    -0.450 NA
ENDROOT
BRANCH   1  10
ATOM      6  C   LIG    1       -0.052   3.850   0.023  0.00  0.00    +0.130 A 
ATOM      7  C   LIG    1       -1.240   3.132   0.031  0.00  0.00    -0.060 A 
ATOM      8  C   LIG    1       -1.217   1.750   0.017  0.00  0.00    +0.060 A 
ATOM      9  C   LIG    1       -0.013   1.076   0.008  0.00  0.00    +0.030 A 
ATOM     10  C   LIG    1        1.185   1.789   0.000  0.00  0.00    +0.010 A 
ATOM     11  C   LIG    1        1.161   3.181   0.008  0.00  0.00    +0.020 A 
BRANCH   6  13
ATOM     12  C   LIG    1       -1.365   5.832   0.046  0.00  0.00    +0.250 C 
ATOM     13  O   LIG    1       -0.079   5.208   0.030  0.00  0.00    -0.310 OA
ENDBRANCH   6  13
ENDBRANCH   1  10
BRANCH   4  14
ATOM     14  C   LIG    1        4.660  -1.792  -0.050  0.00  0.00    +0.220 C 
BRANCH  14  15
ATOM     15  S   LIG    1        4.929  -2.317  -1.765  0.00  0.00    -0.130 S 
BRANCH  15  16
ATOM     16  C   LIG    1        5.781  -3.907  -1.577  0.00  0.00    +0.110 C 
BRANCH  16  17
ATOM     17  C   LIG    1        6.079  -4.482  -2.937  0.00  0.00    +0.530 C 
ATOM     18  N   LIG    1        6.713  -5.667  -3.045  0.00  0.00    -0.610 N 
ATOM     19  C   LIG    1        7.111  -6.396  -1.838  0.00  0.00    +0.280 C 
ATOM     20  O   LIG    1        5.749  -3.878  -3.936  0.00  0.00    -0.520 OA
BRANCH  18  21
ATOM     21  C   LIG    1        7.002  -6.225  -4.367  0.00  0.00    +0.240 C 
ATOM     22  C   LIG    1        6.311  -7.582  -4.511  0.00  0.00    +0.010 C 
ATOM     23  C   LIG    1        6.614  -8.166  -5.892  0.00  0.00    +0.020 C 
ATOM     24  C   LIG    1        8.125  -8.344  -6.051  0.00  0.00    +0.010 C 
ATOM     25  C   LIG    1        8.816  -6.987  -5.907  0.00  0.00    +0.020 C 
ATOM     26  C   LIG    1        8.514  -6.404  -4.526  0.00  0.00    +0.010 C 
ENDBRANCH  18  21
ENDBRANCH  16  17
ENDBRANCH  15  16
ENDBRANCH  14  15
ENDBRANCH   4  14
TORSDOF 7
