REMARK  Name = ZINCrH000004qBBb.0
REMARK                            x       y       z     vdW  Elec       q    Type
REMARK                         _______ _______ _______ _____ _____    ______ ____
ROOT
ATOM      1  N   LIG    1       -0.011   0.966   0.007  0.00  0.00    -0.740 N 
ATOM      2  H   LIG    1        0.002  -0.004   0.002  0.00  0.00    +0.390 HD
ATOM      3  C   LIG    1        1.147   1.655   0.000  0.00  0.00    +0.590 C 
ATOM      4  O   LIG    1        1.130   2.872   0.007  0.00  0.00    -0.520 OA
ENDROOT
BRANCH   3   5
ATOM      5  C   LIG    1        2.428   0.939  -0.016  0.00  0.00    -0.080 A 
ATOM      6  C   LIG    1        3.667   1.517  -0.025  0.00  0.00    +0.000 A 
ATOM      7  C   LIG    1        4.597   0.471  -0.039  0.00  0.00    -0.270 A 
ATOM      8  C   LIG    1        3.886  -0.729  -0.041  0.00  0.00    +0.120 A 
ATOM      9  C   LIG    1        4.557  -2.079  -0.059  0.00  0.00    +0.140 C 
ATOM     10  C   LIG    1        5.989  -1.923  -0.579  0.00  0.00    -0.050 C 
ATOM     11  C   LIG    1        6.738  -0.846   0.212  0.00  0.00    +0.040 C 
ATOM     12  C   LIG    1        6.724  -3.257  -0.434  0.00  0.00    +0.040 C 
ATOM     13  C   LIG    1        5.949  -1.527  -2.056  0.00  0.00    +0.030 C 
ATOM     14  C   LIG    1        6.068   0.495  -0.049  0.00  0.00    +0.430 C 
ATOM     15  O   LIG    1        6.701   1.510  -0.251  0.00  0.00    -0.460 OA
ATOM     16  C   LIG    1        3.972   2.993  -0.020  0.00  0.00    +0.130 C 
ATOM     17  N   LIG    1        2.586  -0.434  -0.019  0.00  0.00    -0.510 N 
ATOM     18  H   LIG    1        1.863  -1.082  -0.009  0.00  0.00    +0.420 HD
ENDBRANCH   3   5
BRANCH   1  19
ATOM     19  C   LIG    1       -1.290   1.681   0.017  0.00  0.00    +0.270 C 
BRANCH  19  20
ATOM     20  C   LIG    1       -2.439   0.671   0.017  0.00  0.00    +0.070 C 
BRANCH  20  24
ATOM     21  C   LIG    1       -6.230   2.799  -2.460  0.00  0.00    +0.100 C 
ATOM     22  C   LIG    1       -5.567   2.425  -1.159  0.00  0.00    -0.100 A 
ATOM     23  C   LIG    1       -4.362   1.750  -1.166  0.00  0.00    +0.030 A 
ATOM     24  C   LIG    1       -3.754   1.407   0.028  0.00  0.00    -0.090 A 
ATOM     25  C   LIG    1       -4.354   1.732   1.230  0.00  0.00    +0.030 A 
ATOM     26  C   LIG    1       -5.556   2.412   1.242  0.00  0.00    -0.100 A 
ATOM     27  C   LIG    1       -6.206   2.771   2.554  0.00  0.00    +0.100 C 
ATOM     28  C   LIG    1       -6.168   2.758   0.046  0.00  0.00    +0.100 A 
BRANCH  28  29
ATOM     29  O   LIG    1       -7.354   3.421   0.056  0.00  0.00    -0.490 OA
ATOM     30  H   LIG    1       -8.129   2.842   0.056  0.00  0.00    +0.390 HD
ENDBRANCH  28  29
ENDBRANCH  20  24
ENDBRANCH  19  20
ENDBRANCH   1  19
TORSDOF 5
