REMARK  Name = ZINCpk00000e8Z6i.0
REMARK                            x       y       z     vdW  Elec       q    Type
REMARK                         _______ _______ _______ _____ _____    ______ ____
ROOT
ATOM      1  C   LIG    1        1.086   7.355  -1.601  0.00  0.00    +0.520 C 
ATOM      2  N   LIG    1        0.847   6.051  -1.358  0.00  0.00    -0.720 N 
ATOM      3  H   LIG    1        0.725   5.435  -2.097  0.00  0.00    +0.410 HD
ATOM      4  O   LIG    1        1.239   8.126  -0.677  0.00  0.00    -0.520 OA
ENDROOT
BRANCH   1   5
ATOM      5  C   LIG    1        1.164   7.855  -3.020  0.00  0.00    +0.270 C 
BRANCH   5   6
ATOM      6  O   LIG    1        1.429   9.283  -3.016  0.00  0.00    -0.340 OA
BRANCH   6   7
ATOM      7  C   LIG    1        1.530   9.890  -4.216  0.00  0.00    +0.540 C 
ATOM      8  O   LIG    1        1.399   9.244  -5.238  0.00  0.00    -0.490 OA
BRANCH   7  13
ATOM      9  C   LIG    1        2.172  13.399  -5.043  0.00  0.00    -0.270 A 
ATOM     10  C   LIG    1        2.191  13.420  -3.657  0.00  0.00    +0.300 A 
ATOM     11  N   LIG    1        1.965  12.175  -3.212  0.00  0.00    -0.510 N 
ATOM     12  H   LIG    1        1.926  11.911  -2.280  0.00  0.00    +0.430 HD
ATOM     13  C   LIG    1        1.796  11.331  -4.289  0.00  0.00    -0.050 A 
ATOM     14  C   LIG    1        1.925  12.061  -5.433  0.00  0.00    +0.130 A 
BRANCH   9  16
ATOM     15  C   LIG    1        2.635  15.912  -5.359  0.00  0.00    +0.060 C 
ATOM     16  C   LIG    1        2.375  14.544  -5.936  0.00  0.00    +0.420 C 
ATOM     17  O   LIG    1        2.334  14.391  -7.138  0.00  0.00    -0.470 OA
ENDBRANCH   9  16
ENDBRANCH   7  13
ENDBRANCH   6   7
ENDBRANCH   5   6
ENDBRANCH   1   5
BRANCH   2  18
ATOM     18  C   LIG    1        0.771   5.565   0.022  0.00  0.00    +0.340 C 
BRANCH  18  19
ATOM     19  C   LIG    1        0.496   4.083   0.018  0.00  0.00    -0.110 A 
ATOM     20  C   LIG    1       -0.808   3.624   0.028  0.00  0.00    +0.050 A 
ATOM     21  C   LIG    1       -1.065   2.265   0.019  0.00  0.00    +0.040 A 
ATOM     22  C   LIG    1       -0.016   1.361   0.009  0.00  0.00    +0.040 A 
ATOM     23  O   LIG    1        0.002  -0.004   0.002  0.00  0.00    -0.310 OA
ATOM     24  C   LIG    1        1.336  -0.373   0.399  0.00  0.00    +0.440 C 
ATOM     25  O   LIG    1        2.139   0.749  -0.014  0.00  0.00    -0.310 OA
ATOM     26  C   LIG    1        1.297   1.824  -0.001  0.00  0.00    +0.030 A 
ATOM     27  C   LIG    1        1.548   3.186   0.004  0.00  0.00    +0.060 A 
ENDBRANCH  18  19
ENDBRANCH   2  18
TORSDOF 7
