REMARK  Name = ZINCvU0000000EmA.0
REMARK                            x       y       z     vdW  Elec       q    Type
REMARK                         _______ _______ _______ _____ _____    ______ ____
ROOT
ATOM      1  S   LIG    1       -0.858   1.671   1.497  0.00  0.00    +0.160 S 
ENDROOT
BRANCH   1   5
ATOM      2  C   LIG    1        1.040   0.397   4.632  0.00  0.00    +0.230 A 
ATOM      3  N   LIG    1        1.766  -0.098   3.658  0.00  0.00    -0.270 NA
ATOM      4  N   LIG    1        1.252   0.240   2.528  0.00  0.00    -0.280 NA
ATOM      5  C   LIG    1        0.182   0.971   2.735  0.00  0.00    +0.110 A 
ATOM      6  O   LIG    1        0.022   1.084   4.068  0.00  0.00    -0.200 OA
BRANCH   2  10
ATOM      7  C   LIG    1        1.753  -0.072   8.796  0.00  0.00    +0.130 A 
ATOM      8  C   LIG    1        0.663   0.665   8.358  0.00  0.00    -0.030 A 
ATOM      9  C   LIG    1        0.429   0.820   7.007  0.00  0.00    +0.070 A 
ATOM     10  C   LIG    1        1.290   0.233   6.078  0.00  0.00    -0.030 A 
ATOM     11  C   LIG    1        2.384  -0.514   6.520  0.00  0.00    +0.030 A 
ATOM     12  C   LIG    1        2.616  -0.660   7.875  0.00  0.00    +0.100 A 
BRANCH   7  14
ATOM     13  C   LIG    1        1.054   0.408  11.018  0.00  0.00    +0.250 C 
ATOM     14  O   LIG    1        1.979  -0.221  10.129  0.00  0.00    -0.300 OA
ENDBRANCH   7  14
BRANCH  12  15
ATOM     15  O   LIG    1        3.684  -1.382   8.308  0.00  0.00    -0.300 OA
ATOM     16  C   LIG    1        4.527  -1.957   7.308  0.00  0.00    +0.250 C 
ENDBRANCH  12  15
ENDBRANCH   2  10
ENDBRANCH   1   5
BRANCH   1  17
ATOM     17  C   LIG    1       -0.009   1.091   0.008  0.00  0.00    +0.110 C 
BRANCH  17  18
ATOM     18  C   LIG    1       -0.743   1.583  -1.213  0.00  0.00    +0.540 C 
ATOM     19  N   LIG    1       -0.288   1.272  -2.443  0.00  0.00    -0.660 N 
ATOM     20  H   LIG    1        0.546   0.789  -2.544  0.00  0.00    +0.420 HD
ATOM     21  O   LIG    1       -1.742   2.260  -1.088  0.00  0.00    -0.500 OA
BRANCH  19  22
ATOM     22  C   LIG    1       -1.022   1.647  -3.575  0.00  0.00    +0.150 A 
ATOM     23  C   LIG    1       -1.722   2.845  -3.585  0.00  0.00    +0.080 A 
ATOM     24  C   LIG    1       -2.445   3.212  -4.703  0.00  0.00    +0.060 A 
ATOM     25  C   LIG    1       -2.471   2.387  -5.813  0.00  0.00    -0.010 A 
ATOM     26  C   LIG    1       -1.773   1.192  -5.806  0.00  0.00    -0.160 A 
ATOM     27 CL   LIG    1       -3.380   2.851  -7.217  0.00  0.00    -0.040 Cl
ATOM     28  C   LIG    1       -1.045   0.822  -4.693  0.00  0.00    +0.070 A 
BRANCH  26  29
ATOM     29  C   LIG    1       -1.803   0.295  -7.017  0.00  0.00    +0.510 C 
ATOM     30  F   LIG    1       -1.285   0.983  -8.120  0.00  0.00    -0.170 F 
ATOM     31  F   LIG    1       -3.123  -0.085  -7.284  0.00  0.00    -0.170 F 
ATOM     32  F   LIG    1       -1.030  -0.845  -6.773  0.00  0.00    -0.170 F 
ENDBRANCH  26  29
ENDBRANCH  19  22
ENDBRANCH  17  18
ENDBRANCH   1  17
TORSDOF 8
