REMARK  Name = ZINCrg00000SjSvP.0
REMARK                            x       y       z     vdW  Elec       q    Type
REMARK                         _______ _______ _______ _____ _____    ______ ____
ROOT
ATOM      1  N   LIG    1        5.917   1.203  -0.225  0.00  0.00    -0.430 N 
ATOM      2  C   LIG    1        4.707   0.790   0.280  0.00  0.00    +0.410 A 
ATOM      3  N   LIG    1        4.083  -0.169   0.930  0.00  0.00    -0.290 NA
ATOM      4  N   LIG    1        2.842   0.132   1.078  0.00  0.00    -0.200 NA
ATOM      5  C   LIG    1        2.593   1.298   0.523  0.00  0.00    +0.190 A 
ATOM      6  N   LIG    1        3.780   1.756  -0.001  0.00  0.00    -0.420 N 
ATOM      7  C   LIG    1        4.401   2.775  -0.681  0.00  0.00    +0.310 A 
ATOM      8  N   LIG    1        3.945   3.970  -1.195  0.00  0.00    -0.510 N 
ATOM      9  C   LIG    1        2.534   4.336  -1.046  0.00  0.00    +0.350 C 
ATOM     10  C   LIG    1        4.787   4.804  -1.831  0.00  0.00    +0.710 A 
ATOM     11  O   LIG    1        4.365   5.854  -2.277  0.00  0.00    -0.520 OA
ATOM     12  N   LIG    1        6.088   4.498  -1.985  0.00  0.00    -0.550 N 
ATOM     13  C   LIG    1        6.976   5.431  -2.684  0.00  0.00    +0.370 C 
ATOM     14  C   LIG    1        6.583   3.341  -1.499  0.00  0.00    +0.590 A 
ATOM     15  O   LIG    1        7.762   3.068  -1.641  0.00  0.00    -0.470 OA
ATOM     16  C   LIG    1        5.719   2.447  -0.826  0.00  0.00    -0.010 A 
ENDROOT
BRANCH   5  17
ATOM     17  C   LIG    1        1.287   1.988   0.477  0.00  0.00    -0.020 A 
ATOM     18  C   LIG    1        0.177   1.352  -0.082  0.00  0.00    +0.080 A 
ATOM     19  C   LIG    1       -1.037   2.005  -0.127  0.00  0.00    +0.040 A 
ATOM     20  C   LIG    1       -1.159   3.283   0.390  0.00  0.00    -0.020 A 
ATOM     21  C   LIG    1       -0.062   3.920   0.945  0.00  0.00    +0.040 A 
ATOM     22 CL   LIG    1       -2.693   4.095   0.334  0.00  0.00    -0.060 Cl
ATOM     23  C   LIG    1        1.159   3.280   0.992  0.00  0.00    +0.050 A 
ENDBRANCH   5  17
BRANCH   1  24
ATOM     24  C   LIG    1        7.183   0.470  -0.148  0.00  0.00    +0.370 C 
BRANCH  24  25
ATOM     25  C   LIG    1        7.323  -0.437  -1.372  0.00  0.00    +0.180 C 
BRANCH  25  27
ATOM     26  C   LIG    1        7.557  -0.388  -3.757  0.00  0.00    +0.200 C 
ATOM     27  O   LIG    1        7.422   0.365  -2.551  0.00  0.00    -0.380 OA
ENDBRANCH  25  27
ENDBRANCH  24  25
ENDBRANCH   1  24
TORSDOF 4
