REMARK  Name = ZINCrH000004qo0K.0
REMARK                            x       y       z     vdW  Elec       q    Type
REMARK                         _______ _______ _______ _____ _____    ______ ____
ROOT
ATOM      1  C   LIG    1       -4.617  -1.060  -1.724  0.00  0.00    +0.560 C 
ATOM      2  N   LIG    1       -4.004  -0.577  -0.625  0.00  0.00    -0.600 N 
ATOM      3  C   LIG    1       -4.728  -0.471   0.649  0.00  0.00    +0.260 C 
ATOM      4  C   LIG    1       -4.607   0.965   1.167  0.00  0.00    +0.040 C 
ATOM      5  C   LIG    1       -3.128   1.350   1.250  0.00  0.00    +0.040 C 
ATOM      6  C   LIG    1       -2.503   1.286  -0.146  0.00  0.00    +0.090 C 
ATOM      7  C   LIG    1       -2.600  -0.147  -0.679  0.00  0.00    +0.300 C 
ATOM      8  O   LIG    1       -4.042  -1.048  -2.795  0.00  0.00    -0.510 OA
ENDROOT
BRANCH   6   9
ATOM      9  C   LIG    1       -1.055   1.696  -0.068  0.00  0.00    +0.290 A 
ATOM     10  N   LIG    1       -0.608   2.898  -0.290  0.00  0.00    -0.480 NA
ATOM     11  C   LIG    1        0.741   2.917  -0.141  0.00  0.00    +0.050 A 
ATOM     12  C   LIG    1        1.710   3.917  -0.263  0.00  0.00    +0.070 A 
ATOM     13  C   LIG    1        3.025   3.621  -0.044  0.00  0.00    +0.000 A 
ATOM     14  C   LIG    1        3.413   2.333   0.298  0.00  0.00    +0.030 A 
ATOM     15  C   LIG    1        2.475   1.331   0.424  0.00  0.00    +0.010 A 
ATOM     16  C   LIG    1        1.134   1.613   0.206  0.00  0.00    +0.050 A 
ATOM     17  N   LIG    1       -0.025   0.865   0.248  0.00  0.00    -0.600 N 
ATOM     18  H   LIG    1       -0.093  -0.079   0.459  0.00  0.00    +0.420 HD
ENDBRANCH   6   9
BRANCH   1  22
ATOM     19  C   LIG    1       -9.106  -1.838  -3.759  0.00  0.00    +0.140 C 
ATOM     20  C   LIG    1       -8.151  -1.981  -2.603  0.00  0.00    -0.010 A 
ATOM     21  C   LIG    1       -6.874  -1.466  -2.698  0.00  0.00    +0.090 A 
ATOM     22  C   LIG    1       -5.988  -1.604  -1.628  0.00  0.00    -0.070 A 
ATOM     23  C   LIG    1       -6.405  -2.252  -0.464  0.00  0.00    +0.050 A 
ATOM     24  C   LIG    1       -7.686  -2.757  -0.380  0.00  0.00    +0.110 A 
ATOM     25  C   LIG    1       -8.557  -2.622  -1.446  0.00  0.00    -0.030 A 
BRANCH  25  26
ATOM     26  N   LIG    1       -9.930  -3.167  -1.350  0.00  0.00    +0.030 N 
ATOM     27  O   LIG    1      -10.697  -3.057  -2.290  0.00  0.00    -0.150 OA
ATOM     28  O   LIG    1      -10.293  -3.726  -0.330  0.00  0.00    -0.160 OA
ENDBRANCH  25  26
ENDBRANCH   1  22
TORSDOF 3
