REMARK  Name = ZINCfA000000begZ.1
REMARK                            x       y       z     vdW  Elec       q    Type
REMARK                         _______ _______ _______ _____ _____    ______ ____
ROOT
ATOM      1  N   LIG    1       -2.276   0.915   1.091  0.00  0.00    -0.380 N 
ATOM      2  H   LIG    1       -2.702   0.967   0.178  0.00  0.00    +0.430 HD
ENDROOT
BRANCH   1   3
ATOM      3  C   LIG    1       -3.212   1.432   2.098  0.00  0.00    +0.290 C 
ATOM      4  C   LIG    1       -3.554   2.888   1.776  0.00  0.00    +0.120 C 
BRANCH   3   5
ATOM      5  C   LIG    1       -4.472   0.605   2.084  0.00  0.00    -0.120 A 
ATOM      6  N   LIG    1       -5.114   0.225   1.027  0.00  0.00    -0.230 NA
ATOM      7  N   LIG    1       -6.155  -0.467   1.218  0.00  0.00    -0.250 NA
ATOM      8  C   LIG    1       -6.462  -0.718   2.450  0.00  0.00    +0.020 A 
ATOM      9  C   LIG    1       -7.651  -1.520   2.914  0.00  0.00    +0.230 C 
ATOM     10  S   LIG    1       -5.288   0.005   3.465  0.00  0.00    +0.250 S 
ENDBRANCH   3   5
ENDBRANCH   1   3
BRANCH   1  11
ATOM     11  C   LIG    1       -1.048   1.721   1.104  0.00  0.00    +0.260 C 
ATOM     12  C   LIG    1       -0.472   1.750   2.521  0.00  0.00    +0.080 C 
ENDBRANCH   1  11
BRANCH   1  13
ATOM     13  C   LIG    1       -1.947  -0.483   1.400  0.00  0.00    +0.230 C 
BRANCH  13  14
ATOM     14  C   LIG    1       -1.086  -1.064   0.277  0.00  0.00    +0.040 C 
BRANCH  14  16
ATOM     15  C   LIG    1        0.002  -3.138  -0.595  0.00  0.00    +0.030 C 
ATOM     16  C   LIG    1       -0.860  -2.556   0.528  0.00  0.00    +0.020 C 
ENDBRANCH  14  16
ENDBRANCH  13  14
ENDBRANCH   1  13
TORSDOF 6
