REMARK  Name = ZINCfA000000begZ.2
REMARK                            x       y       z     vdW  Elec       q    Type
REMARK                         _______ _______ _______ _____ _____    ______ ____
ROOT
ATOM      1  N   LIG    1       -0.962  -0.514   0.989  0.00  0.00    -0.380 N 
ATOM      2  H   LIG    1       -1.881  -0.140   0.809  0.00  0.00    +0.430 HD
ENDROOT
BRANCH   1   3
ATOM      3  C   LIG    1       -0.015   0.018  -0.001  0.00  0.00    +0.290 C 
ATOM      4  C   LIG    1       -0.535  -0.269  -1.410  0.00  0.00    +0.120 C 
BRANCH   3   5
ATOM      5  C   LIG    1        0.127   1.506   0.190  0.00  0.00    -0.120 A 
ATOM      6  N   LIG    1       -0.846   2.341   0.368  0.00  0.00    -0.230 NA
ATOM      7  N   LIG    1       -0.527   3.555   0.514  0.00  0.00    -0.250 NA
ATOM      8  C   LIG    1        0.736   3.831   0.458  0.00  0.00    +0.020 A 
ATOM      9  C   LIG    1        1.343   5.203   0.597  0.00  0.00    +0.230 C 
ATOM     10  S   LIG    1        1.601   2.377   0.198  0.00  0.00    +0.250 S 
ENDBRANCH   3   5
ENDBRANCH   1   3
BRANCH   1  11
ATOM     11  C   LIG    1       -0.530  -0.125   2.338  0.00  0.00    +0.240 C 
ATOM     12  C   LIG    1        0.900  -0.612   2.576  0.00  0.00    +0.080 C 
ENDBRANCH   1  11
BRANCH   1  13
ATOM     13  C   LIG    1       -1.001  -1.979   0.890  0.00  0.00    +0.250 C 
BRANCH  13  14
ATOM     14  C   LIG    1       -2.076  -2.525   1.832  0.00  0.00    +0.030 C 
BRANCH  14  16
ATOM     15  C   LIG    1       -3.193  -4.597   2.671  0.00  0.00    +0.030 C 
ATOM     16  C   LIG    1       -2.117  -4.051   1.729  0.00  0.00    +0.020 C 
ENDBRANCH  14  16
ENDBRANCH  13  14
ENDBRANCH   1  13
TORSDOF 6
