REMARK  Name = ZINCrD0000073k6S.0
REMARK                            x       y       z     vdW  Elec       q    Type
REMARK                         _______ _______ _______ _____ _____    ______ ____
ROOT
ATOM      1  N   LIG    1       -7.338   2.573   0.123  0.00  0.00    -0.660 N 
ATOM      2  H   LIG    1       -7.577   1.636   0.045  0.00  0.00    +0.430 HD
ATOM      3  C   LIG    1       -6.041   2.941   0.110  0.00  0.00    +0.520 C 
ATOM      4  O   LIG    1       -5.744   4.117   0.106  0.00  0.00    -0.490 OA
ENDROOT
BRANCH   1  10
ATOM      5  C   LIG    1       -9.623   3.290  -0.231  0.00  0.00    +0.100 A 
ATOM      6  C   LIG    1      -10.610   4.254  -0.104  0.00  0.00    +0.030 A 
ATOM      7  C   LIG    1      -10.320   5.465   0.497  0.00  0.00    -0.030 A 
ATOM      8  C   LIG    1       -9.047   5.718   0.974  0.00  0.00    +0.100 A 
ATOM      9  C   LIG    1       -8.059   4.759   0.857  0.00  0.00    +0.080 A 
ATOM     10  C   LIG    1       -8.340   3.544   0.249  0.00  0.00    +0.180 A 
BRANCH   7  11
ATOM     11  N   LIG    1      -11.376   6.494   0.631  0.00  0.00    +0.030 N 
ATOM     12  O   LIG    1      -11.123   7.561   1.161  0.00  0.00    -0.150 OA
ATOM     13  O   LIG    1      -12.498   6.273   0.212  0.00  0.00    -0.160 OA
ENDBRANCH   7  11
BRANCH   5  15
ATOM     14  C   LIG    1      -11.242   1.909  -1.292  0.00  0.00    +0.250 C 
ATOM     15  O   LIG    1       -9.906   2.099  -0.824  0.00  0.00    -0.310 OA
ENDBRANCH   5  15
ENDBRANCH   1  10
BRANCH   3  16
ATOM     16  C   LIG    1       -4.960   1.890   0.101  0.00  0.00    +0.270 C 
BRANCH  16  17
ATOM     17  O   LIG    1       -3.659   2.535   0.087  0.00  0.00    -0.330 OA
BRANCH  17  18
ATOM     18  C   LIG    1       -2.578   1.730   0.078  0.00  0.00    +0.530 C 
ATOM     19  O   LIG    1       -2.718   0.523   0.080  0.00  0.00    -0.500 OA
BRANCH  18  20
ATOM     20  C   LIG    1       -1.228   2.313   0.064  0.00  0.00    -0.150 A 
ATOM     21  C   LIG    1       -0.996   3.650   0.056  0.00  0.00    +0.000 A 
ATOM     22  S   LIG    1        0.676   3.974   0.047  0.00  0.00    +0.210 S 
ATOM     23  C   LIG    1        1.089   2.268   0.047  0.00  0.00    -0.210 A 
ATOM     24  C   LIG    1        2.501   1.714   0.041  0.00  0.00    +0.110 C 
ATOM     25  C   LIG    1        2.453   0.241   0.457  0.00  0.00    +0.020 C 
ATOM     26  C   LIG    1        1.391  -0.480  -0.379  0.00  0.00    +0.020 C 
ATOM     27  C   LIG    1        0.002  -0.006   0.055  0.00  0.00    +0.110 C 
ATOM     28  C   LIG    1       -0.018   1.514   0.053  0.00  0.00    -0.050 A 
ENDBRANCH  18  20
ENDBRANCH  17  18
ENDBRANCH  16  17
ENDBRANCH   3  16
TORSDOF 7
