REMARK  Name = ZINCrD00000l6K8X.0
REMARK                            x       y       z     vdW  Elec       q    Type
REMARK                         _______ _______ _______ _____ _____    ______ ____
ROOT
ATOM      1  C   LIG    1        3.038   3.391   3.502  0.00  0.00    -0.150 A 
ATOM      2  C   LIG    1        2.166   2.377   3.102  0.00  0.00    +0.170 A 
ATOM      3  C   LIG    1        0.807   2.529   3.281  0.00  0.00    -0.690 A 
ATOM      4  C   LIG    1        0.307   3.680   3.865  0.00  0.00    +0.180 A 
ATOM      5  C   LIG    1        1.164   4.688   4.268  0.00  0.00    +0.010 A 
ATOM      6  C   LIG    1        2.527   4.551   4.091  0.00  0.00    +0.060 A 
ATOM      7 CL   LIG    1        3.602   5.816   4.598  0.00  0.00    -0.010 Cl
ENDROOT
BRANCH   1   9
ATOM      8  O   LIG    1        5.252   4.120   3.662  0.00  0.00    -0.500 OA
ATOM      9  C   LIG    1        4.495   3.236   3.309  0.00  0.00    +0.560 C 
ATOM     10  N   LIG    1        4.984   2.117   2.741  0.00  0.00    -0.730 N 
ATOM     11  H   LIG    1        4.380   1.412   2.459  0.00  0.00    +0.400 HD
BRANCH  10  12
ATOM     12  C   LIG    1        6.428   1.964   2.549  0.00  0.00    +0.300 C 
BRANCH  12  13
ATOM     13  C   LIG    1        6.715   0.613   1.889  0.00  0.00    +0.060 C 
BRANCH  13  14
ATOM     14  S   LIG    1        8.504   0.424   1.651  0.00  0.00    -0.210 S 
BRANCH  14  15
ATOM     15  C   LIG    1        8.641  -1.208   0.872  0.00  0.00    +0.200 C 
BRANCH  15  16
ATOM     16  C   LIG    1       10.092  -1.517   0.606  0.00  0.00    -0.010 A 
ATOM     17  C   LIG    1       10.932  -2.138   1.453  0.00  0.00    -0.030 A 
ATOM     18  C   LIG    1       12.184  -2.221   0.801  0.00  0.00    -0.070 A 
ATOM     19  C   LIG    1       12.036  -1.639  -0.403  0.00  0.00    +0.180 A 
ATOM     20  O   LIG    1       10.766  -1.215  -0.516  0.00  0.00    -0.170 OA
ENDBRANCH  15  16
ENDBRANCH  14  15
ENDBRANCH  13  14
ENDBRANCH  12  13
ENDBRANCH  10  12
ENDBRANCH   1   9
BRANCH   3  21
ATOM     21  S   LIG    1       -0.295   1.252   2.771  0.00  0.00    +2.710 S 
ATOM     22  O   LIG    1        0.466   0.052   2.746  0.00  0.00    -0.950 OA
ATOM     23  O   LIG    1       -1.476   1.408   3.546  0.00  0.00    -0.940 OA
BRANCH  21  24
ATOM     24  N   LIG    1       -0.721   1.570   1.202  0.00  0.00    -1.010 NA
ATOM     25  C   LIG    1       -0.013   1.086   0.008  0.00  0.00    +0.270 C 
ATOM     26  C   LIG    1       -0.779   1.607  -1.226  0.00  0.00    +0.030 C 
ATOM     27  C   LIG    1       -2.199   1.882  -0.662  0.00  0.00    +0.040 C 
ATOM     28  C   LIG    1       -1.874   2.383   0.767  0.00  0.00    +0.270 C 
ENDBRANCH  21  24
ENDBRANCH   3  21
TORSDOF 8
