REMARK  Name = ZINCqH0000034Z6o.0
REMARK                            x       y       z     vdW  Elec       q    Type
REMARK                         _______ _______ _______ _____ _____    ______ ____
ROOT
ATOM      1  N   LIG    1       -5.519   3.608  -0.161  0.00  0.00    -0.720 N 
ATOM      2  H   LIG    1       -4.903   3.805   0.562  0.00  0.00    +0.410 HD
ATOM      3  C   LIG    1       -5.046   3.226  -1.364  0.00  0.00    +0.590 C 
ATOM      4  O   LIG    1       -5.819   2.979  -2.271  0.00  0.00    -0.490 OA
ENDROOT
BRANCH   3   5
ATOM      5  C   LIG    1       -3.599   3.107  -1.581  0.00  0.00    +0.030 A 
ATOM      6  C   LIG    1       -3.005   2.731  -2.747  0.00  0.00    -0.030 A 
ATOM      7  C   LIG    1       -1.563   2.748  -2.514  0.00  0.00    -0.120 A 
ATOM      8  C   LIG    1       -0.451   2.464  -3.314  0.00  0.00    +0.080 A 
ATOM      9  C   LIG    1        0.805   2.581  -2.794  0.00  0.00    -0.010 A 
ATOM     10  C   LIG    1        0.990   2.974  -1.474  0.00  0.00    +0.050 A 
ATOM     11  C   LIG    1       -0.089   3.253  -0.666  0.00  0.00    -0.010 A 
ATOM     12  C   LIG    1       -1.381   3.142  -1.173  0.00  0.00    +0.130 A 
ATOM     13 CL   LIG    1       -3.809   2.312  -4.227  0.00  0.00    -0.000 Cl
ATOM     14  N   LIG    1       -2.626   3.348  -0.628  0.00  0.00    -0.580 N 
ATOM     15  H   LIG    1       -2.796   3.629   0.284  0.00  0.00    +0.420 HD
ENDBRANCH   3   5
BRANCH   1  16
ATOM     16  C   LIG    1       -6.963   3.727   0.054  0.00  0.00    +0.360 C 
BRANCH  16  17
ATOM     17  C   LIG    1       -7.433   5.078  -0.423  0.00  0.00    -0.120 A 
ATOM     18  C   LIG    1       -6.546   6.135  -0.485  0.00  0.00    +0.030 A 
ATOM     19  C   LIG    1       -6.976   7.374  -0.929  0.00  0.00    +0.090 A 
ATOM     20  C   LIG    1       -8.297   7.556  -1.299  0.00  0.00    +0.040 A 
ATOM     21  C   LIG    1       -9.186   6.500  -1.231  0.00  0.00    +0.030 A 
ATOM     22  F   LIG    1       -6.107   8.407  -0.996  0.00  0.00    -0.130 F 
ATOM     23  C   LIG    1       -8.754   5.260  -0.793  0.00  0.00    +0.120 A 
ATOM     24  F   LIG    1       -9.623   4.227  -0.726  0.00  0.00    -0.120 F 
ENDBRANCH  16  17
BRANCH  16  25
ATOM     25  C   LIG    1       -7.265   3.581   1.524  0.00  0.00    +0.470 C 
ATOM     26  O   LIG    1       -6.367   3.396   2.310  0.00  0.00    -0.490 OA
BRANCH  25  28
ATOM     27  C   LIG    1       -8.749   3.505   3.386  0.00  0.00    +0.290 C 
ATOM     28  O   LIG    1       -8.533   3.655   1.959  0.00  0.00    -0.340 OA
ENDBRANCH  25  28
ENDBRANCH  16  25
ENDBRANCH   1  16
TORSDOF 5
