REMARK  Name = ZINCtV00000nLqyF.0
REMARK                            x       y       z     vdW  Elec       q    Type
REMARK                         _______ _______ _______ _____ _____    ______ ____
ROOT
ATOM      1  C   LIG    1        7.237   0.829  -0.063  0.00  0.00    -0.060 A 
ATOM      2  C   LIG    1        7.035   2.197  -0.157  0.00  0.00    +0.060 A 
ATOM      3  C   LIG    1        8.146   3.060  -0.158  0.00  0.00    +0.230 A 
ATOM      4  N   LIG    1        9.383   2.614  -0.073  0.00  0.00    -0.440 NA
ATOM      5  C   LIG    1        9.667   1.313   0.020  0.00  0.00    +0.130 A 
ATOM      6  C   LIG    1       10.998   0.866   0.110  0.00  0.00    +0.050 A 
ATOM      7  C   LIG    1       11.257  -0.467   0.220  0.00  0.00    +0.040 A 
ATOM      8  C   LIG    1       10.224  -1.401   0.230  0.00  0.00    +0.030 A 
ATOM      9  C   LIG    1        8.922  -1.004   0.139  0.00  0.00    +0.050 A 
ATOM     10  C   LIG    1        8.620   0.358   0.036  0.00  0.00    -0.060 A 
ENDROOT
BRANCH   3  11
ATOM     11  C   LIG    1        7.918   4.514  -0.257  0.00  0.00    -0.170 A 
ATOM     12  C   LIG    1        8.885   5.456  -0.265  0.00  0.00    +0.070 A 
ATOM     13  C   LIG    1        8.427   6.751  -0.371  0.00  0.00    +0.010 A 
ATOM     14  C   LIG    1        7.097   6.878  -0.440  0.00  0.00    -0.030 A 
ATOM     15  S   LIG    1        6.344   5.290  -0.377  0.00  0.00    +0.140 S 
ENDBRANCH   3  11
BRANCH   1  17
ATOM     16  O   LIG    1        6.307  -1.314  -0.079  0.00  0.00    -0.490 OA
ATOM     17  C   LIG    1        6.101  -0.117  -0.058  0.00  0.00    +0.520 C 
BRANCH  17  18
ATOM     18  O   LIG    1        4.837   0.349  -0.029  0.00  0.00    -0.340 OA
BRANCH  18  19
ATOM     19  C   LIG    1        3.772  -0.637  -0.025  0.00  0.00    +0.290 C 
BRANCH  19  20
ATOM     20  C   LIG    1        2.438   0.064   0.009  0.00  0.00    -0.090 A 
ATOM     21  C   LIG    1        2.381   1.424   0.029  0.00  0.00    +0.040 A 
ATOM     22  C   LIG    1        1.157   2.090   0.060  0.00  0.00    +0.010 A 
ATOM     23  C   LIG    1       -0.016   1.401   0.070  0.00  0.00    +0.030 A 
ATOM     24  C   LIG    1        0.003  -0.004   0.049  0.00  0.00    -0.050 A 
ATOM     25  C   LIG    1       -1.188  -0.751   0.058  0.00  0.00    +0.030 A 
ATOM     26  C   LIG    1       -1.130  -2.111   0.037  0.00  0.00    +0.010 A 
ATOM     27  C   LIG    1        0.093  -2.777   0.007  0.00  0.00    +0.020 A 
ATOM     28  C   LIG    1        1.267  -2.087  -0.003  0.00  0.00    +0.010 A 
ATOM     29  C   LIG    1        1.247  -0.682   0.018  0.00  0.00    -0.040 A 
ENDBRANCH  19  20
ENDBRANCH  18  19
ENDBRANCH  17  18
ENDBRANCH   1  17
TORSDOF 5
