REMARK  Name = ZINCrD000000AVKf.0
REMARK                            x       y       z     vdW  Elec       q    Type
REMARK                         _______ _______ _______ _____ _____    ______ ____
ROOT
ATOM      1  C   LIG    1        1.153   3.178   0.008  0.00  0.00    -0.130 A 
ATOM      2  C   LIG    1       -0.070   3.850   0.023  0.00  0.00    +0.170 A 
ATOM      3  C   LIG    1       -1.248   3.133   0.031  0.00  0.00    -0.680 A 
ATOM      4  C   LIG    1       -1.221   1.750   0.017  0.00  0.00    +0.170 A 
ATOM      5  C   LIG    1       -0.013   1.076   0.008  0.00  0.00    +0.030 A 
ATOM      6  C   LIG    1        1.175   1.781   0.000  0.00  0.00    +0.010 A 
ATOM      7 BR   LIG    1        2.825   0.859  -0.020  0.00  0.00    +0.010 Br
ENDROOT
BRANCH   1   9
ATOM      8  O   LIG    1        3.483   3.351  -0.014  0.00  0.00    -0.500 OA
ATOM      9  C   LIG    1        2.419   3.940  -0.000  0.00  0.00    +0.550 C 
ATOM     10  N   LIG    1        2.395   5.287   0.007  0.00  0.00    -0.720 N 
ATOM     11  H   LIG    1        1.546   5.757   0.018  0.00  0.00    +0.400 HD
BRANCH  10  12
ATOM     12  C   LIG    1        3.650   6.043  -0.001  0.00  0.00    +0.260 C 
BRANCH  12  13
ATOM     13  C   LIG    1        3.343   7.542   0.010  0.00  0.00    +0.030 C 
BRANCH  13  14
ATOM     14  C   LIG    1        4.654   8.331   0.001  0.00  0.00    +0.170 C 
BRANCH  14  15
ATOM     15  O   LIG    1        4.367   9.731   0.011  0.00  0.00    -0.380 OA
BRANCH  15  16
ATOM     16  C   LIG    1        5.530  10.562   0.004  0.00  0.00    +0.150 C 
ATOM     17  C   LIG    1        5.959  10.851   1.444  0.00  0.00    -0.010 C 
ATOM     18  C   LIG    1        7.203  11.741   1.437  0.00  0.00    +0.010 C 
ATOM     19  C   LIG    1        6.885  13.057   0.726  0.00  0.00    +0.000 C 
ATOM     20  C   LIG    1        6.455  12.768  -0.714  0.00  0.00    +0.010 C 
ATOM     21  C   LIG    1        5.211  11.879  -0.707  0.00  0.00    +0.020 C 
ENDBRANCH  15  16
ENDBRANCH  14  15
ENDBRANCH  13  14
ENDBRANCH  12  13
ENDBRANCH  10  12
ENDBRANCH   1   9
BRANCH   3  22
ATOM     22  S   LIG    1       -2.793   3.981   0.050  0.00  0.00    +2.700 S 
ATOM     23  O   LIG    1       -2.538   5.267   0.598  0.00  0.00    -0.950 OA
ATOM     24  O   LIG    1       -3.741   3.075   0.598  0.00  0.00    -0.940 OA
BRANCH  22  25
ATOM     25  N   LIG    1       -3.237   4.224  -1.527  0.00  0.00    -1.090 NA
ATOM     26  H   LIG    1       -3.298   5.126  -1.880  0.00  0.00    +0.420 HD
BRANCH  25  27
ATOM     27  C   LIG    1       -3.540   3.079  -2.388  0.00  0.00    +0.220 C 
ATOM     28  C   LIG    1       -3.177   3.194  -3.870  0.00  0.00    +0.020 C 
ATOM     29  C   LIG    1       -4.643   3.252  -3.434  0.00  0.00    +0.030 C 
ENDBRANCH  25  27
ENDBRANCH  22  25
ENDBRANCH   3  22
TORSDOF 9
