REMARK  Name = ZINCpe00000VVGfW.0
REMARK                            x       y       z     vdW  Elec       q    Type
REMARK                         _______ _______ _______ _____ _____    ______ ____
ROOT
ATOM      1  C   LIG    1       -5.402   4.532   1.975  0.00  0.00    +0.590 C 
ATOM      2  N   LIG    1       -4.623   4.324   0.895  0.00  0.00    -0.710 N 
ATOM      3  H   LIG    1       -4.936   4.581   0.014  0.00  0.00    +0.410 HD
ATOM      4  O   LIG    1       -5.009   4.209   3.079  0.00  0.00    -0.520 OA
ENDROOT
BRANCH   1   7
ATOM      5  N   LIG    1       -8.305   6.044   0.432  0.00  0.00    -0.330 N 
ATOM      6  N   LIG    1       -7.155   5.506   0.623  0.00  0.00    -0.180 NA
ATOM      7  C   LIG    1       -6.735   5.153   1.817  0.00  0.00    +0.010 A 
ATOM      8  C   LIG    1       -7.551   5.370   2.952  0.00  0.00    +0.130 A 
ATOM      9  C   LIG    1       -8.773   5.945   2.768  0.00  0.00    -0.020 A 
ATOM     10  C   LIG    1       -9.150   6.290   1.450  0.00  0.00    +0.480 A 
ATOM     11  O   LIG    1      -10.235   6.806   1.237  0.00  0.00    -0.520 OA
BRANCH   5  12
ATOM     12  C   LIG    1       -8.706   6.405  -0.930  0.00  0.00    +0.320 C 
BRANCH  12  14
ATOM     13  C   LIG    1       -8.675   8.214  -2.653  0.00  0.00    +0.030 C 
ATOM     14  C   LIG    1       -8.257   7.837  -1.231  0.00  0.00    +0.000 C 
ENDBRANCH  12  14
ENDBRANCH   5  12
ENDBRANCH   1   7
BRANCH   2  15
ATOM     15  C   LIG    1       -3.302   3.708   1.052  0.00  0.00    +0.230 C 
ATOM     16  C   LIG    1       -2.400   4.130  -0.111  0.00  0.00    +0.030 C 
ATOM     17  C   LIG    1       -1.043   3.436   0.026  0.00  0.00    +0.230 C 
ATOM     18  N   LIG    1       -1.233   1.980   0.019  0.00  0.00    -0.460 N 
ATOM     19  C   LIG    1       -2.057   1.546   1.154  0.00  0.00    +0.220 C 
ATOM     20  C   LIG    1       -3.445   2.184   1.051  0.00  0.00    +0.030 C 
BRANCH  18  21
ATOM     21  C   LIG    1       -0.016   1.321   0.009  0.00  0.00    +0.490 A 
ATOM     22  N   LIG    1        1.103   2.030   0.002  0.00  0.00    -0.550 NA
ATOM     23  C   LIG    1        2.283   1.431  -0.012  0.00  0.00    +0.340 A 
ATOM     24  C   LIG    1        2.338   0.046  -0.020  0.00  0.00    -0.110 A 
ATOM     25  C   LIG    1        1.148  -0.665  -0.013  0.00  0.00    +0.350 A 
ATOM     26  N   LIG    1        0.002  -0.004   0.002  0.00  0.00    -0.530 NA
ENDBRANCH  18  21
ENDBRANCH   2  15
TORSDOF 5
