REMARK  Name = ZINCpe00000gLOoP.0
REMARK                            x       y       z     vdW  Elec       q    Type
REMARK                         _______ _______ _______ _____ _____    ______ ____
ROOT
ATOM      1  N   LIG    1       -1.122   1.647   0.249  0.00  0.00    -0.710 N 
ATOM      2  H   LIG    1       -0.981   2.605   0.318  0.00  0.00    +0.400 HD
ATOM      3  C   LIG    1       -0.098   0.798   0.466  0.00  0.00    +0.720 C 
ATOM      4  N   LIG    1        1.143   1.279   0.679  0.00  0.00    -0.740 N 
ATOM      5  H   LIG    1        1.298   2.237   0.681  0.00  0.00    +0.390 HD
ATOM      6  O   LIG    1       -0.292  -0.402   0.463  0.00  0.00    -0.590 OA
ENDROOT
BRANCH   1  12
ATOM      7  C   LIG    1       -4.384  -0.281   0.840  0.00  0.00    +0.060 C 
ATOM      8  C   LIG    1       -3.296   0.754   1.137  0.00  0.00    -0.080 C 
ATOM      9  C   LIG    1       -3.806   2.204   1.124  0.00  0.00    +0.150 C 
ATOM     10  C   LIG    1       -3.486   2.221  -0.380  0.00  0.00    +0.010 C 
ATOM     11  C   LIG    1       -2.466   0.406   2.374  0.00  0.00    +0.050 C 
ATOM     12  C   LIG    1       -2.447   1.125  -0.091  0.00  0.00    +0.190 C 
BRANCH   9  13
ATOM     13  O   LIG    1       -3.002   3.102   1.891  0.00  0.00    -0.540 OA
ATOM     14  H   LIG    1       -3.292   4.024   1.850  0.00  0.00    +0.380 HD
ENDBRANCH   9  13
BRANCH  12  15
ATOM     15  C   LIG    1       -2.399   0.030  -1.158  0.00  0.00    +0.200 C 
BRANCH  15  16
ATOM     16  O   LIG    1       -1.699   0.515  -2.306  0.00  0.00    -0.570 OA
ATOM     17  H   LIG    1       -1.630  -0.128  -3.025  0.00  0.00    +0.380 HD
ENDBRANCH  15  16
ENDBRANCH  12  15
ENDBRANCH   1  12
BRANCH   4  18
ATOM     18  C   LIG    1        2.257   0.356   0.909  0.00  0.00    +0.360 C 
BRANCH  18  19
ATOM     19  C   LIG    1        3.526   1.142   1.119  0.00  0.00    -0.210 A 
ATOM     20  C   LIG    1        3.936   1.439   2.377  0.00  0.00    +0.160 A 
ATOM     21  C   LIG    1        5.173   2.204   2.547  0.00  0.00    -0.140 A 
ATOM     22  C   LIG    1        5.646   2.539   3.819  0.00  0.00    +0.090 A 
ATOM     23  C   LIG    1        6.804   3.254   3.944  0.00  0.00    -0.020 A 
ATOM     24  C   LIG    1        7.515   3.649   2.820  0.00  0.00    +0.070 A 
ATOM     25  C   LIG    1        7.067   3.329   1.556  0.00  0.00    -0.030 A 
ATOM     26  C   LIG    1        5.891   2.603   1.404  0.00  0.00    +0.190 A 
ATOM     27  N   LIG    1        5.420   2.268   0.152  0.00  0.00    -0.630 N 
ATOM     28  H   LIG    1        5.916   2.544  -0.635  0.00  0.00    +0.420 HD
ATOM     29  C   LIG    1        4.285   1.561   0.006  0.00  0.00    +0.540 A 
ATOM     30  O   LIG    1        3.901   1.280  -1.116  0.00  0.00    -0.520 OA
ENDBRANCH  18  19
ENDBRANCH   4  18
TORSDOF 6
