REMARK  Name = ZINCqH0000007Q70.0
REMARK                            x       y       z     vdW  Elec       q    Type
REMARK                         _______ _______ _______ _____ _____    ______ ____
ROOT
ATOM      1  N   LIG    1        3.642  -0.462  -0.104  0.00  0.00    -0.490 N 
ATOM      2  C   LIG    1        4.399  -0.170   1.120  0.00  0.00    +0.180 C 
ATOM      3  C   LIG    1        5.599  -1.119   1.213  0.00  0.00    +0.300 C 
ATOM      4  N   LIG    1        6.372  -1.018  -0.034  0.00  0.00    -0.600 N 
ATOM      5  C   LIG    1        5.655  -1.163  -1.310  0.00  0.00    +0.300 C 
ATOM      6  C   LIG    1        7.701  -0.800  -0.008  0.00  0.00    +0.600 C 
ATOM      7  O   LIG    1        8.334  -0.777  -1.047  0.00  0.00    -0.510 OA
ATOM      8  C   LIG    1        4.452  -0.213  -1.304  0.00  0.00    +0.180 C 
ENDROOT
BRANCH   6   9
ATOM      9  C   LIG    1        8.387  -0.589   1.274  0.00  0.00    -0.040 A 
ATOM     10  C   LIG    1        9.685  -0.216   1.415  0.00  0.00    -0.070 A 
ATOM     11  C   LIG    1        9.928  -0.128   2.854  0.00  0.00    -0.140 A 
ATOM     12  C   LIG    1       11.038   0.201   3.636  0.00  0.00    +0.070 A 
ATOM     13  C   LIG    1       10.935   0.183   4.998  0.00  0.00    -0.010 A 
ATOM     14  C   LIG    1        9.737  -0.159   5.609  0.00  0.00    +0.060 A 
ATOM     15  C   LIG    1        8.630  -0.486   4.856  0.00  0.00    +0.030 A 
ATOM     16  C   LIG    1        8.710  -0.476   3.468  0.00  0.00    +0.060 A 
ATOM     17  C   LIG    1       10.674   0.054   0.310  0.00  0.00    +0.140 C 
ATOM     18  O   LIG    1        7.822  -0.742   2.491  0.00  0.00    -0.180 OA
ENDBRANCH   6   9
BRANCH   1  24
ATOM     19  C   LIG    1        1.223  -0.390  -0.114  0.00  0.00    +0.150 A 
ATOM     20  C   LIG    1        0.047   0.340  -0.154  0.00  0.00    -0.080 A 
ATOM     21  C   LIG    1        0.091   1.720  -0.223  0.00  0.00    +0.050 A 
ATOM     22  C   LIG    1        1.307   2.376  -0.253  0.00  0.00    -0.030 A 
ATOM     23  C   LIG    1        2.486   1.655  -0.213  0.00  0.00    +0.010 A 
ATOM     24  C   LIG    1        2.450   0.270  -0.144  0.00  0.00    +0.050 A 
BRANCH  19  26
ATOM     25  C   LIG    1       -0.112  -2.356  -0.018  0.00  0.00    +0.220 C 
ATOM     26  O   LIG    1        1.181  -1.748  -0.046  0.00  0.00    -0.290 OA
ENDBRANCH  19  26
ENDBRANCH   1  24
TORSDOF 3
