REMARK  Name = ZINCkj000005gZmu.0
REMARK                            x       y       z     vdW  Elec       q    Type
REMARK                         _______ _______ _______ _____ _____    ______ ____
ROOT
ATOM      1  N   LIG    1       -0.945   4.979  -2.838  0.00  0.00    -0.470 N 
ATOM      2  C   LIG    1       -2.167   4.707  -2.300  0.00  0.00    +0.510 A 
ATOM      3  N   LIG    1       -2.025   4.167  -1.124  0.00  0.00    -0.460 NA
ATOM      4  C   LIG    1       -0.706   4.060  -0.834  0.00  0.00    -0.020 A 
ATOM      5  C   LIG    1        0.029   3.570   0.259  0.00  0.00    +0.390 A 
ATOM      6  N   LIG    1        1.356   3.626   0.207  0.00  0.00    -0.550 NA
ATOM      7  C   LIG    1        1.978   4.120  -0.848  0.00  0.00    +0.530 A 
ATOM      8  N   LIG    1        1.331   4.590  -1.894  0.00  0.00    -0.500 NA
ATOM      9  C   LIG    1        0.003   4.580  -1.930  0.00  0.00    +0.280 A 
ENDROOT
BRANCH   5  10
ATOM     10  N   LIG    1       -0.614   3.046   1.367  0.00  0.00    -0.450 N 
ATOM     11  C   LIG    1       -0.129   3.682   2.614  0.00  0.00    +0.240 C 
ATOM     12  C   LIG    1       -0.190   2.560   3.680  0.00  0.00    +0.070 C 
ATOM     13  C   LIG    1        0.235   1.318   2.853  0.00  0.00    +0.150 C 
ATOM     14  C   LIG    1       -0.391   1.592   1.469  0.00  0.00    +0.180 C 
ATOM     15  C   LIG    1        0.565   1.133   0.366  0.00  0.00    +0.050 C 
BRANCH  13  16
ATOM     16  N   LIG    1       -0.315   0.087   3.437  0.00  0.00    -0.380 N 
ATOM     17  C   LIG    1        0.298  -0.147   4.751  0.00  0.00    +0.320 C 
ATOM     18  C   LIG    1       -0.023  -1.048   2.551  0.00  0.00    +0.320 C 
ATOM     19  H   LIG    1       -1.313   0.183   3.544  0.00  0.00    +0.430 HD
ENDBRANCH  13  16
ENDBRANCH   5  10
BRANCH   1  21
ATOM     20  C   LIG    1       -0.452   4.487  -5.182  0.00  0.00    +0.040 C 
ATOM     21  C   LIG    1       -0.690   5.587  -4.146  0.00  0.00    +0.310 C 
ENDBRANCH   1  21
TORSDOF 3
