REMARK  Name = ZINCvU0000000GR2.0
REMARK                            x       y       z     vdW  Elec       q    Type
REMARK                         _______ _______ _______ _____ _____    ______ ____
ROOT
ATOM      1  O   LIG    1        4.945  -0.098   0.871  0.00  0.00    -0.490 OA
ATOM      2  C   LIG    1        5.237  -1.183   1.340  0.00  0.00    +0.610 C 
ATOM      3  N   LIG    1        4.320  -1.887   2.032  0.00  0.00    -0.580 N 
ENDROOT
BRANCH   2   4
ATOM      4  C   LIG    1        6.586  -1.722   1.152  0.00  0.00    -0.080 A 
ATOM      5  C   LIG    1        7.651  -1.058   0.586  0.00  0.00    +0.070 A 
ATOM      6  C   LIG    1        8.736  -1.940   0.608  0.00  0.00    -0.040 A 
ATOM      7  C   LIG    1        8.297  -3.100   1.181  0.00  0.00    +0.070 A 
ATOM      8  O   LIG    1        7.000  -2.959   1.500  0.00  0.00    -0.150 OA
BRANCH   7   9
ATOM      9  C   LIG    1        9.113  -4.310   1.406  0.00  0.00    -0.070 A 
ATOM     10  C   LIG    1        9.891  -4.835   0.372  0.00  0.00    +0.080 A 
ATOM     11  C   LIG    1       10.651  -5.965   0.590  0.00  0.00    +0.010 A 
ATOM     12  C   LIG    1       10.644  -6.581   1.829  0.00  0.00    +0.070 A 
ATOM     13  C   LIG    1        9.880  -6.066   2.861  0.00  0.00    -0.020 A 
ATOM     14  C   LIG    1        9.110  -4.937   2.657  0.00  0.00    +0.130 A 
ATOM     15  F   LIG    1        8.360  -4.437   3.663  0.00  0.00    -0.120 F 
ENDBRANCH   7   9
ENDBRANCH   2   4
BRANCH   3  16
ATOM     16  C   LIG    1        2.925  -1.441   2.064  0.00  0.00    +0.200 C 
ATOM     17  C   LIG    1        2.486  -0.419   1.013  0.00  0.00    +0.050 C 
ATOM     18  C   LIG    1        2.656   0.009   2.473  0.00  0.00    +0.020 C 
ENDBRANCH   3  16
BRANCH   3  19
ATOM     19  C   LIG    1        4.718  -3.100   2.752  0.00  0.00    +0.470 C 
BRANCH  19  20
ATOM     20  C   LIG    1        5.260  -2.724   4.107  0.00  0.00    +0.140 A 
ATOM     21  N   LIG    1        4.601  -2.743   5.232  0.00  0.00    -0.260 NA
ATOM     22  N   LIG    1        5.373  -2.364   6.189  0.00  0.00    -0.270 NA
ATOM     23  C   LIG    1        6.558  -2.080   5.702  0.00  0.00    +0.200 A 
ATOM     24  O   LIG    1        6.508  -2.303   4.374  0.00  0.00    -0.180 OA
BRANCH  23  25
ATOM     25  C   LIG    1        7.730  -1.605   6.468  0.00  0.00    +0.000 A 
ATOM     26  C   LIG    1        7.684  -1.558   7.862  0.00  0.00    +0.090 A 
ATOM     27  C   LIG    1        8.781  -1.113   8.571  0.00  0.00    +0.030 A 
ATOM     28  C   LIG    1        9.925  -0.714   7.903  0.00  0.00    +0.050 A 
ATOM     29  C   LIG    1        9.978  -0.758   6.522  0.00  0.00    +0.050 A 
ATOM     30  C   LIG    1        8.890  -1.207   5.800  0.00  0.00    -0.070 A 
ATOM     31 BR   LIG    1        8.967  -1.274   3.912  0.00  0.00    -0.010 Br
ENDBRANCH  23  25
ENDBRANCH  19  20
ENDBRANCH   3  19
TORSDOF 6
