REMARK  Name = ZINCrg00000J1dl1.0
REMARK                            x       y       z     vdW  Elec       q    Type
REMARK                         _______ _______ _______ _____ _____    ______ ____
ROOT
ATOM      1  C   LIG    1       -6.796   1.524   2.712  0.00  0.00    -0.160 A 
ATOM      2  C   LIG    1       -6.424   0.477   1.864  0.00  0.00    +0.130 A 
ATOM      3  C   LIG    1       -5.184   0.479   1.262  0.00  0.00    -0.010 A 
ATOM      4  C   LIG    1       -4.302   1.527   1.504  0.00  0.00    +0.230 A 
ATOM      5  C   LIG    1       -4.665   2.551   2.368  0.00  0.00    -0.710 A 
ATOM      6  S   LIG    1       -3.459   3.797   2.699  0.00  0.00    +2.630 S 
ATOM      7  N   LIG    1       -2.019   3.103   2.271  0.00  0.00    -0.940 NA
ATOM      8  C   LIG    1       -1.963   2.082   1.458  0.00  0.00    +0.560 C 
ATOM      9  C   LIG    1       -0.621   1.520   1.265  0.00  0.00    +0.110 C 
ATOM     10  C   LIG    1       -0.013   1.086   0.008  0.00  0.00    +0.060 C 
ATOM     11  C   LIG    1       -0.662   1.545  -1.266  0.00  0.00    +0.020 C 
ATOM     12  C   LIG    1       -2.110   1.312  -1.491  0.00  0.00    +0.030 C 
ATOM     13  C   LIG    1       -3.062   0.922  -0.448  0.00  0.00    +0.280 C 
ATOM     14  O   LIG    1       -3.427   3.974   4.108  0.00  0.00    -0.930 OA
ATOM     15  O   LIG    1       -3.697   4.853   1.779  0.00  0.00    -0.950 OA
ATOM     16  N   LIG    1       -3.044   1.541   0.861  0.00  0.00    -0.570 N 
ATOM     17  C   LIG    1       -5.899   2.571   2.962  0.00  0.00    +0.230 A 
ENDROOT
BRANCH   1  19
ATOM     18  O   LIG    1       -8.452   2.437   4.081  0.00  0.00    -0.520 OA
ATOM     19  C   LIG    1       -8.130   1.526   3.344  0.00  0.00    +0.560 C 
ATOM     20  N   LIG    1       -8.991   0.517   3.103  0.00  0.00    -0.710 N 
ATOM     21  H   LIG    1       -8.734  -0.210   2.514  0.00  0.00    +0.400 HD
BRANCH  20  22
ATOM     22  C   LIG    1      -10.315   0.519   3.729  0.00  0.00    +0.270 C 
ATOM     23  C   LIG    1      -11.300  -0.306   2.883  0.00  0.00    +0.070 C 
ATOM     24  C   LIG    1      -12.568  -0.572   3.719  0.00  0.00    -0.300 C 
ATOM     25  S   LIG    1      -12.003  -0.559   5.458  0.00  0.00    +2.400 S 
ATOM     26  O   LIG    1      -12.095  -1.873   5.993  0.00  0.00    -0.930 OA
ATOM     27  O   LIG    1      -12.608   0.530   6.142  0.00  0.00    -0.930 OA
ATOM     28  C   LIG    1      -10.246  -0.163   5.120  0.00  0.00    -0.320 C 
ENDBRANCH  20  22
ENDBRANCH   1  19
TORSDOF 2
