REMARK  Name = ZINCkj000005lBtr.0
REMARK                            x       y       z     vdW  Elec       q    Type
REMARK                         _______ _______ _______ _____ _____    ______ ____
ROOT
ATOM      1  O   LIG    1        0.022   7.966  -0.380  0.00  0.00    -0.510 OA
ATOM      2  C   LIG    1       -0.240   7.365  -1.400  0.00  0.00    +0.530 C 
ATOM      3  N   LIG    1       -0.442   8.041  -2.548  0.00  0.00    -0.630 N 
ATOM      4  C   LIG    1       -0.761   7.440  -3.857  0.00  0.00    +0.260 C 
ATOM      5  C   LIG    1       -1.484   8.566  -4.648  0.00  0.00    +0.080 C 
ATOM      6  C   LIG    1       -0.720   9.812  -4.165  0.00  0.00    -0.100 C 
ATOM      7  C   LIG    1       -1.586  11.072  -4.288  0.00  0.00    +0.100 C 
ATOM      8  C   LIG    1       -0.556  12.149  -4.723  0.00  0.00    +0.270 C 
ATOM      9  N   LIG    1        0.365  11.403  -5.620  0.00  0.00    -0.520 N 
ATOM     10  H   LIG    1       -0.040  11.317  -6.541  0.00  0.00    +0.430 HD
ATOM     11  H   LIG    1        1.256  11.873  -5.673  0.00  0.00    +0.440 HD
ATOM     12  C   LIG    1        0.529  10.063  -5.008  0.00  0.00    +0.290 C 
ATOM     13  C   LIG    1       -0.375   9.505  -2.706  0.00  0.00    +0.290 C 
ENDROOT
BRANCH   2  14
ATOM     14  C   LIG    1       -0.342   5.861  -1.384  0.00  0.00    +0.040 C 
BRANCH  14  15
ATOM     15  C   LIG    1       -0.070   5.347   0.031  0.00  0.00    +0.280 C 
BRANCH  15  16
ATOM     16  C   LIG    1       -0.050   3.840   0.023  0.00  0.00    -0.130 A 
ATOM     17  C   LIG    1        1.156   3.165   0.008  0.00  0.00    +0.010 A 
ATOM     18  C   LIG    1        1.175   1.783   0.000  0.00  0.00    +0.010 A 
ATOM     19  C   LIG    1       -0.013   1.076   0.008  0.00  0.00    +0.020 A 
ATOM     20  C   LIG    1       -1.219   1.751   0.017  0.00  0.00    +0.020 A 
ATOM     21  C   LIG    1       -1.238   3.133   0.030  0.00  0.00    +0.010 A 
ENDBRANCH  15  16
BRANCH  15  22
ATOM     22  O   LIG    1       -1.101   5.805   0.909  0.00  0.00    -0.540 OA
ATOM     23  H   LIG    1       -1.988   5.509   0.663  0.00  0.00    +0.370 HD
ENDBRANCH  15  22
ENDBRANCH  14  15
ENDBRANCH   2  14
TORSDOF 4
