REMARK  Name = ZINCqH0000050H0d.0
REMARK                            x       y       z     vdW  Elec       q    Type
REMARK                         _______ _______ _______ _____ _____    ______ ____
ROOT
ATOM      1  C   LIG    1        1.154   3.174   0.008  0.00  0.00    -0.040 A 
ATOM      2  C   LIG    1        1.174   1.781   0.000  0.00  0.00    +0.030 A 
ATOM      3  C   LIG    1       -0.013   1.076   0.008  0.00  0.00    +0.020 A 
ATOM      4  C   LIG    1       -1.220   1.750   0.017  0.00  0.00    +0.010 A 
ATOM      5  C   LIG    1       -1.246   3.133   0.031  0.00  0.00    -0.120 A 
ATOM      6  C   LIG    1       -0.066   3.848   0.023  0.00  0.00    +0.040 A 
ENDROOT
BRANCH   1  11
ATOM      7  C   LIG    1        4.830   3.983  -0.022  0.00  0.00    +0.170 A 
ATOM      8  C   LIG    1        4.799   5.371  -0.014  0.00  0.00    -0.010 A 
ATOM      9  C   LIG    1        3.590   6.040   0.001  0.00  0.00    +0.050 A 
ATOM     10  C   LIG    1        2.405   5.331   0.008  0.00  0.00    +0.010 A 
ATOM     11  C   LIG    1        2.426   3.937   0.001  0.00  0.00    -0.020 A 
ATOM     12  C   LIG    1        3.644   3.264  -0.009  0.00  0.00    +0.030 A 
BRANCH   7  16
ATOM     13  C   LIG    1        9.698   3.067   0.062  0.00  0.00    +0.120 C 
ATOM     14  C   LIG    1        8.203   2.890  -0.002  0.00  0.00    -0.230 A 
ATOM     15  C   LIG    1        7.281   3.880   0.050  0.00  0.00    +0.230 A 
ATOM     16  N   LIG    1        6.059   3.308  -0.037  0.00  0.00    -0.320 N 
ATOM     17  N   LIG    1        6.238   1.923  -0.139  0.00  0.00    -0.290 NA
ATOM     18  C   LIG    1        7.522   1.674  -0.124  0.00  0.00    +0.250 A 
ENDBRANCH   7  16
ENDBRANCH   1  11
BRANCH   5  19
ATOM     19  C   LIG    1       -2.566   3.860   0.047  0.00  0.00    +0.250 C 
BRANCH  19  20
ATOM     20  O   LIG    1       -3.473   3.181   0.918  0.00  0.00    -0.540 OA
ATOM     21  H   LIG    1       -3.655   2.267   0.662  0.00  0.00    +0.370 HD
ENDBRANCH  19  20
BRANCH  19  22
ATOM     22  C   LIG    1       -3.147   3.894  -1.368  0.00  0.00    +0.290 C 
BRANCH  22  23
ATOM     23  N   LIG    1       -4.369   4.703  -1.374  0.00  0.00    -0.460 N 
ATOM     24  C   LIG    1       -5.643   4.251  -1.160  0.00  0.00    +0.130 A 
ATOM     25  C   LIG    1       -6.457   5.320  -1.252  0.00  0.00    +0.140 A 
ATOM     26  N   LIG    1       -5.701   6.394  -1.524  0.00  0.00    -0.490 NA
ATOM     27  C   LIG    1       -4.449   6.032  -1.598  0.00  0.00    +0.380 A 
ENDBRANCH  22  23
ENDBRANCH  19  22
ENDBRANCH   5  19
TORSDOF 6
