REMARK  Name = ZINCAx0000000bvj.0
REMARK                            x       y       z     vdW  Elec       q    Type
REMARK                         _______ _______ _______ _____ _____    ______ ____
ROOT
ATOM      1  C   LIG    1        2.390   1.097  -0.693  0.00  0.00    +0.110 C 
ATOM      2  C   LIG    1        1.118   1.820  -0.332  0.00  0.00    +0.020 A 
ATOM      3  C   LIG    1       -0.044   1.109  -0.114  0.00  0.00    +0.000 A 
ATOM      4  C   LIG    1       -1.214   1.772   0.212  0.00  0.00    +0.150 A 
ATOM      5  C   LIG    1       -1.225   3.150   0.332  0.00  0.00    -0.690 A 
ATOM      6  C   LIG    1       -0.070   3.874   0.117  0.00  0.00    +0.160 A 
ATOM      7  C   LIG    1        1.113   3.212  -0.218  0.00  0.00    -0.150 A 
ENDROOT
BRANCH   7   8
ATOM      8  C   LIG    1        2.354   3.980  -0.450  0.00  0.00    +0.570 C 
ATOM      9  N   LIG    1        2.748   4.910   0.443  0.00  0.00    -0.600 N 
ATOM     10  C   LIG    1        2.023   5.085   1.709  0.00  0.00    +0.260 C 
ATOM     11  C   LIG    1        3.027   4.944   2.866  0.00  0.00    +0.310 C 
ATOM     12  N   LIG    1        4.186   5.804   2.588  0.00  0.00    -0.990 NA
ATOM     13  C   LIG    1        4.908   5.632   1.320  0.00  0.00    +0.300 C 
ATOM     14  C   LIG    1        3.908   5.769   0.165  0.00  0.00    +0.290 C 
ATOM     15  O   LIG    1        3.018   3.775  -1.447  0.00  0.00    -0.520 OA
BRANCH  12  16
ATOM     16  S   LIG    1        4.670   6.946   3.685  0.00  0.00    +2.690 S 
ATOM     17  O   LIG    1        6.044   7.197   3.423  0.00  0.00    -0.940 OA
ATOM     18  O   LIG    1        4.186   6.518   4.951  0.00  0.00    -0.940 OA
BRANCH  16  19
ATOM     19  C   LIG    1        3.810   8.435   3.301  0.00  0.00    -0.720 A 
ATOM     20  C   LIG    1        2.894   8.954   4.196  0.00  0.00    +0.160 A 
ATOM     21  C   LIG    1        2.223  10.126   3.898  0.00  0.00    -0.010 A 
ATOM     22  C   LIG    1        2.460  10.773   2.700  0.00  0.00    +0.110 A 
ATOM     23  C   LIG    1        3.371  10.253   1.801  0.00  0.00    -0.020 A 
ATOM     24  C   LIG    1        4.048   9.083   2.101  0.00  0.00    +0.190 A 
ATOM     25  F   LIG    1        4.939   8.573   1.223  0.00  0.00    -0.120 F 
ENDBRANCH  16  19
ENDBRANCH  12  16
ENDBRANCH   7   8
BRANCH   5  26
ATOM     26  S   LIG    1       -2.718   3.984   0.754  0.00  0.00    +2.690 S 
ATOM     27  O   LIG    1       -2.336   5.228   1.326  0.00  0.00    -0.950 OA
ATOM     28  O   LIG    1       -3.530   3.035   1.432  0.00  0.00    -0.950 OA
BRANCH  26  29
ATOM     29  N   LIG    1       -3.498   4.341  -0.662  0.00  0.00    -1.110 NA
ATOM     30  H   LIG    1       -3.626   5.265  -0.926  0.00  0.00    +0.420 HD
BRANCH  29  31
ATOM     31  C   LIG    1       -3.995   3.260  -1.517  0.00  0.00    +0.330 C 
BRANCH  31  32
ATOM     32  C   LIG    1       -4.964   3.821  -2.525  0.00  0.00    -0.100 A 
ATOM     33  C   LIG    1       -6.312   3.885  -2.226  0.00  0.00    +0.030 A 
ATOM     34  C   LIG    1       -7.201   4.405  -3.149  0.00  0.00    +0.010 A 
ATOM     35  C   LIG    1       -6.742   4.852  -4.374  0.00  0.00    +0.010 A 
ATOM     36  C   LIG    1       -5.395   4.782  -4.675  0.00  0.00    +0.000 A 
ATOM     37  C   LIG    1       -4.506   4.268  -3.751  0.00  0.00    +0.020 A 
ENDBRANCH  31  32
ENDBRANCH  29  31
ENDBRANCH  26  29
ENDBRANCH   5  26
TORSDOF 7
