REMARK  Name = ZINCb700000010yi.0
REMARK                            x       y       z     vdW  Elec       q    Type
REMARK                         _______ _______ _______ _____ _____    ______ ____
ROOT
ATOM      1  C   LIG    1       -1.106   1.874   0.017  0.00  0.00    -0.050 A 
ATOM      2  C   LIG    1       -0.013   1.076   0.008  0.00  0.00    +0.160 A 
ATOM      3  N   LIG    1        1.058   1.903   0.002  0.00  0.00    -0.250 N 
ATOM      4  N   LIG    1        0.630   3.117   0.012  0.00  0.00    -0.060 NA
ATOM      5  N   LIG    1       -0.656   3.134   0.024  0.00  0.00    -0.260 NA
ENDROOT
BRANCH   3   6
ATOM      6  C   LIG    1        2.463   1.488  -0.013  0.00  0.00    +0.210 C 
ATOM      7  C   LIG    1        2.776   0.038   0.359  0.00  0.00    +0.080 C 
ATOM      8  C   LIG    1        3.120   1.168   1.331  0.00  0.00    +0.080 C 
ENDBRANCH   3   6
BRANCH   1   9
ATOM      9  C   LIG    1       -2.546   1.430   0.021  0.00  0.00    +0.150 C 
BRANCH   9  10
ATOM     10  C   LIG    1       -3.272   2.065   1.209  0.00  0.00    +0.270 C 
BRANCH  10  11
ATOM     11  N   LIG    1       -4.676   1.633   1.213  0.00  0.00    -0.640 N 
ATOM     12  H   LIG    1       -5.154   2.052   1.996  0.00  0.00    +0.440 HD
ATOM     13  H   LIG    1       -4.718   0.628   1.291  0.00  0.00    +0.430 HD
ATOM     14  H   LIG    1       -5.119   1.923   0.354  0.00  0.00    +0.440 HD
ENDBRANCH  10  11
ENDBRANCH   9  10
ENDBRANCH   1   9
TORSDOF 4
