REMARK  Name = ZINCnE000001TAvm.0
REMARK                            x       y       z     vdW  Elec       q    Type
REMARK                         _______ _______ _______ _____ _____    ______ ____
ROOT
ATOM      1  C   LIG    1       -2.813   5.059  -1.214  0.00  0.00    +0.020 A 
ATOM      2  C   LIG    1       -3.765   6.018  -1.251  0.00  0.00    -0.050 A 
ATOM      3  S   LIG    1       -4.083   6.431  -2.880  0.00  0.00    +0.220 S 
ATOM      4  C   LIG    1       -2.888   5.261  -3.428  0.00  0.00    +0.060 A 
ATOM      5  N   LIG    1       -2.355   4.675  -2.398  0.00  0.00    -0.410 NA
ENDROOT
BRANCH   1  11
ATOM      6  C   LIG    1       -1.164   1.442   1.414  0.00  0.00    -0.110 C 
ATOM      7  C   LIG    1       -0.715   0.705   0.150  0.00  0.00    +0.030 C 
ATOM      8  C   LIG    1       -1.494   1.236  -1.055  0.00  0.00    +0.000 C 
ATOM      9  C   LIG    1       -1.196   2.728  -1.234  0.00  0.00    +0.270 C 
ATOM     10  N   LIG    1       -1.489   3.423   0.027  0.00  0.00    -0.590 N 
ATOM     11  C   LIG    1       -2.316   4.487   0.049  0.00  0.00    +0.580 C 
ATOM     12  O   LIG    1       -2.652   4.974   1.111  0.00  0.00    -0.540 OA
ATOM     13  C   LIG    1       -0.862   2.937   1.264  0.00  0.00    +0.300 C 
BRANCH   6  15
ATOM     14  O   LIG    1       -0.183   1.619   3.559  0.00  0.00    -0.700 OA
ATOM     15  C   LIG    1       -0.420   0.897   2.606  0.00  0.00    +0.500 C 
ATOM     16  O   LIG    1       -0.055  -0.267   2.617  0.00  0.00    -0.700 OA
ENDBRANCH   6  15
ENDBRANCH   1  11
BRANCH   4  17
ATOM     17  C   LIG    1       -2.539   4.992  -4.839  0.00  0.00    -0.010 A 
ATOM     18  C   LIG    1       -1.567   4.042  -5.152  0.00  0.00    +0.090 A 
ATOM     19  C   LIG    1       -1.249   3.792  -6.472  0.00  0.00    +0.030 A 
ATOM     20  C   LIG    1       -1.885   4.489  -7.484  0.00  0.00    +0.040 A 
ATOM     21  C   LIG    1       -2.846   5.437  -7.181  0.00  0.00    +0.030 A 
ATOM     22  C   LIG    1       -3.177   5.693  -5.865  0.00  0.00    -0.030 A 
ATOM     23 CL   LIG    1       -4.383   6.882  -5.487  0.00  0.00    -0.030 Cl
ENDBRANCH   4  17
TORSDOF 3
