REMARK  Name = ZINCqH0000008btG.0
REMARK                            x       y       z     vdW  Elec       q    Type
REMARK                         _______ _______ _______ _____ _____    ______ ____
ROOT
ATOM      1  N   LIG    1        1.714   3.079   0.002  0.00  0.00    -0.680 NA
ATOM      2  C   LIG    1        1.317   1.806  -0.001  0.00  0.00    +0.480 A 
ATOM      3  C   LIG    1       -0.016   1.347   0.009  0.00  0.00    -0.110 A 
ATOM      4  C   LIG    1        0.002  -0.004   0.002  0.00  0.00    +0.350 A 
ATOM      5  N   LIG    1        1.298  -0.428  -0.013  0.00  0.00    -0.390 N 
ATOM      6  N   LIG    1        2.129   0.700  -0.015  0.00  0.00    -0.480 N 
ATOM      7  H   LIG    1        3.099   0.700  -0.024  0.00  0.00    +0.450 HD
ENDROOT
BRANCH   1   8
ATOM      8  C   LIG    1        0.813   4.056   0.017  0.00  0.00    +0.500 C 
ATOM      9  O   LIG    1       -0.373   3.790   0.027  0.00  0.00    -0.560 OA
BRANCH   8  10
ATOM     10  C   LIG    1        1.262   5.495   0.020  0.00  0.00    +0.070 C 
BRANCH  10  12
ATOM     11  C   LIG    1       -0.749   6.236  -1.263  0.00  0.00    +0.030 C 
ATOM     12  C   LIG    1        0.037   6.412   0.037  0.00  0.00    +0.050 C 
BRANCH  12  13
ATOM     13  C   LIG    1        0.485   7.845   0.165  0.00  0.00    -0.080 A 
ATOM     14  C   LIG    1        1.309   8.399  -0.797  0.00  0.00    +0.040 A 
ATOM     15  C   LIG    1        1.716   9.715  -0.683  0.00  0.00    -0.020 A 
ATOM     16  C   LIG    1        1.306  10.475   0.399  0.00  0.00    +0.090 A 
ATOM     17  C   LIG    1        0.484   9.918   1.363  0.00  0.00    -0.020 A 
ATOM     18  F   LIG    1        1.707  11.760   0.513  0.00  0.00    -0.140 F 
ATOM     19  C   LIG    1        0.074   8.603   1.245  0.00  0.00    +0.040 A 
ENDBRANCH  12  13
ENDBRANCH  10  12
ENDBRANCH   8  10
ENDBRANCH   1   8
BRANCH   5  20
ATOM     20  C   LIG    1        1.744  -1.823  -0.025  0.00  0.00    +0.350 C 
BRANCH  20  21
ATOM     21  C   LIG    1        1.794  -2.355   1.409  0.00  0.00    +0.080 C 
BRANCH  21  22
ATOM     22  C   LIG    1        2.253  -3.791   1.396  0.00  0.00    -0.050 A 
ATOM     23  C   LIG    1        1.338  -4.828   1.302  0.00  0.00    -0.030 A 
ATOM     24  C   LIG    1        1.796  -6.132   1.289  0.00  0.00    +0.260 A 
ATOM     25  N   LIG    1        3.086  -6.394   1.375  0.00  0.00    -0.480 NA
ATOM     26  C   LIG    1        3.984  -5.433   1.471  0.00  0.00    +0.260 A 
ATOM     27  C   LIG    1        3.600  -4.106   1.485  0.00  0.00    -0.030 A 
ENDBRANCH  21  22
ENDBRANCH  20  21
ENDBRANCH   5  20
TORSDOF 7
