REMARK  Name = ZINCrm000000OVwT.0
REMARK                            x       y       z     vdW  Elec       q    Type
REMARK                         _______ _______ _______ _____ _____    ______ ____
ROOT
ATOM      1  C   LIG    1       -0.014   1.209   0.009  0.00  0.00    +0.510 C 
ATOM      2  N   LIG    1        1.143   1.898   0.001  0.00  0.00    -0.700 N 
ATOM      3  H   LIG    1        1.130   2.868   0.007  0.00  0.00    +0.420 HD
ATOM      4  O   LIG    1        0.002  -0.004   0.002  0.00  0.00    -0.510 OA
ENDROOT
BRANCH   2   5
ATOM      5  C   LIG    1        2.422   1.183  -0.015  0.00  0.00    +0.240 C 
ATOM      6  C   LIG    1        2.825   0.823   1.418  0.00  0.00    +0.050 C 
ATOM      7  C   LIG    1        4.189   0.130   1.400  0.00  0.00    +0.230 C 
ATOM      8  N   LIG    1        5.187   1.027   0.803  0.00  0.00    -0.480 NA
ATOM      9  C   LIG    1        4.846   1.349  -0.589  0.00  0.00    +0.220 C 
ATOM     10  C   LIG    1        3.501   2.078  -0.630  0.00  0.00    +0.060 C 
BRANCH   8  11
ATOM     11  C   LIG    1        6.464   0.481   0.890  0.00  0.00    +0.240 C 
ATOM     12  C   LIG    1        7.243   0.296  -0.252  0.00  0.00    -0.010 C 
ATOM     13  C   LIG    1        8.505  -0.243  -0.122  0.00  0.00    +0.380 C 
ATOM     14  N   LIG    1        8.974  -0.592   1.061  0.00  0.00    -0.470 NA
ATOM     15  C   LIG    1        8.266  -0.438   2.165  0.00  0.00    +0.370 C 
ATOM     16  H   LIG    1        9.864  -0.972   1.122  0.00  0.00    +0.450 HD
ATOM     17  C   LIG    1        6.997   0.099   2.121  0.00  0.00    +0.020 C 
ENDBRANCH   8  11
ENDBRANCH   2   5
BRANCH   1  18
ATOM     18  C   LIG    1       -1.330   1.944   0.019  0.00  0.00    +0.180 C 
BRANCH  18  19
ATOM     19  N   LIG    1       -2.390   1.045   0.493  0.00  0.00    -0.620 N 
ATOM     20  H   LIG    1       -3.271   1.538   0.500  0.00  0.00    +0.440 HD
ATOM     21  H   LIG    1       -2.173   0.732   1.427  0.00  0.00    +0.450 HD
ATOM     22  H   LIG    1       -2.455   0.248  -0.123  0.00  0.00    +0.440 HD
ENDBRANCH  18  19
BRANCH  18  23
ATOM     23  C   LIG    1       -1.659   2.420  -1.398  0.00  0.00    +0.200 C 
BRANCH  23  24
ATOM     24  C   LIG    1       -2.910   3.259  -1.367  0.00  0.00    +0.020 A 
ATOM     25  C   LIG    1       -2.975   4.613  -1.092  0.00  0.00    -0.160 A 
ATOM     26  C   LIG    1       -2.028   5.609  -0.774  0.00  0.00    +0.030 A 
ATOM     27  C   LIG    1       -2.444   6.882  -0.557  0.00  0.00    +0.020 A 
ATOM     28  C   LIG    1       -3.792   7.238  -0.638  0.00  0.00    +0.060 A 
ATOM     29  C   LIG    1       -4.755   6.331  -0.940  0.00  0.00    +0.050 A 
ATOM     30  C   LIG    1       -4.395   4.987  -1.179  0.00  0.00    +0.100 A 
ATOM     31  N   LIG    1       -5.061   3.888  -1.486  0.00  0.00    -0.260 NA
ATOM     32  N   LIG    1       -4.155   2.828  -1.608  0.00  0.00    -0.430 N 
ATOM     33  H   LIG    1       -4.395   1.915  -1.833  0.00  0.00    +0.440 HD
ENDBRANCH  23  24
ENDBRANCH  18  23
ENDBRANCH   1  18
TORSDOF 6
