REMARK  Name = ZINCrD00000724Yi.0
REMARK                            x       y       z     vdW  Elec       q    Type
REMARK                         _______ _______ _______ _____ _____    ______ ____
ROOT
ATOM      1  N   LIG    1       -1.117   7.460   1.848  0.00  0.00    -0.680 N 
ATOM      2  H   LIG    1       -1.628   7.820   2.589  0.00  0.00    +0.410 HD
ATOM      3  C   LIG    1       -0.515   8.293   0.976  0.00  0.00    +0.700 C 
ATOM      4  N   LIG    1       -0.534   9.623   1.193  0.00  0.00    -0.730 N 
ATOM      5  H   LIG    1       -0.980   9.981   1.976  0.00  0.00    +0.400 HD
ATOM      6  O   LIG    1        0.044   7.845  -0.006  0.00  0.00    -0.550 OA
ENDROOT
BRANCH   1  10
ATOM      7  C   LIG    1       -0.778   3.333   1.359  0.00  0.00    +0.120 A 
ATOM      8  C   LIG    1       -1.944   3.876   1.879  0.00  0.00    -0.060 A 
ATOM      9  C   LIG    1       -2.054   5.242   2.046  0.00  0.00    +0.020 A 
ATOM     10  C   LIG    1       -1.003   6.073   1.684  0.00  0.00    +0.130 A 
ATOM     11  C   LIG    1        0.162   5.529   1.158  0.00  0.00    +0.060 A 
ATOM     12  C   LIG    1        0.273   4.162   0.996  0.00  0.00    +0.000 A 
BRANCH   7  13
ATOM     13  O   LIG    1       -0.668   1.987   1.198  0.00  0.00    -0.320 OA
BRANCH  13  15
ATOM     14  C   LIG    1       -1.481  -0.285   1.340  0.00  0.00    +0.070 C 
ATOM     15  C   LIG    1       -1.789   1.193   1.593  0.00  0.00    +0.170 C 
ENDBRANCH  13  15
ENDBRANCH   7  13
ENDBRANCH   1  10
BRANCH   4  16
ATOM     16  C   LIG    1        0.119  10.529   0.245  0.00  0.00    +0.260 C 
ATOM     17  C   LIG    1       -0.520  11.936   0.312  0.00  0.00    +0.060 C 
ATOM     18  C   LIG    1        0.405  12.655   1.318  0.00  0.00    +0.260 C 
ATOM     19  N   LIG    1        1.694  11.957   1.233  0.00  0.00    -0.610 N 
ATOM     20  C   LIG    1        1.562  10.758   0.640  0.00  0.00    +0.510 C 
ATOM     21  O   LIG    1        2.467   9.974   0.449  0.00  0.00    -0.500 OA
BRANCH  19  22
ATOM     22  C   LIG    1        2.961  12.498   1.731  0.00  0.00    +0.350 C 
BRANCH  22  23
ATOM     23  C   LIG    1        3.154  12.084   3.167  0.00  0.00    -0.120 A 
ATOM     24  C   LIG    1        2.683  12.888   4.188  0.00  0.00    +0.020 A 
ATOM     25  C   LIG    1        2.856  12.505   5.505  0.00  0.00    -0.010 A 
ATOM     26  C   LIG    1        3.510  11.324   5.801  0.00  0.00    -0.080 A 
ATOM     27  C   LIG    1        3.986  10.523   4.781  0.00  0.00    +0.000 A 
ATOM     28  C   LIG    1        3.704  10.910   7.237  0.00  0.00    +0.090 C 
ATOM     29  C   LIG    1        3.808  10.903   3.464  0.00  0.00    +0.030 A 
ENDBRANCH  22  23
ENDBRANCH  19  22
ENDBRANCH   4  16
TORSDOF 6
