REMARK  Name = ZINCrD0000073mZZ.0
REMARK                            x       y       z     vdW  Elec       q    Type
REMARK                         _______ _______ _______ _____ _____    ______ ____
ROOT
ATOM      1  C   LIG    1       -8.508   2.717   0.057  0.00  0.00    +0.570 C 
ATOM      2  N   LIG    1       -7.299   2.122   0.048  0.00  0.00    -0.720 N 
ATOM      3  H   LIG    1       -7.235   1.154   0.043  0.00  0.00    +0.410 HD
ATOM      4  O   LIG    1       -8.588   3.931   0.064  0.00  0.00    -0.520 OA
ENDROOT
BRANCH   1   8
ATOM      5  C   LIG    1      -12.037   0.356   0.062  0.00  0.00    +0.220 A 
ATOM      6  C   LIG    1      -10.792  -0.260   0.052  0.00  0.00    -0.060 A 
ATOM      7  C   LIG    1       -9.645   0.503   0.050  0.00  0.00    +0.160 A 
ATOM      8  C   LIG    1       -9.735   1.897   0.058  0.00  0.00    -0.180 A 
ATOM      9  C   LIG    1      -10.989   2.512   0.073  0.00  0.00    +0.220 A 
ATOM     10  C   LIG    1      -12.131   1.743   0.071  0.00  0.00    -0.090 A 
BRANCH  10  11
ATOM     11  N   LIG    1      -13.460   2.394   0.082  0.00  0.00    +0.030 N 
ATOM     12  O   LIG    1      -14.471   1.715   0.083  0.00  0.00    -0.130 OA
ATOM     13  O   LIG    1      -13.543   3.610   0.089  0.00  0.00    -0.170 OA
ENDBRANCH  10  11
BRANCH   5  15
ATOM     14  C   LIG    1      -12.997  -1.817   0.056  0.00  0.00    +0.270 C 
ATOM     15  O   LIG    1      -13.165  -0.398   0.064  0.00  0.00    -0.270 OA
ENDBRANCH   5  15
ENDBRANCH   1   8
BRANCH   2  16
ATOM     16  C   LIG    1       -6.081   2.937   0.047  0.00  0.00    +0.370 C 
BRANCH  16  17
ATOM     17  C   LIG    1       -4.873   2.035   0.036  0.00  0.00    +0.470 C 
ATOM     18  O   LIG    1       -5.016   0.835   0.030  0.00  0.00    -0.500 OA
BRANCH  17  19
ATOM     19  O   LIG    1       -3.640   2.565   0.033  0.00  0.00    -0.350 OA
BRANCH  19  20
ATOM     20  C   LIG    1       -2.524   1.636   0.023  0.00  0.00    +0.310 C 
BRANCH  20  21
ATOM     21  C   LIG    1       -1.229   2.407   0.021  0.00  0.00    -0.080 A 
ATOM     22  C   LIG    1       -1.248   3.789   0.034  0.00  0.00    +0.080 A 
ATOM     23  C   LIG    1       -0.061   4.497   0.027  0.00  0.00    +0.050 A 
ATOM     24  C   LIG    1        1.147   3.823   0.012  0.00  0.00    -0.020 A 
ATOM     25  C   LIG    1        1.167   2.440   0.004  0.00  0.00    +0.050 A 
ATOM     26 CL   LIG    1        2.638   4.712   0.003  0.00  0.00    -0.050 Cl
ATOM     27  C   LIG    1       -0.021   1.732   0.012  0.00  0.00    -0.020 A 
ATOM     28 CL   LIG    1        0.002  -0.004   0.002  0.00  0.00    -0.050 Cl
ENDBRANCH  20  21
ENDBRANCH  19  20
ENDBRANCH  17  19
ENDBRANCH  16  17
ENDBRANCH   2  16
TORSDOF 8
