REMARK  Name = ZINCtj0000003TJn.0
REMARK                            x       y       z     vdW  Elec       q    Type
REMARK                         _______ _______ _______ _____ _____    ______ ____
ROOT
ATOM      1  N   LIG    1        0.999  -1.667  -3.131  0.00  0.00    -0.680 N 
ATOM      2  H   LIG    1        1.908  -1.345  -3.239  0.00  0.00    +0.410 HD
ATOM      3  C   LIG    1        0.286  -1.319  -2.042  0.00  0.00    +0.710 C 
ATOM      4  N   LIG    1        0.791  -0.432  -1.161  0.00  0.00    -0.620 N 
ATOM      5  C   LIG    1        2.160   0.079  -1.314  0.00  0.00    +0.260 C 
ATOM      6  C   LIG    1        2.118   1.610  -1.313  0.00  0.00    +0.030 C 
ATOM      7  C   LIG    1        1.403   2.096  -0.050  0.00  0.00    +0.040 C 
ATOM      8  C   LIG    1       -0.035   1.573  -0.042  0.00  0.00    -0.030 C 
ATOM      9  C   LIG    1       -0.017   0.041  -0.029  0.00  0.00    +0.290 C 
ATOM     10  O   LIG    1       -0.813  -1.805  -1.853  0.00  0.00    -0.570 OA
ENDROOT
BRANCH   1  16
ATOM     11  C   LIG    1        1.220  -3.414  -4.797  0.00  0.00    -0.130 A 
ATOM     12  C   LIG    1        0.648  -4.230  -5.762  0.00  0.00    +0.010 A 
ATOM     13  C   LIG    1       -0.703  -4.130  -6.038  0.00  0.00    +0.020 A 
ATOM     14  C   LIG    1       -1.487  -3.219  -5.356  0.00  0.00    +0.030 A 
ATOM     15  C   LIG    1       -0.926  -2.406  -4.388  0.00  0.00    +0.040 A 
ATOM     16  C   LIG    1        0.428  -2.494  -4.108  0.00  0.00    +0.180 A 
BRANCH  11  17
ATOM     17  S   LIG    1        2.942  -3.538  -4.442  0.00  0.00    -0.040 S 
BRANCH  17  18
ATOM     18  C   LIG    1        3.499  -4.840  -5.575  0.00  0.00    +0.090 C 
BRANCH  18  22
ATOM     19  N   LIG    1        5.614  -5.996  -6.132  0.00  0.00    -0.850 N 
ATOM     20  H   LIG    1        6.565  -6.143  -6.013  0.00  0.00    +0.410 HD
ATOM     21  H   LIG    1        5.120  -6.518  -6.784  0.00  0.00    +0.410 HD
ATOM     22  C   LIG    1        4.977  -5.068  -5.391  0.00  0.00    +0.540 C 
ATOM     23  O   LIG    1        5.594  -4.415  -4.575  0.00  0.00    -0.520 OA
ENDBRANCH  18  22
ENDBRANCH  17  18
ENDBRANCH  11  17
ENDBRANCH   1  16
BRANCH   8  24
ATOM     24  C   LIG    1       -0.758   2.086   1.204  0.00  0.00    +0.290 C 
BRANCH  24  25
ATOM     25  N   LIG    1       -2.166   1.682   1.153  0.00  0.00    -0.700 N 
ATOM     26  H   LIG    1       -2.496   1.167   0.400  0.00  0.00    +0.410 HD
ATOM     27  C   LIG    1       -3.002   2.026   2.153  0.00  0.00    +0.510 C 
ATOM     28  O   LIG    1       -2.590   2.669   3.095  0.00  0.00    -0.520 OA
BRANCH  27  29
ATOM     29  C   LIG    1       -4.450   1.610   2.101  0.00  0.00    +0.180 C 
ATOM     30  C   LIG    1       -5.248   2.555   1.178  0.00  0.00    +0.080 C 
ATOM     31  C   LIG    1       -6.621   2.719   1.863  0.00  0.00    +0.070 C 
ATOM     32  C   LIG    1       -6.536   1.859   3.142  0.00  0.00    +0.280 C 
ATOM     33  N   LIG    1       -5.082   1.767   3.436  0.00  0.00    -0.510 N 
ATOM     34  H   LIG    1       -4.758   2.612   3.882  0.00  0.00    +0.440 HD
ATOM     35  H   LIG    1       -4.889   0.964   4.015  0.00  0.00    +0.440 HD
ENDBRANCH  27  29
ENDBRANCH  24  25
ENDBRANCH   8  24
TORSDOF 7
