REMARK  Name = ZINCtV00000tROL1.0
REMARK                            x       y       z     vdW  Elec       q    Type
REMARK                         _______ _______ _______ _____ _____    ______ ____
ROOT
ATOM      1  C   LIG    1        1.728   3.252   0.003  0.00  0.00    +0.320 C 
ATOM      2  C   LIG    1        2.170   3.682  -1.410  0.00  0.00    +0.100 C 
ATOM      3  C   LIG    1        3.634   4.034  -1.239  0.00  0.00    +0.110 C 
ATOM      4  N   LIG    1        3.979   3.856  -0.010  0.00  0.00    -0.220 NA
ATOM      5  N   LIG    1        2.949   3.401   0.810  0.00  0.00    -0.460 N 
ENDROOT
BRANCH   3   6
ATOM      6  C   LIG    1        4.526   4.508  -2.313  0.00  0.00    -0.030 A 
ATOM      7  C   LIG    1        4.039   4.657  -3.614  0.00  0.00    +0.040 A 
ATOM      8  C   LIG    1        4.878   5.106  -4.613  0.00  0.00    +0.010 A 
ATOM      9  C   LIG    1        6.201   5.398  -4.331  0.00  0.00    +0.020 A 
ATOM     10  C   LIG    1        6.691   5.248  -3.046  0.00  0.00    +0.010 A 
ATOM     11  C   LIG    1        5.862   4.805  -2.036  0.00  0.00    +0.050 A 
ENDBRANCH   3   6
BRANCH   5  12
ATOM     12  C   LIG    1        3.057   3.130   2.175  0.00  0.00    +0.230 A 
ATOM     13  C   LIG    1        1.950   2.683   2.886  0.00  0.00    -0.050 A 
ATOM     14  C   LIG    1        2.063   2.409   4.235  0.00  0.00    +0.040 A 
ATOM     15  C   LIG    1        3.272   2.592   4.881  0.00  0.00    -0.040 A 
ATOM     16  C   LIG    1        4.375   3.042   4.177  0.00  0.00    +0.050 A 
ATOM     17  C   LIG    1        4.271   3.311   2.827  0.00  0.00    -0.030 A 
ENDBRANCH   5  12
BRANCH   1  21
ATOM     18  C   LIG    1        1.309  -0.378  -0.013  0.00  0.00    +0.030 A 
ATOM     19  C   LIG    1        0.002  -0.004   0.002  0.00  0.00    -0.020 A 
ATOM     20  C   LIG    1       -0.017   1.405   0.010  0.00  0.00    -0.030 A 
ATOM     21  C   LIG    1        1.266   1.817  -0.000  0.00  0.00    -0.020 A 
ATOM     22  O   LIG    1        2.064   0.737  -0.014  0.00  0.00    -0.150 OA
BRANCH  18  27
ATOM     23 CL   LIG    1        3.352  -6.002  -0.061  0.00  0.00    -0.060 Cl
ATOM     24  C   LIG    1        2.760  -4.370  -0.047  0.00  0.00    -0.030 A 
ATOM     25  C   LIG    1        3.653  -3.312  -0.050  0.00  0.00    +0.030 A 
ATOM     26  C   LIG    1        3.188  -2.013  -0.039  0.00  0.00    +0.050 A 
ATOM     27  C   LIG    1        1.814  -1.767  -0.024  0.00  0.00    -0.010 A 
ATOM     28  C   LIG    1        0.918  -2.838  -0.015  0.00  0.00    +0.060 A 
ATOM     29  C   LIG    1        1.395  -4.132  -0.033  0.00  0.00    +0.030 A 
ENDBRANCH  18  27
ENDBRANCH   1  21
TORSDOF 4
