REMARK  Name = ZINCrD00000F5Lnz.0
REMARK                            x       y       z     vdW  Elec       q    Type
REMARK                         _______ _______ _______ _____ _____    ______ ____
ROOT
ATOM      1  C   LIG    1        1.280   1.980   0.001  0.00  0.00    +0.190 C 
ATOM      2  C   LIG    1        1.419   2.757   1.311  0.00  0.00    +0.040 C 
ENDROOT
BRANCH   1   5
ATOM      3  N   LIG    1       -1.191   1.867   0.018  0.00  0.00    -0.720 N 
ATOM      4  H   LIG    1       -1.204   2.837   0.023  0.00  0.00    +0.400 HD
ATOM      5  C   LIG    1       -0.014   1.209   0.009  0.00  0.00    +0.520 C 
ATOM      6  O   LIG    1        0.002  -0.004   0.002  0.00  0.00    -0.520 OA
BRANCH   3   7
ATOM      7  C   LIG    1       -2.449   1.117   0.020  0.00  0.00    +0.330 C 
BRANCH   7  13
ATOM      8  C   LIG    1       -4.010   2.696  -1.146  0.00  0.00    +0.140 A 
ATOM      9  C   LIG    1       -5.081   3.577  -1.134  0.00  0.00    -0.080 A 
ATOM     10  C   LIG    1       -5.736   3.850   0.051  0.00  0.00    +0.060 A 
ATOM     11  C   LIG    1       -5.330   3.241   1.223  0.00  0.00    -0.030 A 
ATOM     12  C   LIG    1       -4.266   2.356   1.213  0.00  0.00    +0.070 A 
ATOM     13  C   LIG    1       -3.608   2.080   0.030  0.00  0.00    -0.150 A 
BRANCH   8  15
ATOM     14  C   LIG    1       -3.829   3.099  -3.482  0.00  0.00    +0.250 C 
ATOM     15  O   LIG    1       -3.360   2.430  -2.310  0.00  0.00    -0.310 OA
ENDBRANCH   8  15
ENDBRANCH   7  13
ENDBRANCH   3   7
ENDBRANCH   1   5
BRANCH   1  16
ATOM     16  O   LIG    1        2.375   1.071  -0.132  0.00  0.00    -0.210 OA
BRANCH  16  17
ATOM     17  N   LIG    1        3.538   1.649  -0.698  0.00  0.00    -0.340 NA
ATOM     18  C   LIG    1        4.599   0.929  -0.871  0.00  0.00    +0.290 C 
BRANCH  18  19
ATOM     19  C   LIG    1        5.810   1.531  -1.461  0.00  0.00    -0.090 A 
ATOM     20  C   LIG    1        5.811   2.876  -1.838  0.00  0.00    +0.100 A 
ATOM     21  C   LIG    1        6.946   3.435  -2.385  0.00  0.00    -0.060 A 
ATOM     22  C   LIG    1        8.084   2.661  -2.570  0.00  0.00    +0.120 A 
ATOM     23  C   LIG    1        8.086   1.321  -2.200  0.00  0.00    +0.000 A 
ATOM     24  C   LIG    1        6.957   0.756  -1.649  0.00  0.00    +0.090 A 
BRANCH  22  25
ATOM     25  O   LIG    1        9.199   3.214  -3.114  0.00  0.00    -0.320 OA
BRANCH  25  26
ATOM     26  C   LIG    1        9.129   4.596  -3.471  0.00  0.00    +0.600 C 
ATOM     27  F   LIG    1        8.848   5.358  -2.332  0.00  0.00    -0.200 F 
ATOM     28  F   LIG    1        8.116   4.782  -4.418  0.00  0.00    -0.200 F 
ENDBRANCH  25  26
ENDBRANCH  22  25
ENDBRANCH  18  19
ENDBRANCH  16  17
ENDBRANCH   1  16
TORSDOF 9
