REMARK  Name = ZINCvU0000000DPE.0
REMARK                            x       y       z     vdW  Elec       q    Type
REMARK                         _______ _______ _______ _____ _____    ______ ____
ROOT
ATOM      1  N   LIG    1        3.457   1.756  -0.869  0.00  0.00    -0.590 N 
ATOM      2  C   LIG    1        4.504   2.120  -0.100  0.00  0.00    +0.570 C 
ATOM      3  C   LIG    1        4.289   1.679   1.289  0.00  0.00    +0.090 A 
ATOM      4  C   LIG    1        3.088   1.032   1.353  0.00  0.00    -0.250 A 
ATOM      5  C   LIG    1        2.600   0.466   2.614  0.00  0.00    +0.460 A 
ATOM      6  C   LIG    1        3.615   0.465   3.698  0.00  0.00    -0.200 A 
ATOM      7  C   LIG    1        3.376  -0.218   4.889  0.00  0.00    +0.140 A 
ATOM      8  C   LIG    1        4.333  -0.213   5.881  0.00  0.00    -0.060 A 
ATOM      9  C   LIG    1        5.528   0.469   5.692  0.00  0.00    +0.120 A 
ATOM     10  C   LIG    1        5.773   1.149   4.520  0.00  0.00    +0.040 A 
ATOM     11 CL   LIG    1        4.045  -1.060   7.369  0.00  0.00    -0.050 Cl
ATOM     12  C   LIG    1        4.820   1.162   3.503  0.00  0.00    +0.150 A 
ATOM     13  O   LIG    1        1.469   0.036   2.760  0.00  0.00    -0.430 OA
ATOM     14  O   LIG    1        5.083   1.845   2.365  0.00  0.00    -0.180 OA
ATOM     15  O   LIG    1        5.481   2.723  -0.496  0.00  0.00    -0.480 OA
ATOM     16  C   LIG    1        2.489   1.048  -0.016  0.00  0.00    +0.350 C 
ENDROOT
BRANCH  16  17
ATOM     17  C   LIG    1        1.174   1.783   0.000  0.00  0.00    -0.090 A 
ATOM     18  C   LIG    1        1.156   3.166   0.007  0.00  0.00    +0.030 A 
ATOM     19  C   LIG    1       -0.049   3.844   0.022  0.00  0.00    +0.030 A 
ATOM     20  C   LIG    1       -1.238   3.141   0.029  0.00  0.00    +0.000 A 
ATOM     21  C   LIG    1       -1.223   1.754   0.017  0.00  0.00    +0.100 A 
ATOM     22  C   LIG    1       -0.013   1.076   0.008  0.00  0.00    +0.020 A 
BRANCH  21  23
ATOM     23  O   LIG    1       -2.391   1.060   0.019  0.00  0.00    -0.500 OA
ATOM     24  H   LIG    1       -2.725   0.854   0.903  0.00  0.00    +0.390 HD
ENDBRANCH  21  23
ENDBRANCH  16  17
BRANCH   1  25
ATOM     25  C   LIG    1        3.310   2.019  -2.303  0.00  0.00    +0.380 C 
BRANCH  25  30
ATOM     26  C   LIG    1        0.645   7.090  -3.068  0.00  0.00    +0.090 C 
ATOM     27  C   LIG    1        1.340   5.767  -2.868  0.00  0.00    -0.070 A 
ATOM     28  C   LIG    1        2.719   5.717  -2.784  0.00  0.00    -0.010 A 
ATOM     29  C   LIG    1        3.356   4.504  -2.600  0.00  0.00    +0.040 A 
ATOM     30  C   LIG    1        2.615   3.342  -2.502  0.00  0.00    -0.130 A 
ATOM     31  C   LIG    1        1.236   3.391  -2.592  0.00  0.00    +0.040 A 
ATOM     32  C   LIG    1        0.599   4.605  -2.769  0.00  0.00    +0.000 A 
ENDBRANCH  25  30
ENDBRANCH   1  25
TORSDOF 4
