REMARK  Name = ZINCqH00000018fk.0
REMARK                            x       y       z     vdW  Elec       q    Type
REMARK                         _______ _______ _______ _____ _____    ______ ____
ROOT
ATOM      1  C   LIG    1        4.775   2.252   2.458  0.00  0.00    +0.080 C 
ATOM      2  C   LIG    1        5.269   1.647   1.142  0.00  0.00    +0.050 C 
ATOM      3  C   LIG    1        4.752   0.214   1.013  0.00  0.00    +0.090 C 
ENDROOT
BRANCH   2   4
ATOM      4  C   LIG    1        6.776   1.641   1.127  0.00  0.00    +0.190 A 
ATOM      5  N   LIG    1        7.560   1.032   1.983  0.00  0.00    -0.450 NA
ATOM      6  C   LIG    1        8.821   1.301   1.575  0.00  0.00    +0.250 A 
ATOM      7  N   LIG    1        8.730   2.057   0.511  0.00  0.00    -0.360 NA
ATOM      8  O   LIG    1        7.565   2.260   0.243  0.00  0.00    +0.090 OA
BRANCH   6   9
ATOM      9  C   LIG    1       10.073   0.832   2.218  0.00  0.00    +0.150 A 
ATOM     10  N   LIG    1       10.156   0.071   3.289  0.00  0.00    -0.240 NA
ATOM     11  N   LIG    1       11.512  -0.141   3.568  0.00  0.00    -0.460 N 
ATOM     12  H   LIG    1       11.867  -0.666   4.303  0.00  0.00    +0.440 HD
ATOM     13  C   LIG    1       12.241   0.513   2.638  0.00  0.00    +0.130 A 
ATOM     14  C   LIG    1       11.383   1.118   1.787  0.00  0.00    -0.070 A 
BRANCH  13  15
ATOM     15  C   LIG    1       13.745   0.554   2.558  0.00  0.00    +0.040 C 
ATOM     16  C   LIG    1       14.510  -0.693   3.005  0.00  0.00    +0.040 C 
ATOM     17  C   LIG    1       14.522   0.564   3.876  0.00  0.00    +0.040 C 
ENDBRANCH  13  15
ENDBRANCH   6   9
ENDBRANCH   2   4
BRANCH   2  18
ATOM     18  C   LIG    1        4.752   2.484  -0.030  0.00  0.00    +0.170 C 
BRANCH  18  19
ATOM     19  C   LIG    1        3.245   2.491  -0.016  0.00  0.00    +0.290 A 
ATOM     20  N   LIG    1        2.495   1.428  -0.014  0.00  0.00    -0.480 NA
ATOM     21  C   LIG    1        1.187   1.792   0.000  0.00  0.00    +0.050 A 
ATOM     22  C   LIG    1       -0.013   1.076   0.008  0.00  0.00    +0.070 A 
ATOM     23  C   LIG    1       -1.204   1.744   0.017  0.00  0.00    +0.000 A 
ATOM     24  C   LIG    1       -1.238   3.131   0.030  0.00  0.00    +0.030 A 
ATOM     25  C   LIG    1       -0.067   3.858   0.023  0.00  0.00    +0.010 A 
ATOM     26  C   LIG    1        1.153   3.197   0.008  0.00  0.00    +0.050 A 
ATOM     27  N   LIG    1        2.471   3.609  -0.002  0.00  0.00    -0.600 N 
ATOM     28  H   LIG    1        2.786   4.527  -0.001  0.00  0.00    +0.420 HD
ENDBRANCH  18  19
ENDBRANCH   2  18
TORSDOF 5
