REMARK  Name = ZINCrD000000Abud.0
REMARK                            x       y       z     vdW  Elec       q    Type
REMARK                         _______ _______ _______ _____ _____    ______ ____
ROOT
ATOM      1  O   LIG    1       -5.741   6.312   0.182  0.00  0.00    -0.520 OA
ATOM      2  C   LIG    1       -5.280   7.431   0.094  0.00  0.00    +0.520 C 
ATOM      3  N   LIG    1       -3.944   7.611   0.081  0.00  0.00    -0.670 N 
ATOM      4  H   LIG    1       -3.575   8.508   0.088  0.00  0.00    +0.420 HD
ENDROOT
BRANCH   3   5
ATOM      5  C   LIG    1       -3.089   6.502   0.058  0.00  0.00    +0.090 A 
ATOM      6  C   LIG    1       -3.466   5.334  -0.602  0.00  0.00    +0.110 A 
ATOM      7  C   LIG    1       -2.589   4.264  -0.600  0.00  0.00    -0.010 A 
ATOM      8  C   LIG    1       -1.370   4.388   0.055  0.00  0.00    +0.330 A 
ATOM      9  N   LIG    1       -1.047   5.511   0.676  0.00  0.00    -0.480 NA
ATOM     10  C   LIG    1       -1.855   6.552   0.691  0.00  0.00    +0.280 A 
BRANCH   8  11
ATOM     11  N   LIG    1       -0.476   3.311   0.064  0.00  0.00    -0.410 N 
ATOM     12  C   LIG    1        0.712   3.243   0.746  0.00  0.00    +0.150 A 
ATOM     13  C   LIG    1        1.248   2.038   0.473  0.00  0.00    +0.150 A 
ATOM     14  N   LIG    1        0.412   1.382  -0.345  0.00  0.00    -0.480 NA
ATOM     15  C   LIG    1       -0.624   2.134  -0.598  0.00  0.00    +0.400 A 
ENDBRANCH   8  11
ENDBRANCH   3   5
BRANCH   2  16
ATOM     16  C   LIG    1       -6.201   8.620  -0.000  0.00  0.00    +0.090 C 
BRANCH  16  17
ATOM     17  C   LIG    1       -7.654   8.144   0.036  0.00  0.00    +0.070 C 
BRANCH  17  18
ATOM     18  C   LIG    1       -8.575   9.333  -0.059  0.00  0.00    +0.400 C 
ATOM     19  O   LIG    1       -8.115  10.451  -0.146  0.00  0.00    -0.450 OA
BRANCH  18  20
ATOM     20  C   LIG    1      -10.034   9.137  -0.044  0.00  0.00    -0.170 A 
ATOM     21  C   LIG    1      -10.570   7.849   0.056  0.00  0.00    +0.070 A 
ATOM     22  C   LIG    1      -11.937   7.677   0.069  0.00  0.00    +0.010 A 
ATOM     23  C   LIG    1      -12.784   8.771  -0.018  0.00  0.00    -0.060 A 
ATOM     24  C   LIG    1      -14.297   8.838  -0.024  0.00  0.00    +0.080 C 
ATOM     25  C   LIG    1      -14.637  10.238  -0.577  0.00  0.00    +0.030 C 
ATOM     26  C   LIG    1      -13.386  11.058  -0.198  0.00  0.00    +0.080 C 
ATOM     27  C   LIG    1      -12.260  10.049  -0.118  0.00  0.00    -0.110 A 
ATOM     28  C   LIG    1      -10.892  10.237  -0.126  0.00  0.00    +0.080 A 
ENDBRANCH  18  20
ENDBRANCH  17  18
ENDBRANCH  16  17
ENDBRANCH   2  16
TORSDOF 6
