REMARK  Name = ZINCah0000001xHO.1
REMARK                            x       y       z     vdW  Elec       q    Type
REMARK                         _______ _______ _______ _____ _____    ______ ____
ROOT
ATOM      1  C   LIG    1       -0.018   1.503   0.010  0.00  0.00    +0.140 A 
ATOM      2  C   LIG    1       -1.229   2.169   0.020  0.00  0.00    -0.040 A 
ATOM      3  C   LIG    1       -1.237   3.556   0.032  0.00  0.00    +0.060 A 
ATOM      4  C   LIG    1       -0.021   4.223   0.024  0.00  0.00    -0.030 A 
ATOM      5  C   LIG    1        1.150   3.488   0.009  0.00  0.00    +0.260 A 
ATOM      6  N   LIG    1        1.119   2.170   0.003  0.00  0.00    -0.470 NA
ENDROOT
BRANCH   1   7
ATOM      7  C   LIG    1        0.002  -0.004   0.002  0.00  0.00    +0.240 C 
BRANCH   7   9
ATOM      8  C   LIG    1        0.377  -1.930  -1.417  0.00  0.00    +0.190 C 
ATOM      9  N   LIG    1        0.116  -0.485  -1.381  0.00  0.00    -0.540 NA
ATOM     10  C   LIG    1       -1.085  -0.147  -2.157  0.00  0.00    +0.190 C 
ENDBRANCH   7   9
ENDBRANCH   1   7
TORSDOF 2
