REMARK  Name = ZINCrD0000075vG1.0
REMARK                            x       y       z     vdW  Elec       q    Type
REMARK                         _______ _______ _______ _____ _____    ______ ____
ROOT
ATOM      1  O   LIG    1       -2.208   0.015   0.023  0.00  0.00    -0.460 OA
ATOM      2  C   LIG    1       -1.185  -0.630   0.010  0.00  0.00    +0.460 C 
ENDROOT
BRANCH   2   3
ATOM      3  O   LIG    1        0.002  -0.004   0.002  0.00  0.00    -0.360 OA
BRANCH   3   4
ATOM      4  C   LIG    1       -0.018   1.448   0.010  0.00  0.00    +0.330 C 
BRANCH   4   5
ATOM      5  C   LIG    1        1.396   1.969  -0.001  0.00  0.00    +0.060 A 
ATOM      6  C   LIG    1        2.455   1.152  -0.010  0.00  0.00    -0.030 A 
ATOM      7  S   LIG    1        3.914   2.140  -0.024  0.00  0.00    +0.100 S 
ATOM      8  C   LIG    1        2.922   3.596  -0.006  0.00  0.00    +0.120 A 
ATOM      9  N   LIG    1        1.665   3.255   0.004  0.00  0.00    -0.460 NA
BRANCH   8  10
ATOM     10  C   LIG    1        3.434   4.984  -0.004  0.00  0.00    -0.030 A 
ATOM     11  C   LIG    1        2.544   6.059   0.005  0.00  0.00    +0.070 A 
ATOM     12  C   LIG    1        3.029   7.351   0.013  0.00  0.00    +0.010 A 
ATOM     13  C   LIG    1        4.393   7.582   0.001  0.00  0.00    +0.030 A 
ATOM     14  C   LIG    1        5.280   6.520  -0.013  0.00  0.00    +0.010 A 
ATOM     15  C   LIG    1        4.809   5.223  -0.015  0.00  0.00    +0.030 A 
ENDBRANCH   8  10
ENDBRANCH   4   5
ENDBRANCH   3   4
ENDBRANCH   2   3
BRANCH   2  16
ATOM     16  C   LIG    1       -1.244  -2.135   0.003  0.00  0.00    +0.230 C 
BRANCH  16  17
ATOM     17  C   LIG    1       -2.683  -2.582   0.014  0.00  0.00    +0.110 A 
ATOM     18  N   LIG    1       -3.637  -1.700   0.028  0.00  0.00    -0.170 NA
ATOM     19  N   LIG    1       -4.988  -2.051   0.038  0.00  0.00    -0.530 N 
ATOM     20  H   LIG    1       -5.657  -1.349   0.049  0.00  0.00    +0.440 HD
ATOM     21  C   LIG    1       -5.387  -3.340   0.035  0.00  0.00    +0.530 A 
ATOM     22  C   LIG    1       -4.366  -4.395   0.019  0.00  0.00    -0.130 A 
ATOM     23  C   LIG    1       -4.703  -5.747   0.014  0.00  0.00    +0.090 A 
ATOM     24  C   LIG    1       -3.705  -6.696  -0.017  0.00  0.00    +0.030 A 
ATOM     25  C   LIG    1       -2.368  -6.319  -0.027  0.00  0.00    +0.050 A 
ATOM     26  C   LIG    1       -2.011  -4.989  -0.018  0.00  0.00    +0.040 A 
ATOM     27  O   LIG    1       -6.572  -3.622   0.044  0.00  0.00    -0.520 OA
ATOM     28  C   LIG    1       -3.006  -4.009   0.003  0.00  0.00    -0.050 A 
ENDBRANCH  16  17
ENDBRANCH   2  16
TORSDOF 6
