REMARK  Name = ZINCqH0000037cDI.0
REMARK                            x       y       z     vdW  Elec       q    Type
REMARK                         _______ _______ _______ _____ _____    ______ ____
ROOT
ATOM      1  N   LIG    1        2.323   0.998  -0.015  0.00  0.00    -0.730 N 
ATOM      2  H   LIG    1        2.336   0.028  -0.020  0.00  0.00    +0.400 HD
ATOM      3  C   LIG    1        1.147   1.655   0.000  0.00  0.00    +0.710 C 
ATOM      4  N   LIG    1       -0.011   0.966   0.007  0.00  0.00    -0.740 N 
ATOM      5  H   LIG    1        0.002  -0.004   0.002  0.00  0.00    +0.390 HD
ATOM      6  O   LIG    1        1.130   2.871   0.007  0.00  0.00    -0.590 OA
ENDROOT
BRANCH   1   8
ATOM      7  C   LIG    1        3.969   2.109   1.413  0.00  0.00    +0.030 C 
ATOM      8  C   LIG    1        3.582   1.747  -0.023  0.00  0.00    +0.280 C 
BRANCH   8   9
ATOM      9  C   LIG    1        4.683   0.888  -0.647  0.00  0.00    +0.240 C 
ATOM     10  O   LIG    1        4.850  -0.310   0.115  0.00  0.00    -0.370 OA
ATOM     11  C   LIG    1        5.724  -1.271  -0.485  0.00  0.00    +0.240 C 
ATOM     12  C   LIG    1        5.032  -1.884  -1.709  0.00  0.00    +0.100 C 
ATOM     13  C   LIG    1        4.453  -0.753  -2.532  0.00  0.00    -0.180 A 
ATOM     14  S   LIG    1        3.900  -0.856  -4.195  0.00  0.00    +0.110 S 
ATOM     15  C   LIG    1        3.462   0.847  -4.188  0.00  0.00    -0.040 A 
ATOM     16  C   LIG    1        3.740   1.375  -2.998  0.00  0.00    +0.030 A 
ATOM     17  C   LIG    1        4.290   0.503  -2.067  0.00  0.00    -0.140 A 
ENDBRANCH   8   9
ENDBRANCH   1   8
BRANCH   4  18
ATOM     18  C   LIG    1       -1.290   1.681   0.017  0.00  0.00    +0.340 C 
BRANCH  18  19
ATOM     19  C   LIG    1       -2.422   0.686   0.017  0.00  0.00    -0.090 A 
ATOM     20  C   LIG    1       -3.079   0.399  -1.139  0.00  0.00    +0.050 A 
ATOM     21  C   LIG    1       -4.125  -0.521  -1.163  0.00  0.00    +0.010 A 
ATOM     22  C   LIG    1       -4.526  -1.152  -0.025  0.00  0.00    +0.040 A 
ATOM     23  C   LIG    1       -3.874  -0.876   1.188  0.00  0.00    -0.110 A 
ATOM     24  C   LIG    1       -4.258  -1.507   2.386  0.00  0.00    +0.080 A 
ATOM     25  C   LIG    1       -3.580  -1.189   3.528  0.00  0.00    -0.040 A 
ATOM     26  C   LIG    1       -2.539  -0.264   3.483  0.00  0.00    +0.290 A 
ATOM     27  N   LIG    1       -2.184   0.322   2.365  0.00  0.00    -0.470 NA
ATOM     28  C   LIG    1       -2.807   0.055   1.213  0.00  0.00    +0.140 A 
ENDBRANCH  18  19
ENDBRANCH   4  18
TORSDOF 4
