REMARK  Name = ZINCrH00000tj1dJ.0
REMARK                            x       y       z     vdW  Elec       q    Type
REMARK                         _______ _______ _______ _____ _____    ______ ____
ROOT
ATOM      1  N   LIG    1        2.089   1.670   1.243  0.00  0.00    -0.590 N 
ATOM      2  C   LIG    1        3.197   0.904   1.201  0.00  0.00    +0.520 C 
ATOM      3  O   LIG    1        3.753   0.585   2.230  0.00  0.00    -0.500 OA
ENDROOT
BRANCH   1   4
ATOM      4  C   LIG    1        1.556   2.117   2.532  0.00  0.00    +0.280 C 
ATOM      5  C   LIG    1        2.632   2.901   3.304  0.00  0.00    +0.060 C 
ATOM      6  C   LIG    1        2.175   3.061   4.767  0.00  0.00    -0.310 C 
ATOM      7  S   LIG    1        1.101   1.616   5.090  0.00  0.00    +2.390 S 
ATOM      8  O   LIG    1        1.743   0.745   6.011  0.00  0.00    -0.930 OA
ATOM      9  O   LIG    1       -0.225   2.061   5.343  0.00  0.00    -0.930 OA
ATOM     10  C   LIG    1        1.187   0.892   3.408  0.00  0.00    -0.310 C 
ENDBRANCH   1   4
BRANCH   1  11
ATOM     11  C   LIG    1        1.417   2.055  -0.000  0.00  0.00    +0.230 C 
ATOM     12  C   LIG    1        1.397   3.581  -0.118  0.00  0.00    +0.040 C 
BRANCH  11  14
ATOM     13  C   LIG    1        0.002  -0.004   0.002  0.00  0.00    +0.010 C 
ATOM     14  C   LIG    1       -0.019   1.526   0.010  0.00  0.00    +0.010 C 
ENDBRANCH  11  14
ENDBRANCH   1  11
BRANCH   2  15
ATOM     15  C   LIG    1        3.745   0.444  -0.126  0.00  0.00    +0.240 C 
BRANCH  15  16
ATOM     16  O   LIG    1        4.914  -0.348   0.091  0.00  0.00    -0.290 OA
BRANCH  16  17
ATOM     17  C   LIG    1        5.536  -0.845  -1.011  0.00  0.00    +0.140 A 
ATOM     18  C   LIG    1        6.658  -1.609  -0.865  0.00  0.00    -0.010 A 
ATOM     19  C   LIG    1        7.301  -2.123  -2.003  0.00  0.00    -0.000 A 
ATOM     20  C   LIG    1        8.458  -2.913  -1.891  0.00  0.00    +0.040 A 
ATOM     21  C   LIG    1        9.055  -3.396  -3.015  0.00  0.00    +0.060 A 
ATOM     22  C   LIG    1        8.536  -3.118  -4.279  0.00  0.00    -0.100 A 
ATOM     23  C   LIG    1        7.417  -2.356  -4.425  0.00  0.00    +0.080 A 
ATOM     24 BR   LIG    1        9.399  -3.810  -5.813  0.00  0.00    -0.050 Br
ATOM     25  C   LIG    1        6.773  -1.840  -3.288  0.00  0.00    -0.080 A 
ATOM     26  C   LIG    1        5.616  -1.050  -3.401  0.00  0.00    +0.080 A 
ATOM     27  C   LIG    1        5.014  -0.572  -2.280  0.00  0.00    -0.060 A 
ENDBRANCH  16  17
ENDBRANCH  15  16
ENDBRANCH   2  15
TORSDOF 6
