REMARK  Name = ZINCvU00000005mw.0
REMARK                            x       y       z     vdW  Elec       q    Type
REMARK                         _______ _______ _______ _____ _____    ______ ____
ROOT
ATOM      1  C   LIG    1        0.292  -0.541  -0.983  0.00  0.00    +0.300 A 
ATOM      2  N   LIG    1        0.843  -1.112   0.057  0.00  0.00    -0.510 NA
ATOM      3  C   LIG    1        0.527  -2.414   0.080  0.00  0.00    +0.270 A 
ATOM      4  N   LIG    1       -0.228  -2.684  -0.963  0.00  0.00    -0.290 NA
ATOM      5  N   LIG    1       -0.392  -1.480  -1.666  0.00  0.00    -0.320 N 
ENDROOT
BRANCH   5   6
ATOM      6  C   LIG    1       -1.125  -1.290  -2.847  0.00  0.00    +0.130 A 
ATOM      7  C   LIG    1       -1.812  -0.096  -3.052  0.00  0.00    +0.040 A 
ATOM      8  C   LIG    1       -2.535   0.103  -4.207  0.00  0.00    +0.060 A 
ATOM      9  C   LIG    1       -2.582  -0.891  -5.175  0.00  0.00    +0.050 A 
ATOM     10  N   LIG    1       -3.197  -1.003  -6.407  0.00  0.00    -0.600 N 
ATOM     11  H   LIG    1       -3.753  -0.333  -6.835  0.00  0.00    +0.430 HD
ATOM     12  C   LIG    1       -2.880  -2.227  -6.908  0.00  0.00    +0.300 A 
ATOM     13  N   LIG    1       -2.117  -2.868  -6.072  0.00  0.00    -0.490 NA
ATOM     14  C   LIG    1       -3.344  -2.761  -8.238  0.00  0.00    +0.190 C 
ATOM     15  C   LIG    1       -1.892  -2.099  -4.976  0.00  0.00    +0.070 A 
ATOM     16  C   LIG    1       -1.157  -2.288  -3.804  0.00  0.00    +0.090 A 
ENDBRANCH   5   6
BRANCH   3  17
ATOM     17  C   LIG    1        0.963  -3.391   1.108  0.00  0.00    +0.020 A 
ATOM     18  C   LIG    1        2.299  -3.446   1.498  0.00  0.00    +0.060 A 
ATOM     19  C   LIG    1        2.697  -4.353   2.459  0.00  0.00    +0.040 A 
ATOM     20  C   LIG    1        1.775  -5.214   3.026  0.00  0.00    +0.040 A 
ATOM     21  C   LIG    1        0.448  -5.167   2.638  0.00  0.00    +0.050 A 
ATOM     22  C   LIG    1        0.037  -4.261   1.683  0.00  0.00    -0.140 A 
BRANCH  22  23
ATOM     23  C   LIG    1       -1.409  -4.211   1.261  0.00  0.00    +0.430 C 
ATOM     24  F   LIG    1       -1.796  -2.879   1.080  0.00  0.00    -0.190 F 
ATOM     25  F   LIG    1       -2.204  -4.797   2.251  0.00  0.00    -0.200 F 
ENDBRANCH  22  23
ENDBRANCH   3  17
BRANCH   1  30
ATOM     26  C   LIG    1       -0.129   1.796  -0.215  0.00  0.00    +0.170 C 
ATOM     27  C   LIG    1        1.046   2.680   0.250  0.00  0.00    +0.020 C 
ATOM     28  C   LIG    1        1.991   2.732  -0.976  0.00  0.00    +0.020 C 
ATOM     29  C   LIG    1        1.892   1.294  -1.544  0.00  0.00    +0.050 C 
ATOM     30  C   LIG    1        0.409   0.914  -1.356  0.00  0.00    +0.090 C 
BRANCH  26  32
ATOM     31  C   LIG    1       -2.174   2.933   0.303  0.00  0.00    +0.210 C 
ATOM     32  O   LIG    1       -1.199   2.614  -0.692  0.00  0.00    -0.380 OA
ENDBRANCH  26  32
ENDBRANCH   1  30
TORSDOF 5
