REMARK  Name = ZINCkj000005lqFK.0
REMARK                            x       y       z     vdW  Elec       q    Type
REMARK                         _______ _______ _______ _____ _____    ______ ____
ROOT
ATOM      1  C   LIG    1       -0.018   1.493   0.010  0.00  0.00    +0.210 C 
ATOM      2  C   LIG    1        1.490   1.891  -0.002  0.00  0.00    +0.060 C 
ATOM      3  C   LIG    1        2.280   0.556  -0.199  0.00  0.00    +0.070 C 
ATOM      4  C   LIG    1        1.256  -0.309  -0.907  0.00  0.00    -0.030 C 
ATOM      5  C   LIG    1        1.230  -1.821  -0.806  0.00  0.00    +0.310 C 
ATOM      6  N   LIG    1       -0.220  -2.134  -1.007  0.00  0.00    -1.020 NA
ATOM      7  C   LIG    1       -0.996  -0.937  -0.609  0.00  0.00    +0.300 C 
ATOM      8  C   LIG    1        0.002  -0.004   0.002  0.00  0.00    -0.040 C 
ENDROOT
BRANCH   1   9
ATOM      9  N   LIG    1       -0.696   2.005  -1.188  0.00  0.00    -0.640 N 
ATOM     10  H   LIG    1       -0.207   1.689  -2.012  0.00  0.00    +0.430 HD
ATOM     11  H   LIG    1       -0.700   3.014  -1.166  0.00  0.00    +0.440 HD
ATOM     12  H   LIG    1       -1.645   1.665  -1.209  0.00  0.00    +0.440 HD
ENDBRANCH   1   9
BRANCH   6  13
ATOM     13  S   LIG    1       -0.838  -3.554  -1.591  0.00  0.00    +2.620 S 
ATOM     14  O   LIG    1        0.208  -4.090  -2.390  0.00  0.00    -0.930 OA
ATOM     15  O   LIG    1       -2.084  -3.184  -2.167  0.00  0.00    -0.940 OA
BRANCH  13  16
ATOM     16  C   LIG    1       -1.098  -4.575  -0.115  0.00  0.00    -0.280 C 
BRANCH  16  17
ATOM     17  C   LIG    1       -1.665  -5.911  -0.521  0.00  0.00    -0.140 A 
ATOM     18  C   LIG    1       -0.818  -6.962  -0.815  0.00  0.00    +0.060 A 
ATOM     19  C   LIG    1       -1.338  -8.187  -1.189  0.00  0.00    +0.020 A 
ATOM     20  C   LIG    1       -2.707  -8.363  -1.268  0.00  0.00    +0.070 A 
ATOM     21  C   LIG    1       -3.557  -7.313  -0.973  0.00  0.00    +0.000 A 
ATOM     22  C   LIG    1       -3.037  -6.088  -0.594  0.00  0.00    +0.110 A 
ATOM     23  F   LIG    1       -3.867  -5.063  -0.300  0.00  0.00    -0.130 F 
ENDBRANCH  16  17
ENDBRANCH  13  16
ENDBRANCH   6  13
TORSDOF 4
