REMARK  Name = ZINCqH00000015lo.0
REMARK                            x       y       z     vdW  Elec       q    Type
REMARK                         _______ _______ _______ _____ _____    ______ ____
ROOT
ATOM      1  N   LIG    1        4.235  -2.631  -1.432  0.00  0.00    -0.700 N 
ATOM      2  H   LIG    1        4.089  -2.012  -2.165  0.00  0.00    +0.410 HD
ENDROOT
BRANCH   1   7
ATOM      3  N   LIG    1        4.968  -5.973  -4.573  0.00  0.00    -0.370 N 
ATOM      4  N   LIG    1        4.686  -4.751  -5.196  0.00  0.00    -0.250 NA
ATOM      5  C   LIG    1        4.485  -3.834  -4.293  0.00  0.00    +0.290 A 
ATOM      6  C   LIG    1        4.629  -4.423  -3.018  0.00  0.00    -0.330 A 
ATOM      7  C   LIG    1        4.533  -3.954  -1.694  0.00  0.00    +0.520 A 
ATOM      8  N   LIG    1        4.741  -4.813  -0.703  0.00  0.00    -0.610 NA
ATOM      9  C   LIG    1        5.021  -6.082  -0.945  0.00  0.00    +0.590 A 
ATOM     10  N   LIG    1        5.122  -6.566  -2.163  0.00  0.00    -0.570 NA
ATOM     11  C   LIG    1        4.936  -5.782  -3.224  0.00  0.00    +0.370 A 
BRANCH   3  13
ATOM     12  C   LIG    1        4.209  -8.283  -4.843  0.00  0.00    +0.060 C 
ATOM     13  C   LIG    1        5.250  -7.239  -5.254  0.00  0.00    +0.190 C 
ATOM     14  C   LIG    1        6.645  -7.729  -4.863  0.00  0.00    +0.060 C 
ATOM     15  C   LIG    1        5.189  -7.028  -6.768  0.00  0.00    +0.080 C 
ENDBRANCH   3  13
ENDBRANCH   1   7
BRANCH   1  16
ATOM     16  C   LIG    1        4.140  -2.162  -0.048  0.00  0.00    +0.410 C 
BRANCH  16  17
ATOM     17  C   LIG    1        3.807  -0.692  -0.037  0.00  0.00    +0.020 A 
ATOM     18  N   LIG    1        2.613  -0.210  -0.018  0.00  0.00    -0.440 NA
ATOM     19  C   LIG    1        2.494   1.110  -0.015  0.00  0.00    +0.100 A 
ATOM     20  C   LIG    1        3.671   1.768  -0.023  0.00  0.00    -0.040 A 
ATOM     21  S   LIG    1        4.961   0.568  -0.041  0.00  0.00    +0.180 S 
BRANCH  19  22
ATOM     22  C   LIG    1        1.183   1.802   0.000  0.00  0.00    +0.020 A 
ATOM     23  C   LIG    1       -0.013   1.076   0.008  0.00  0.00    +0.000 A 
ATOM     24  C   LIG    1       -1.210   1.759   0.017  0.00  0.00    +0.260 A 
ATOM     25  N   LIG    1       -1.237   3.079   0.030  0.00  0.00    -0.480 NA
ATOM     26  C   LIG    1       -0.133   3.801   0.024  0.00  0.00    +0.260 A 
ATOM     27  C   LIG    1        1.107   3.198   0.009  0.00  0.00    -0.020 A 
ENDBRANCH  19  22
ENDBRANCH  16  17
ENDBRANCH   1  16
TORSDOF 5
