REMARK  Name = ZINCpk00000xNCwZ.0
REMARK                            x       y       z     vdW  Elec       q    Type
REMARK                         _______ _______ _______ _____ _____    ______ ____
ROOT
ATOM      1  C   LIG    1        2.480   1.282  -0.059  0.00  0.00    -0.090 A 
ATOM      2  C   LIG    1        3.676   1.987  -0.160  0.00  0.00    +0.050 A 
ATOM      3  C   LIG    1        3.659   3.362  -0.296  0.00  0.00    +0.030 A 
ATOM      4  C   LIG    1        2.457   4.047  -0.334  0.00  0.00    +0.050 A 
ATOM      5  C   LIG    1        1.259   3.363  -0.241  0.00  0.00    +0.040 A 
ATOM      6  C   LIG    1        1.258   1.979  -0.097  0.00  0.00    -0.070 A 
ENDROOT
BRANCH   6   7
ATOM      7  C   LIG    1       -0.022   1.243   0.008  0.00  0.00    +0.570 C 
ATOM      8  N   LIG    1       -0.856   1.487   1.038  0.00  0.00    -0.610 N 
ATOM      9  C   LIG    1       -0.551   2.531   2.029  0.00  0.00    +0.250 C 
ATOM     10  C   LIG    1       -1.790   3.429   2.176  0.00  0.00    +0.220 C 
ATOM     11  O   LIG    1       -2.932   2.612   2.446  0.00  0.00    -0.380 OA
ATOM     12  C   LIG    1       -3.257   1.696   1.398  0.00  0.00    +0.220 C 
ATOM     13  C   LIG    1       -2.096   0.713   1.208  0.00  0.00    +0.260 C 
ATOM     14  O   LIG    1       -0.322   0.423  -0.837  0.00  0.00    -0.520 OA
ENDBRANCH   6   7
BRANCH   1  18
ATOM     15  C   LIG    1        4.747  -2.065  -1.611  0.00  0.00    -0.010 C 
ATOM     16  C   LIG    1        3.972  -2.309  -0.309  0.00  0.00    +0.330 C 
ATOM     17  N   LIG    1        3.547  -0.902  -0.359  0.00  0.00    -0.650 N 
ATOM     18  C   LIG    1        2.493  -0.190   0.087  0.00  0.00    +0.590 C 
ATOM     19  O   LIG    1        1.554  -0.757   0.609  0.00  0.00    -0.500 OA
ATOM     20  C   LIG    1        4.774  -0.615  -1.117  0.00  0.00    +0.320 C 
BRANCH  15  22
ATOM     21  N   LIG    1        3.338  -2.421  -3.776  0.00  0.00    -0.400 NA
ATOM     22  C   LIG    1        3.952  -2.266  -2.833  0.00  0.00    +0.220 C 
ENDBRANCH  15  22
BRANCH  15  23
ATOM     23  C   LIG    1        6.119  -2.740  -1.660  0.00  0.00    +0.080 C 
BRANCH  23  24
ATOM     24  C   LIG    1        6.794  -2.428  -2.998  0.00  0.00    +0.210 C 
ATOM     25  F   LIG    1        8.048  -3.045  -3.042  0.00  0.00    -0.210 F 
ENDBRANCH  23  24
ENDBRANCH  15  23
ENDBRANCH   1  18
TORSDOF 5
