REMARK  Name = ZINCpe000000ZES0.0
REMARK                            x       y       z     vdW  Elec       q    Type
REMARK                         _______ _______ _______ _____ _____    ______ ____
ROOT
ATOM      1  N   LIG    1        2.032   1.287  -1.302  0.00  0.00    -1.000 NA
ATOM      2  C   LIG    1        1.290   1.640  -2.522  0.00  0.00    +0.270 C 
ATOM      3  C   LIG    1       -0.141   1.107  -2.389  0.00  0.00    +0.220 C 
ATOM      4  O   LIG    1       -0.699   1.560  -1.153  0.00  0.00    -0.360 OA
ATOM      5  C   LIG    1       -0.013   1.086   0.008  0.00  0.00    +0.190 C 
ATOM      6  C   LIG    1        1.425   1.617  -0.003  0.00  0.00    +0.290 C 
ENDROOT
BRANCH   5   7
ATOM      7  C   LIG    1       -0.720   1.573   1.246  0.00  0.00    -0.070 A 
ATOM      8  C   LIG    1       -1.315   2.821   1.256  0.00  0.00    +0.030 A 
ATOM      9  C   LIG    1       -1.970   3.268   2.389  0.00  0.00    +0.030 A 
ATOM     10  C   LIG    1       -2.021   2.474   3.518  0.00  0.00    -0.010 A 
ATOM     11  C   LIG    1       -1.420   1.223   3.512  0.00  0.00    +0.110 A 
ATOM     12  C   LIG    1       -0.769   0.774   2.373  0.00  0.00    +0.000 A 
BRANCH  11  13
ATOM     13  O   LIG    1       -1.470   0.439   4.621  0.00  0.00    -0.500 OA
ATOM     14  H   LIG    1       -0.731   0.572   5.231  0.00  0.00    +0.390 HD
ENDBRANCH  11  13
ENDBRANCH   5   7
BRANCH   1  16
ATOM     15  O   LIG    1        4.027   0.933  -2.651  0.00  0.00    -0.950 OA
ATOM     16  S   LIG    1        3.508   0.540  -1.387  0.00  0.00    +2.610 S 
ATOM     17  O   LIG    1        4.159   0.911  -0.180  0.00  0.00    -0.940 OA
BRANCH  16  18
ATOM     18  C   LIG    1        3.119  -1.232  -1.382  0.00  0.00    -0.370 C 
BRANCH  18  19
ATOM     19  C   LIG    1        4.417  -2.039  -1.458  0.00  0.00    +0.060 C 
BRANCH  19  20
ATOM     20  C   LIG    1        4.090  -3.533  -1.454  0.00  0.00    +0.180 C 
BRANCH  20  21
ATOM     21  N   LIG    1        5.336  -4.308  -1.527  0.00  0.00    -0.540 NA
ATOM     22  C   LIG    1        6.005  -4.107  -2.821  0.00  0.00    +0.150 C 
ATOM     23  C   LIG    1        7.325  -4.883  -2.832  0.00  0.00    +0.220 C 
ATOM     24  O   LIG    1        7.063  -6.264  -2.566  0.00  0.00    -0.380 OA
ATOM     25  C   LIG    1        6.412  -6.495  -1.314  0.00  0.00    +0.220 C 
ATOM     26  C   LIG    1        5.083  -5.736  -1.287  0.00  0.00    +0.150 C 
ENDBRANCH  20  21
ENDBRANCH  19  20
ENDBRANCH  18  19
ENDBRANCH  16  18
ENDBRANCH   1  16
TORSDOF 7
