REMARK  Name = ZINCrg00000IZz24.0
REMARK                            x       y       z     vdW  Elec       q    Type
REMARK                         _______ _______ _______ _____ _____    ______ ____
ROOT
ATOM      1  N   LIG    1       -3.684   3.172   0.052  0.00  0.00    -0.720 N 
ATOM      2  H   LIG    1       -3.670   2.203   0.048  0.00  0.00    +0.400 HD
ATOM      3  C   LIG    1       -2.527   3.863   0.045  0.00  0.00    +0.570 C 
ATOM      4  O   LIG    1       -2.544   5.079   0.051  0.00  0.00    -0.510 OA
ENDROOT
BRANCH   1  11
ATOM      5  C   LIG    1       -5.332   4.929  -3.390  0.00  0.00    +0.220 A 
ATOM      6  N   LIG    1       -6.562   4.540  -3.164  0.00  0.00    -0.310 NA
ATOM      7  N   LIG    1       -6.603   4.096  -1.839  0.00  0.00    -0.370 N 
ATOM      8  C   LIG    1       -7.745   3.563  -1.096  0.00  0.00    +0.310 C 
ATOM      9  C   LIG    1       -7.425   3.614   0.402  0.00  0.00    +0.060 C 
ATOM     10  C   LIG    1       -6.054   2.982   0.655  0.00  0.00    +0.050 C 
ATOM     11  C   LIG    1       -4.963   3.886   0.068  0.00  0.00    +0.350 C 
ATOM     12  C   LIG    1       -5.360   4.249  -1.343  0.00  0.00    +0.250 A 
ATOM     13  N   LIG    1       -4.609   4.751  -2.282  0.00  0.00    -0.510 NA
BRANCH   5  15
ATOM     14  C   LIG    1       -4.301   4.345  -5.568  0.00  0.00    +0.050 C 
ATOM     15  C   LIG    1       -4.816   5.488  -4.691  0.00  0.00    +0.150 C 
ENDBRANCH   5  15
ENDBRANCH   1  11
BRANCH   3  16
ATOM     16  C   LIG    1       -1.238   3.144   0.030  0.00  0.00    -0.150 A 
ATOM     17  C   LIG    1       -1.216   1.747   0.017  0.00  0.00    +0.110 A 
ATOM     18  C   LIG    1       -0.013   1.076   0.008  0.00  0.00    -0.050 A 
ATOM     19  C   LIG    1        1.181   1.785   0.000  0.00  0.00    +0.180 A 
ATOM     20  C   LIG    1        1.167   3.180   0.007  0.00  0.00    +0.090 A 
ATOM     21  C   LIG    1       -0.037   3.858   0.022  0.00  0.00    +0.140 A 
BRANCH  20  22
ATOM     22  N   LIG    1        2.375   3.894  -0.001  0.00  0.00    -0.320 N 
ATOM     23  C   LIG    1        2.535   5.235   0.005  0.00  0.00    +0.460 A 
ATOM     24  N   LIG    1        3.821   5.473  -0.007  0.00  0.00    -0.330 NA
ATOM     25  N   LIG    1        4.484   4.374  -0.019  0.00  0.00    -0.040 NA
ATOM     26  N   LIG    1        3.679   3.367  -0.010  0.00  0.00    -0.050 NA
ENDBRANCH  20  22
BRANCH  19  27
ATOM     27  O   LIG    1        2.364   1.119  -0.015  0.00  0.00    -0.280 OA
ATOM     28  C   LIG    1        2.305  -0.309  -0.022  0.00  0.00    +0.250 C 
ENDBRANCH  19  27
ENDBRANCH   3  16
TORSDOF 5
