REMARK  Name = ZINCrH000004qZhp.1
REMARK                            x       y       z     vdW  Elec       q    Type
REMARK                         _______ _______ _______ _____ _____    ______ ____
ROOT
ATOM      1  C   LIG    1       -0.013   1.086   0.008  0.00  0.00    +0.100 C 
ENDROOT
BRANCH   1   2
ATOM      2  C   LIG    1       -0.718   1.572   1.248  0.00  0.00    +0.510 C 
ATOM      3  N   LIG    1       -0.242   1.246   2.466  0.00  0.00    -0.620 N 
ATOM      4  H   LIG    1        0.555   0.699   2.544  0.00  0.00    +0.430 HD
ATOM      5  O   LIG    1       -1.715   2.256   1.150  0.00  0.00    -0.460 OA
BRANCH   3   6
ATOM      6  C   LIG    1       -0.892   1.694   3.609  0.00  0.00    +0.250 A 
ATOM      7  N   LIG    1       -1.966   2.431   3.642  0.00  0.00    -0.250 NA
ATOM      8  N   LIG    1       -2.426   2.748   4.772  0.00  0.00    -0.210 NA
ATOM      9  C   LIG    1       -1.792   2.314   5.827  0.00  0.00    +0.090 A 
ATOM     10  S   LIG    1       -0.414   1.359   5.275  0.00  0.00    +0.110 S 
BRANCH   9  11
ATOM     11  C   LIG    1       -2.163   2.569   7.228  0.00  0.00    +0.030 A 
ATOM     12  C   LIG    1       -3.228   3.307   7.652  0.00  0.00    +0.040 A 
ATOM     13  C   LIG    1       -3.202   3.284   9.059  0.00  0.00    -0.050 A 
ATOM     14  C   LIG    1       -2.132   2.549   9.424  0.00  0.00    +0.220 A 
ATOM     15  O   LIG    1       -1.507   2.119   8.315  0.00  0.00    -0.170 OA
ENDBRANCH   9  11
ENDBRANCH   3   6
ENDBRANCH   1   2
BRANCH   1  16
ATOM     16  C   LIG    1       -0.753   1.593  -1.232  0.00  0.00    +0.230 C 
BRANCH  16  20
ATOM     17  C   LIG    1        1.273   0.959  -4.168  0.00  0.00    +0.220 A 
ATOM     18  N   LIG    1        0.503  -0.102  -4.118  0.00  0.00    -0.280 NA
ATOM     19  N   LIG    1       -0.283  -0.009  -3.104  0.00  0.00    -0.270 NA
ATOM     20  C   LIG    1       -0.047   1.107  -2.471  0.00  0.00    +0.160 A 
ATOM     21  O   LIG    1        0.935   1.747  -3.128  0.00  0.00    -0.220 OA
BRANCH  17  26
ATOM     22  C   LIG    1        5.324   2.054  -8.105  0.00  0.00    +0.100 C 
ATOM     23  C   LIG    1        4.263   1.768  -7.074  0.00  0.00    -0.060 A 
ATOM     24  C   LIG    1        3.526   0.599  -7.151  0.00  0.00    +0.020 A 
ATOM     25  C   LIG    1        2.554   0.330  -6.210  0.00  0.00    +0.080 A 
ATOM     26  C   LIG    1        2.314   1.240  -5.180  0.00  0.00    -0.040 A 
ATOM     27  C   LIG    1        3.057   2.420  -5.111  0.00  0.00    +0.050 A 
ATOM     28  C   LIG    1        4.031   2.673  -6.055  0.00  0.00    +0.010 A 
ENDBRANCH  17  26
ENDBRANCH  16  20
ENDBRANCH   1  16
TORSDOF 6
