REMARK  Name = ZINCqH00000078LS.0
REMARK                            x       y       z     vdW  Elec       q    Type
REMARK                         _______ _______ _______ _____ _____    ______ ____
ROOT
ATOM      1  C   LIG    1       -0.431   0.685   2.580  0.00  0.00    +0.510 C 
ATOM      2  N   LIG    1       -0.445   1.405   3.719  0.00  0.00    -0.680 N 
ATOM      3  H   LIG    1       -0.858   2.282   3.733  0.00  0.00    +0.410 HD
ATOM      4  O   LIG    1        0.156  -0.376   2.540  0.00  0.00    -0.520 OA
ENDROOT
BRANCH   2   5
ATOM      5  C   LIG    1        0.138   0.887   4.881  0.00  0.00    +0.150 A 
ATOM      6  C   LIG    1        1.280   0.101   4.795  0.00  0.00    +0.020 A 
ATOM      7  C   LIG    1        1.856  -0.410   5.942  0.00  0.00    +0.040 A 
ATOM      8  C   LIG    1        1.300  -0.141   7.178  0.00  0.00    +0.010 A 
ATOM      9  C   LIG    1        0.158   0.645   7.270  0.00  0.00    +0.150 A 
ATOM     10  C   LIG    1       -0.420   1.164   6.121  0.00  0.00    -0.020 A 
BRANCH   9  11
ATOM     11  N   LIG    1       -0.405   0.917   8.522  0.00  0.00    -0.560 N 
ATOM     12  C   LIG    1       -1.731   0.383   8.805  0.00  0.00    +0.260 C 
ATOM     13  C   LIG    1       -1.988   0.359  10.312  0.00  0.00    +0.030 C 
ATOM     14  C   LIG    1       -1.665   1.743  10.888  0.00  0.00    +0.020 C 
ATOM     15  C   LIG    1       -0.157   1.976  10.772  0.00  0.00    +0.070 C 
ATOM     16  C   LIG    1        0.307   1.645   9.383  0.00  0.00    +0.520 C 
ATOM     17  O   LIG    1        1.386   2.067   9.023  0.00  0.00    -0.540 OA
ENDBRANCH   9  11
ENDBRANCH   2   5
BRANCH   1  18
ATOM     18  C   LIG    1       -1.146   1.197   1.356  0.00  0.00    +0.070 C 
BRANCH  18  19
ATOM     19  C   LIG    1       -0.976   0.197   0.211  0.00  0.00    +0.100 C 
BRANCH  19  23
ATOM     20  C   LIG    1       -3.002   1.650  -3.260  0.00  0.00    +0.120 A 
ATOM     21  C   LIG    1       -1.673   1.980  -3.043  0.00  0.00    -0.020 A 
ATOM     22  C   LIG    1       -1.020   1.510  -1.920  0.00  0.00    +0.060 A 
ATOM     23  C   LIG    1       -1.691   0.710  -1.013  0.00  0.00    -0.120 A 
ATOM     24  C   LIG    1       -3.014   0.374  -1.231  0.00  0.00    +0.060 A 
ATOM     25  C   LIG    1       -3.673   0.847  -2.349  0.00  0.00    -0.080 A 
BRANCH  20  27
ATOM     26  C   LIG    1       -5.015   1.731  -4.524  0.00  0.00    +0.250 C 
ATOM     27  O   LIG    1       -3.646   2.111  -4.365  0.00  0.00    -0.320 OA
ENDBRANCH  20  27
ENDBRANCH  19  23
ENDBRANCH  18  19
ENDBRANCH   1  18
TORSDOF 6
