REMARK  Name = ZINCrg000000p15u.0
REMARK                            x       y       z     vdW  Elec       q    Type
REMARK                         _______ _______ _______ _____ _____    ______ ____
ROOT
ATOM      1  C   LIG    1        7.103   2.793  -0.794  0.00  0.00    -0.150 A 
ATOM      2  C   LIG    1        7.131   4.173  -0.995  0.00  0.00    +0.110 A 
ATOM      3  C   LIG    1        6.221   4.981  -0.344  0.00  0.00    +0.000 A 
ATOM      4  C   LIG    1        5.282   4.425   0.507  0.00  0.00    +0.150 A 
ATOM      5  C   LIG    1        5.249   3.056   0.710  0.00  0.00    -0.680 A 
ATOM      6  C   LIG    1        6.156   2.238   0.069  0.00  0.00    +0.180 A 
ENDROOT
BRANCH   1   9
ATOM      7  C   LIG    1        7.907   3.378  -3.435  0.00  0.00    +0.290 C 
ATOM      8  N   LIG    1        8.415   2.177  -2.767  0.00  0.00    -0.610 N 
ATOM      9  C   LIG    1        8.075   1.921  -1.488  0.00  0.00    +0.560 C 
ATOM     10  O   LIG    1        8.566   0.974  -0.906  0.00  0.00    -0.520 OA
BRANCH   8  11
ATOM     11  C   LIG    1        9.295   1.255  -3.489  0.00  0.00    +0.340 C 
BRANCH  11  12
ATOM     12  C   LIG    1        8.463   0.209  -4.185  0.00  0.00    -0.110 A 
ATOM     13  C   LIG    1        8.151  -0.971  -3.536  0.00  0.00    +0.030 A 
ATOM     14  C   LIG    1        7.384  -1.928  -4.173  0.00  0.00    +0.000 A 
ATOM     15  C   LIG    1        6.937  -1.710  -5.463  0.00  0.00    +0.010 A 
ATOM     16  C   LIG    1        7.253  -0.533  -6.114  0.00  0.00    +0.000 A 
ATOM     17  C   LIG    1        8.016   0.427  -5.475  0.00  0.00    +0.010 A 
ENDBRANCH  11  12
ENDBRANCH   8  11
ENDBRANCH   1   9
BRANCH   5  18
ATOM     18  S   LIG    1        4.048   2.358   1.794  0.00  0.00    +2.690 S 
ATOM     19  O   LIG    1        4.576   1.111   2.227  0.00  0.00    -0.940 OA
ATOM     20  O   LIG    1        3.667   3.393   2.690  0.00  0.00    -0.940 OA
BRANCH  18  21
ATOM     21  N   LIG    1        2.709   2.009   0.885  0.00  0.00    -1.000 NA
ATOM     22  C   LIG    1        2.547   0.699   0.231  0.00  0.00    +0.300 C 
ATOM     23  C   LIG    1        1.294   0.033   0.801  0.00  0.00    +0.280 C 
ATOM     24  N   LIG    1        0.180   0.971   0.833  0.00  0.00    -0.720 N 
ATOM     25  H   LIG    1       -0.718   0.604   0.859  0.00  0.00    +0.400 HD
ATOM     26  C   LIG    1        0.307   2.298   0.830  0.00  0.00    +0.520 C 
ATOM     27  O   LIG    1       -0.693   2.976   0.933  0.00  0.00    -0.540 OA
ATOM     28  C   LIG    1        1.634   2.994   0.696  0.00  0.00    +0.340 C 
ENDBRANCH  18  21
ENDBRANCH   5  18
TORSDOF 5
