REMARK  Name = ZINCpk00000j9vOy.0
REMARK                            x       y       z     vdW  Elec       q    Type
REMARK                         _______ _______ _______ _____ _____    ______ ____
ROOT
ATOM      1  C   LIG    1        3.529  -5.837  -3.635  0.00  0.00    +0.550 C 
ATOM      2  N   LIG    1        3.038  -4.878  -2.825  0.00  0.00    -0.640 N 
ATOM      3  C   LIG    1        1.730  -4.208  -2.690  0.00  0.00    +0.310 C 
ATOM      4  C   LIG    1        2.139  -3.934  -1.232  0.00  0.00    +0.160 C 
ATOM      5  C   LIG    1        3.594  -4.076  -1.715  0.00  0.00    +0.270 C 
ATOM      6  O   LIG    1        2.802  -6.386  -4.436  0.00  0.00    -0.530 OA
ENDROOT
BRANCH   1   7
ATOM      7  C   LIG    1        4.982  -6.227  -3.546  0.00  0.00    +0.250 C 
BRANCH   7  10
ATOM      8  C   LIG    1        6.354  -9.771  -4.011  0.00  0.00    +0.110 C 
ATOM      9  C   LIG    1        6.188  -8.344  -3.553  0.00  0.00    +0.510 C 
ATOM     10  N   LIG    1        5.143  -7.613  -3.991  0.00  0.00    -0.720 N 
ATOM     11  H   LIG    1        4.498  -8.005  -4.601  0.00  0.00    +0.410 HD
ATOM     12  O   LIG    1        6.994  -7.854  -2.791  0.00  0.00    -0.540 OA
ENDBRANCH   7  10
BRANCH   7  13
ATOM     13  C   LIG    1        5.813  -5.304  -4.440  0.00  0.00    -0.070 C 
ATOM     14  C   LIG    1        5.366  -5.464  -5.894  0.00  0.00    +0.040 C 
ATOM     15  C   LIG    1        7.293  -5.675  -4.318  0.00  0.00    +0.040 C 
ATOM     16  C   LIG    1        5.613  -3.853  -4.001  0.00  0.00    +0.040 C 
ENDBRANCH   7  13
ENDBRANCH   1   7
BRANCH   4  17
ATOM     17  O   LIG    1        1.809  -2.619  -0.779  0.00  0.00    -0.360 OA
BRANCH  17  18
ATOM     18  C   LIG    1        1.579  -2.529   0.628  0.00  0.00    +0.360 C 
BRANCH  18  19
ATOM     19  C   LIG    1        1.241  -1.106   0.992  0.00  0.00    +0.150 A 
ATOM     20  N   LIG    1        0.050  -0.581   1.024  0.00  0.00    -0.260 NA
ATOM     21  N   LIG    1        0.136   0.654   1.376  0.00  0.00    -0.280 NA
ATOM     22  C   LIG    1        1.387   0.958   1.580  0.00  0.00    +0.180 A 
ATOM     23  O   LIG    1        2.114  -0.146   1.343  0.00  0.00    -0.220 OA
BRANCH  22  24
ATOM     24  C   LIG    1        1.919   2.303   2.005  0.00  0.00    +0.100 C 
ATOM     25  C   LIG    1        1.314   2.688   3.356  0.00  0.00    +0.060 C 
ATOM     26  C   LIG    1        1.542   3.354   0.959  0.00  0.00    +0.060 C 
ENDBRANCH  22  24
ENDBRANCH  18  19
ENDBRANCH  17  18
ENDBRANCH   4  17
TORSDOF 7
