REMARK  Name = ZINCkj000005lGux.0
REMARK                            x       y       z     vdW  Elec       q    Type
REMARK                         _______ _______ _______ _____ _____    ______ ____
ROOT
ATOM      1  O   LIG    1       -0.916  -0.440  -0.132  0.00  0.00    -0.520 OA
ATOM      2  C   LIG    1        0.172   0.085  -0.028  0.00  0.00    +0.510 C 
ATOM      3  N   LIG    1        1.287  -0.672  -0.007  0.00  0.00    -0.690 N 
ATOM      4  H   LIG    1        2.152  -0.258   0.134  0.00  0.00    +0.410 HD
ENDROOT
BRANCH   2   5
ATOM      5  C   LIG    1        0.278   1.585   0.079  0.00  0.00    +0.150 C 
ATOM      6  C   LIG    1        0.026   2.035   1.539  0.00  0.00    +0.100 C 
ATOM      7  C   LIG    1       -1.281   2.873   1.480  0.00  0.00    +0.080 C 
ATOM      8  C   LIG    1       -1.934   2.355   0.187  0.00  0.00    +0.180 C 
ATOM      9  C   LIG    1       -2.909   3.341  -0.442  0.00  0.00    +0.070 C 
ATOM     10  C   LIG    1       -3.381   2.734  -1.778  0.00  0.00    +0.040 C 
ATOM     11  C   LIG    1       -2.193   2.377  -2.671  0.00  0.00    +0.060 C 
ATOM     12  C   LIG    1       -1.188   1.496  -1.913  0.00  0.00    +0.250 C 
ATOM     13  N   LIG    1       -0.765   2.223  -0.725  0.00  0.00    -0.370 N 
ATOM     14  H   LIG    1       -0.455   3.143  -1.002  0.00  0.00    +0.420 HD
ENDBRANCH   2   5
BRANCH   3  15
ATOM     15  C   LIG    1        1.190  -2.122  -0.198  0.00  0.00    +0.180 C 
ATOM     16  C   LIG    1        2.593  -2.723  -0.198  0.00  0.00    +0.070 C 
ATOM     17  C   LIG    1        3.497  -1.941  -1.155  0.00  0.00    +0.110 C 
ATOM     18  S   LIG    1        2.845  -2.108  -2.844  0.00  0.00    -0.240 S 
ATOM     19  C   LIG    1        1.116  -1.588  -2.643  0.00  0.00    +0.100 C 
ATOM     20  C   LIG    1        0.480  -2.409  -1.518  0.00  0.00    +0.060 C 
BRANCH  15  21
ATOM     21  C   LIG    1        0.383  -2.729   0.951  0.00  0.00    +0.190 C 
BRANCH  21  22
ATOM     22  O   LIG    1        0.965  -2.343   2.198  0.00  0.00    -0.570 OA
ATOM     23  H   LIG    1        0.504  -2.693   2.973  0.00  0.00    +0.390 HD
ENDBRANCH  21  22
ENDBRANCH  15  21
ENDBRANCH   3  15
TORSDOF 4
