REMARK  Name = ZINCkj000005lGux.1
REMARK                            x       y       z     vdW  Elec       q    Type
REMARK                         _______ _______ _______ _____ _____    ______ ____
ROOT
ATOM      1  O   LIG    1       -1.271   2.297   0.912  0.00  0.00    -0.520 OA
ATOM      2  C   LIG    1       -0.734   3.172   1.557  0.00  0.00    +0.510 C 
ATOM      3  N   LIG    1        0.499   3.599   1.218  0.00  0.00    -0.680 N 
ATOM      4  H   LIG    1        0.959   4.245   1.777  0.00  0.00    +0.410 HD
ENDROOT
BRANCH   2   5
ATOM      5  C   LIG    1       -1.444   3.782   2.738  0.00  0.00    +0.170 C 
ATOM      6  C   LIG    1       -0.639   3.521   4.023  0.00  0.00    +0.080 C 
ATOM      7  C   LIG    1       -1.704   3.089   5.065  0.00  0.00    +0.090 C 
ATOM      8  C   LIG    1       -2.799   2.475   4.182  0.00  0.00    +0.140 C 
ATOM      9  C   LIG    1       -4.093   2.272   4.894  0.00  0.00    +0.070 C 
ATOM     10  C   LIG    1       -5.029   3.468   4.739  0.00  0.00    +0.050 C 
ATOM     11  C   LIG    1       -5.154   3.770   3.239  0.00  0.00    +0.060 C 
ATOM     12  C   LIG    1       -3.784   4.184   2.721  0.00  0.00    +0.250 C 
ATOM     13  N   LIG    1       -2.775   3.150   2.906  0.00  0.00    -0.360 N 
ATOM     14  H   LIG    1       -2.890   2.459   2.179  0.00  0.00    +0.430 HD
ENDBRANCH   2   5
BRANCH   3  15
ATOM     15  C   LIG    1        1.144   3.086   0.007  0.00  0.00    +0.180 C 
ATOM     16  C   LIG    1        2.504   3.757  -0.159  0.00  0.00    +0.070 C 
ATOM     17  C   LIG    1        3.291   3.676   1.151  0.00  0.00    +0.110 C 
ATOM     18  S   LIG    1        3.604   1.928   1.540  0.00  0.00    -0.240 S 
ATOM     19  C   LIG    1        1.934   1.214   1.469  0.00  0.00    +0.100 C 
ATOM     20  C   LIG    1        1.300   1.573   0.122  0.00  0.00    +0.060 C 
BRANCH  15  21
ATOM     21  C   LIG    1        0.270   3.412  -1.206  0.00  0.00    +0.200 C 
BRANCH  21  22
ATOM     22  O   LIG    1        0.017   4.817  -1.246  0.00  0.00    -0.570 OA
ATOM     23  H   LIG    1       -0.533   5.097  -1.991  0.00  0.00    +0.390 HD
ENDBRANCH  21  22
ENDBRANCH  15  21
ENDBRANCH   3  15
TORSDOF 4
