REMARK  Name = ZINCnE00000rhmDQ.1
REMARK                            x       y       z     vdW  Elec       q    Type
REMARK                         _______ _______ _______ _____ _____    ______ ____
ROOT
ATOM      1  C   LIG    1       -1.276  -3.313  -0.002  0.00  0.00    +0.050 C 
ATOM      2  C   LIG    1       -0.734  -2.268  -0.677  0.00  0.00    +0.000 C 
ATOM      3  O   LIG    1       -1.088  -0.967  -0.555  0.00  0.00    -0.230 OA
ATOM      4  C   LIG    1       -0.358  -0.170  -1.365  0.00  0.00    +0.170 A 
ATOM      5  C   LIG    1       -0.381   1.205  -1.565  0.00  0.00    -0.160 A 
ATOM      6  C   LIG    1        0.490   1.788  -2.471  0.00  0.00    +0.320 A 
ATOM      7  C   LIG    1        1.393   1.008  -3.188  0.00  0.00    -0.170 A 
ATOM      8  C   LIG    1        1.428  -0.346  -3.004  0.00  0.00    +0.140 A 
ATOM      9  O   LIG    1        0.463   3.132  -2.662  0.00  0.00    -0.690 OA
ATOM     10  C   LIG    1        0.557  -0.946  -2.095  0.00  0.00    -0.400 A 
ATOM     11  C   LIG    1        0.345  -2.343  -1.673  0.00  0.00    +0.410 C 
ATOM     12  O   LIG    1        0.932  -3.337  -2.063  0.00  0.00    -0.460 OA
ENDROOT
BRANCH   1  15
ATOM     13  C   LIG    1       -0.919  -7.034  -0.301  0.00  0.00    +0.090 A 
ATOM     14  C   LIG    1       -1.491  -5.782  -0.196  0.00  0.00    -0.010 A 
ATOM     15  C   LIG    1       -0.674  -4.648  -0.108  0.00  0.00    -0.050 A 
ATOM     16  C   LIG    1        0.719  -4.791  -0.117  0.00  0.00    +0.080 A 
ATOM     17  C   LIG    1        1.281  -6.045  -0.217  0.00  0.00    -0.050 A 
ATOM     18  C   LIG    1        0.470  -7.168  -0.309  0.00  0.00    +0.100 A 
BRANCH  18  19
ATOM     19  O   LIG    1        1.030  -8.402  -0.408  0.00  0.00    -0.310 OA
ATOM     20  C   LIG    1        2.458  -8.467  -0.410  0.00  0.00    +0.240 C 
ENDBRANCH  18  19
BRANCH  13  21
ATOM     21  O   LIG    1       -1.709  -8.137  -0.391  0.00  0.00    -0.310 OA
BRANCH  21  23
ATOM     22  C   LIG    1       -3.840  -9.273  -0.486  0.00  0.00    +0.060 C 
ATOM     23  C   LIG    1       -3.122  -7.926  -0.377  0.00  0.00    +0.170 C 
ENDBRANCH  21  23
ENDBRANCH  13  21
ENDBRANCH   1  15
TORSDOF 4
