REMARK  Name = ZINCrD00000hQ4YI.0
REMARK                            x       y       z     vdW  Elec       q    Type
REMARK                         _______ _______ _______ _____ _____    ______ ____
ROOT
ATOM      1  C   LIG    1       -2.369   0.585  -0.611  0.00  0.00    +0.080 C 
ENDROOT
BRANCH   1   5
ATOM      2  C   LIG    1       -6.747   1.319  -2.573  0.00  0.00    +0.520 C 
ATOM      3  N   LIG    1       -5.901   1.567  -1.553  0.00  0.00    -0.600 N 
ATOM      4  C   LIG    1       -4.787   0.652  -1.242  0.00  0.00    +0.260 C 
ATOM      5  C   LIG    1       -3.513   1.488  -1.075  0.00  0.00    +0.160 C 
ATOM      6  O   LIG    1       -3.736   2.513  -0.104  0.00  0.00    -0.360 OA
ATOM      7  C   LIG    1       -4.725   3.475  -0.484  0.00  0.00    +0.240 C 
ATOM      8  C   LIG    1       -6.055   2.756  -0.708  0.00  0.00    +0.110 C 
ATOM      9  C   LIG    1       -7.194   3.681  -1.148  0.00  0.00    +0.050 C 
ATOM     10  C   LIG    1       -8.107   2.859  -0.222  0.00  0.00    +0.010 C 
ATOM     11  C   LIG    1       -6.844   2.499   0.579  0.00  0.00    +0.020 C 
ATOM     12  O   LIG    1       -7.622   2.113  -2.841  0.00  0.00    -0.520 OA
BRANCH   2  14
ATOM     13  C   LIG    1       -7.679   0.018  -4.467  0.00  0.00    +0.040 C 
ATOM     14  C   LIG    1       -6.603   0.054  -3.380  0.00  0.00    +0.030 C 
ENDBRANCH   2  14
ENDBRANCH   1   5
BRANCH   1  15
ATOM     15  C   LIG    1       -1.089   1.380  -0.566  0.00  0.00    +0.520 C 
ATOM     16  N   LIG    1        0.059   0.787  -0.182  0.00  0.00    -0.730 N 
ATOM     17  H   LIG    1        0.061  -0.151   0.066  0.00  0.00    +0.400 HD
ATOM     18  O   LIG    1       -1.091   2.552  -0.875  0.00  0.00    -0.520 OA
BRANCH  16  19
ATOM     19  C   LIG    1        1.305   1.557  -0.144  0.00  0.00    +0.300 C 
BRANCH  19  20
ATOM     20  C   LIG    1        2.449   0.684  -0.590  0.00  0.00    -0.130 A 
ATOM     21  C   LIG    1        2.323  -0.691  -0.557  0.00  0.00    +0.040 A 
ATOM     22  C   LIG    1        3.373  -1.492  -0.967  0.00  0.00    +0.010 A 
ATOM     23  C   LIG    1        4.550  -0.919  -1.409  0.00  0.00    +0.040 A 
ATOM     24  C   LIG    1        4.678   0.457  -1.443  0.00  0.00    -0.010 A 
ATOM     25  C   LIG    1        3.626   1.260  -1.039  0.00  0.00    +0.110 A 
ATOM     26  F   LIG    1        3.748   2.605  -1.077  0.00  0.00    -0.130 F 
ENDBRANCH  19  20
BRANCH  19  27
ATOM     27  C   LIG    1        1.560   2.044   1.284  0.00  0.00    +0.010 C 
ATOM     28  C   LIG    1        0.463   3.029   1.691  0.00  0.00    +0.030 C 
ENDBRANCH  19  27
ENDBRANCH  16  19
ENDBRANCH   1  15
TORSDOF 6
