REMARK  Name = ZINCrH000004lZnW.0
REMARK                            x       y       z     vdW  Elec       q    Type
REMARK                         _______ _______ _______ _____ _____    ______ ____
ROOT
ATOM      1  C   LIG    1       -1.219   1.746   0.024  0.00  0.00    +0.150 A 
ATOM      2  C   LIG    1       -1.230   3.138   0.035  0.00  0.00    +0.020 A 
ATOM      3  C   LIG    1       -0.055   3.845   0.033  0.00  0.00    +0.090 A 
ATOM      4  C   LIG    1        1.185   3.173   0.027  0.00  0.00    +0.090 A 
ATOM      5  N   LIG    1        2.428   3.698   0.025  0.00  0.00    -0.500 NA
ATOM      6  C   LIG    1        3.426   2.883   0.019  0.00  0.00    +0.290 A 
ATOM      7  S   LIG    1        2.859   1.219   0.016  0.00  0.00    +0.090 S 
ATOM      8  C   LIG    1        1.187   1.775   0.022  0.00  0.00    -0.160 A 
ATOM      9  C   LIG    1       -0.012   1.068   0.024  0.00  0.00    +0.080 A 
ENDROOT
BRANCH   6  10
ATOM     10  N   LIG    1        4.754   3.263   0.016  0.00  0.00    -0.450 N 
ATOM     11  C   LIG    1        5.473   2.673   1.154  0.00  0.00    +0.190 C 
ATOM     12  C   LIG    1        6.950   3.071   1.079  0.00  0.00    +0.240 C 
ATOM     13  O   LIG    1        7.054   4.497   1.052  0.00  0.00    -0.380 OA
ATOM     14  C   LIG    1        6.365   5.104  -0.044  0.00  0.00    +0.230 C 
ATOM     15  C   LIG    1        4.883   4.728   0.020  0.00  0.00    +0.200 C 
ENDBRANCH   6  10
BRANCH   1  17
ATOM     16  C   LIG    1       -2.518  -0.129  -0.655  0.00  0.00    +0.560 C 
ATOM     17  N   LIG    1       -2.424   1.033   0.020  0.00  0.00    -0.660 N 
ATOM     18  H   LIG    1       -3.192   1.377   0.502  0.00  0.00    +0.410 HD
ATOM     19  O   LIG    1       -1.534  -0.603  -1.190  0.00  0.00    -0.510 OA
BRANCH  16  22
ATOM     20  C   LIG    1       -5.135  -2.684  -1.523  0.00  0.00    +0.120 A 
ATOM     21  C   LIG    1       -3.916  -2.034  -1.444  0.00  0.00    +0.000 A 
ATOM     22  C   LIG    1       -3.816  -0.830  -0.745  0.00  0.00    -0.110 A 
ATOM     23  C   LIG    1       -4.946  -0.292  -0.127  0.00  0.00    +0.010 A 
ATOM     24  C   LIG    1       -6.158  -0.946  -0.217  0.00  0.00    +0.050 A 
ATOM     25  C   LIG    1       -6.255  -2.139  -0.910  0.00  0.00    -0.080 A 
ATOM     26  C   LIG    1       -7.581  -2.849  -0.998  0.00  0.00    +0.100 C 
BRANCH  20  28
ATOM     27  C   LIG    1       -4.045  -4.361  -2.808  0.00  0.00    +0.240 C 
ATOM     28  O   LIG    1       -5.237  -3.857  -2.202  0.00  0.00    -0.310 OA
ENDBRANCH  20  28
ENDBRANCH  16  22
ENDBRANCH   1  17
TORSDOF 4
