REMARK  Name = ZINCqH0000051aiW.0
REMARK                            x       y       z     vdW  Elec       q    Type
REMARK                         _______ _______ _______ _____ _____    ______ ____
ROOT
ATOM      1  C   LIG    1       -1.520   7.379  -0.158  0.00  0.00    +0.270 C 
ENDROOT
BRANCH   1   3
ATOM      2  O   LIG    1       -2.436   5.206  -0.049  0.00  0.00    -0.490 OA
ATOM      3  C   LIG    1       -1.426   5.878  -0.054  0.00  0.00    +0.520 C 
ATOM      4  N   LIG    1       -0.220   5.283   0.033  0.00  0.00    -0.660 N 
ATOM      5  H   LIG    1        0.583   5.823   0.110  0.00  0.00    +0.420 HD
BRANCH   4   6
ATOM      6  C   LIG    1       -0.125   3.890   0.013  0.00  0.00    +0.190 A 
ATOM      7  C   LIG    1       -1.101   3.147  -0.581  0.00  0.00    +0.040 A 
ATOM      8  C   LIG    1       -1.033   1.756  -0.622  0.00  0.00    +0.070 A 
ATOM      9  C   LIG    1       -0.001   1.077  -0.064  0.00  0.00    +0.050 A 
ATOM     10  C   LIG    1        1.053   1.783   0.572  0.00  0.00    +0.100 A 
ATOM     11  N   LIG    1        2.149   1.350   1.173  0.00  0.00    -0.590 NA
ATOM     12  S   LIG    1        2.964   2.565   1.700  0.00  0.00    +0.810 S 
ATOM     13  N   LIG    1        2.046   3.733   1.240  0.00  0.00    -0.600 NA
ATOM     14  C   LIG    1        0.990   3.241   0.613  0.00  0.00    +0.060 A 
ENDBRANCH   4   6
ENDBRANCH   1   3
BRANCH   1  15
ATOM     15  O   LIG    1       -2.916   7.771  -0.239  0.00  0.00    -0.330 OA
BRANCH  15  16
ATOM     16  C   LIG    1       -3.175   9.085  -0.337  0.00  0.00    +0.480 C 
ATOM     17  O   LIG    1       -2.265   9.880  -0.355  0.00  0.00    -0.480 OA
BRANCH  16  18
ATOM     18  C   LIG    1       -4.600   9.568  -0.425  0.00  0.00    +0.150 C 
BRANCH  18  19
ATOM     19  S   LIG    1       -4.618  11.377  -0.547  0.00  0.00    -0.160 S 
BRANCH  19  20
ATOM     20  C   LIG    1       -6.389  11.762  -0.642  0.00  0.00    +0.140 C 
BRANCH  20  21
ATOM     21  C   LIG    1       -6.574  13.253  -0.749  0.00  0.00    -0.060 A 
ATOM     22  C   LIG    1       -6.711  14.016   0.395  0.00  0.00    +0.030 A 
ATOM     23  C   LIG    1       -6.876  15.386   0.298  0.00  0.00    +0.030 A 
ATOM     24  C   LIG    1       -6.914  15.991  -0.944  0.00  0.00    +0.040 A 
ATOM     25  C   LIG    1       -6.782  15.227  -2.090  0.00  0.00    -0.030 A 
ATOM     26 CL   LIG    1       -6.830  15.986  -3.650  0.00  0.00    -0.060 Cl
ATOM     27  C   LIG    1       -6.612  13.857  -1.992  0.00  0.00    +0.050 A 
ENDBRANCH  20  21
ENDBRANCH  19  20
ENDBRANCH  18  19
ENDBRANCH  16  18
ENDBRANCH  15  16
ENDBRANCH   1  15
TORSDOF 8
