REMARK  Name = ZINCqH0000004cpP.0
REMARK                            x       y       z     vdW  Elec       q    Type
REMARK                         _______ _______ _______ _____ _____    ______ ____
ROOT
ATOM      1  N   LIG    1       -2.636  -2.181   1.440  0.00  0.00    -0.740 N 
ATOM      2  H   LIG    1       -2.887  -2.009   2.361  0.00  0.00    +0.400 HD
ATOM      3  C   LIG    1       -2.525  -1.158   0.570  0.00  0.00    +0.700 C 
ATOM      4  N   LIG    1       -2.761   0.104   0.979  0.00  0.00    -0.740 N 
ATOM      5  H   LIG    1       -3.012   0.277   1.900  0.00  0.00    +0.400 HD
ATOM      6  O   LIG    1       -2.211  -1.373  -0.585  0.00  0.00    -0.590 OA
ENDROOT
BRANCH   4   7
ATOM      7  C   LIG    1       -2.640   1.216   0.033  0.00  0.00    +0.310 C 
ATOM      8  C   LIG    1       -3.515   2.404   0.487  0.00  0.00    +0.050 C 
ATOM      9  C   LIG    1       -2.675   3.621   0.046  0.00  0.00    +0.080 C 
ATOM     10  C   LIG    1       -1.243   3.130   0.031  0.00  0.00    -0.120 A 
ATOM     11  C   LIG    1       -0.048   3.838   0.023  0.00  0.00    +0.110 A 
ATOM     12  C   LIG    1        1.162   3.160   0.008  0.00  0.00    -0.010 A 
ATOM     13  C   LIG    1        1.177   1.779   0.000  0.00  0.00    +0.020 A 
ATOM     14  C   LIG    1       -0.013   1.076   0.008  0.00  0.00    +0.030 A 
ATOM     15  C   LIG    1       -1.223   1.748   0.017  0.00  0.00    -0.100 A 
BRANCH  11  16
ATOM     16  O   LIG    1       -0.064   5.197   0.031  0.00  0.00    -0.500 OA
ATOM     17  H   LIG    1       -0.077   5.595  -0.850  0.00  0.00    +0.390 HD
ENDBRANCH  11  16
ENDBRANCH   4   7
BRANCH   1  18
ATOM     18  C   LIG    1       -2.379  -3.553   0.995  0.00  0.00    +0.270 C 
BRANCH  18  19
ATOM     19  C   LIG    1       -2.574  -4.514   2.169  0.00  0.00    +0.170 C 
BRANCH  19  20
ATOM     20  C   LIG    1       -2.191  -5.909   1.744  0.00  0.00    -0.090 A 
ATOM     21  C   LIG    1       -0.888  -6.344   1.897  0.00  0.00    +0.040 A 
ATOM     22  C   LIG    1       -0.537  -7.625   1.512  0.00  0.00    +0.050 A 
ATOM     23  C   LIG    1       -1.488  -8.467   0.965  0.00  0.00    -0.090 A 
ATOM     24  C   LIG    1       -2.791  -8.029   0.808  0.00  0.00    +0.050 A 
ATOM     25 BR   LIG    1       -1.008 -10.217   0.432  0.00  0.00    -0.050 Br
ATOM     26  C   LIG    1       -3.142  -6.750   1.198  0.00  0.00    +0.030 A 
ENDBRANCH  19  20
BRANCH  19  28
ATOM     27  C   LIG    1       -1.789  -5.106   4.466  0.00  0.00    +0.020 C 
ATOM     28  C   LIG    1       -1.690  -4.077   3.339  0.00  0.00    +0.040 C 
ENDBRANCH  19  28
BRANCH  19  29
ATOM     29  O   LIG    1       -3.944  -4.499   2.575  0.00  0.00    -0.540 OA
ATOM     30  H   LIG    1       -4.562  -4.766   1.882  0.00  0.00    +0.380 HD
ENDBRANCH  19  29
ENDBRANCH  18  19
ENDBRANCH   1  18
TORSDOF 7
