REMARK  Name = ZINCpe000000UkeR.0
REMARK                            x       y       z     vdW  Elec       q    Type
REMARK                         _______ _______ _______ _____ _____    ______ ____
ROOT
ATOM      1  C   LIG    1       -2.257  -0.894  -0.172  0.00  0.00    +0.600 C 
ATOM      2  N   LIG    1       -1.133  -0.779   0.561  0.00  0.00    -0.710 N 
ATOM      3  H   LIG    1       -1.149  -0.983   1.509  0.00  0.00    +0.410 HD
ATOM      4  O   LIG    1       -2.262  -0.545  -1.337  0.00  0.00    -0.530 OA
ENDROOT
BRANCH   1   9
ATOM      5  N   LIG    1       -4.665  -1.699  -0.193  0.00  0.00    -0.250 N 
ATOM      6  N   LIG    1       -5.507  -2.176   0.652  0.00  0.00    -0.260 NA
ATOM      7  C   LIG    1       -4.977  -2.257   1.845  0.00  0.00    +0.060 A 
ATOM      8  C   LIG    1       -3.662  -1.793   1.762  0.00  0.00    -0.020 A 
ATOM      9  C   LIG    1       -3.480  -1.442   0.436  0.00  0.00    -0.040 A 
BRANCH   7  10
ATOM     10  C   LIG    1       -5.664  -2.761   3.088  0.00  0.00    +0.040 C 
ATOM     11  C   LIG    1       -4.781  -3.131   4.282  0.00  0.00    +0.030 C 
ATOM     12  C   LIG    1       -5.460  -4.231   3.462  0.00  0.00    +0.020 C 
ENDBRANCH   7  10
BRANCH   5  14
ATOM     13  C   LIG    1       -4.594  -2.735  -2.407  0.00  0.00    +0.040 C 
ATOM     14  C   LIG    1       -4.933  -1.471  -1.615  0.00  0.00    +0.330 C 
ENDBRANCH   5  14
ENDBRANCH   1   9
BRANCH   2  15
ATOM     15  C   LIG    1        0.115  -0.348  -0.074  0.00  0.00    +0.250 C 
ATOM     16  C   LIG    1        0.211   1.200  -0.101  0.00  0.00    +0.040 C 
ATOM     17  C   LIG    1        1.745   1.416  -0.135  0.00  0.00    +0.280 C 
ATOM     18  N   LIG    1        2.294   0.356   0.730  0.00  0.00    -0.600 N 
ATOM     19  C   LIG    1        1.333  -0.755   0.782  0.00  0.00    +0.270 C 
BRANCH  18  20
ATOM     20  C   LIG    1        3.509   0.399   1.382  0.00  0.00    +0.470 A 
ATOM     21  C   LIG    1        4.333   1.505   1.249  0.00  0.00    -0.240 A 
ATOM     22  C   LIG    1        5.558   1.511   1.931  0.00  0.00    +0.530 A 
ATOM     23  N   LIG    1        5.887   0.439   2.682  0.00  0.00    -0.640 N 
ATOM     24  H   LIG    1        6.732   0.424   3.158  0.00  0.00    +0.420 HD
ATOM     25  C   LIG    1        5.048  -0.613   2.772  0.00  0.00    +0.620 A 
ATOM     26  O   LIG    1        6.313   2.466   1.845  0.00  0.00    -0.550 OA
ATOM     27  N   LIG    1        3.904  -0.632   2.146  0.00  0.00    -0.570 NA
ENDBRANCH  18  20
ENDBRANCH   2  15
TORSDOF 5
