REMARK  Name = ZINCpe00000MJMoP.0
REMARK                            x       y       z     vdW  Elec       q    Type
REMARK                         _______ _______ _______ _____ _____    ______ ____
ROOT
ATOM      1  C   LIG    1       -3.702   4.075   0.060  0.00  0.00    +0.620 C 
ATOM      2  N   LIG    1       -4.348   3.920   1.232  0.00  0.00    -0.600 N 
ATOM      3  C   LIG    1       -3.613   4.076   2.478  0.00  0.00    +0.280 C 
ATOM      4  C   LIG    1       -3.896   2.935   3.428  0.00  0.00    +0.000 C 
ATOM      5  C   LIG    1       -5.356   2.570   3.569  0.00  0.00    +0.240 C 
ATOM      6  C   LIG    1       -6.189   2.670   2.311  0.00  0.00    +0.200 C 
ATOM      7  N   LIG    1       -6.421   1.292   1.883  0.00  0.00    -0.730 N 
ATOM      8  H   LIG    1       -6.811   1.014   1.040  0.00  0.00    +0.430 HD
ATOM      9  C   LIG    1       -5.998   0.478   2.867  0.00  0.00    +0.700 C 
ATOM     10  O   LIG    1       -6.120  -0.731   2.827  0.00  0.00    -0.580 OA
ATOM     11  N   LIG    1       -5.428   1.123   3.895  0.00  0.00    -0.640 N 
ATOM     12  C   LIG    1       -4.956   0.503   5.136  0.00  0.00    +0.330 C 
ATOM     13  C   LIG    1       -5.766   3.608   1.228  0.00  0.00    +0.290 C 
ATOM     14  O   LIG    1       -4.306   3.948  -0.990  0.00  0.00    -0.520 OA
ENDROOT
BRANCH   1  21
ATOM     15  C   LIG    1        2.433   4.369   0.002  0.00  0.00    +0.160 C 
ATOM     16  C   LIG    1        1.152   3.575   0.010  0.00  0.00    +0.200 A 
ATOM     17  C   LIG    1        1.185   2.218   0.003  0.00  0.00    -0.060 A 
ATOM     18  C   LIG    1       -0.018   1.503   0.010  0.00  0.00    +0.220 A 
ATOM     19  N   LIG    1       -1.167   2.144   0.019  0.00  0.00    -0.470 NA
ATOM     20  C   LIG    1       -1.206   3.477   0.032  0.00  0.00    +0.310 A 
ATOM     21  C   LIG    1       -2.272   4.397   0.048  0.00  0.00    -0.290 A 
ATOM     22  C   LIG    1       -1.703   5.683   0.050  0.00  0.00    +0.160 A 
ATOM     23  N   LIG    1       -0.401   5.566   0.036  0.00  0.00    -0.310 NA
ATOM     24  C   LIG    1       -2.467   6.981   0.064  0.00  0.00    +0.180 C 
ATOM     25  C   LIG    1        0.002  -0.004   0.002  0.00  0.00    +0.160 C 
ATOM     26  N   LIG    1       -0.053   4.210   0.025  0.00  0.00    -0.310 N 
ENDBRANCH   1  21
TORSDOF 1
