REMARK  Name = ZINCvU0000000Bgp.0
REMARK                            x       y       z     vdW  Elec       q    Type
REMARK                         _______ _______ _______ _____ _____    ______ ____
ROOT
ATOM      1  N   LIG    1       -2.458   3.835   0.046  0.00  0.00    -0.410 N 
ATOM      2  C   LIG    1       -3.172   4.231   1.146  0.00  0.00    +0.180 A 
ATOM      3  N   LIG    1       -4.249   4.845   0.711  0.00  0.00    -0.290 NA
ATOM      4  N   LIG    1       -4.265   4.855  -0.574  0.00  0.00    -0.260 NA
ATOM      5  C   LIG    1       -3.195   4.251  -1.043  0.00  0.00    +0.270 A 
ENDROOT
BRANCH   1  11
ATOM      6  C   LIG    1       -1.222   1.752   0.017  0.00  0.00    +0.160 A 
ATOM      7  C   LIG    1       -0.013   1.076   0.008  0.00  0.00    -0.060 A 
ATOM      8  C   LIG    1        1.175   1.783   0.000  0.00  0.00    +0.090 A 
ATOM      9  C   LIG    1        1.161   3.166   0.008  0.00  0.00    -0.010 A 
ATOM     10  C   LIG    1       -0.041   3.848   0.023  0.00  0.00    +0.090 A 
ATOM     11  C   LIG    1       -1.237   3.145   0.031  0.00  0.00    +0.050 A 
BRANCH   6  13
ATOM     12  C   LIG    1       -2.298  -0.368   0.010  0.00  0.00    +0.250 C 
ATOM     13  O   LIG    1       -2.391   1.058   0.019  0.00  0.00    -0.310 OA
ENDBRANCH   6  13
ENDBRANCH   1  11
BRANCH   5  14
ATOM     14  C   LIG    1       -2.849   4.056  -2.460  0.00  0.00    -0.130 A 
ATOM     15  C   LIG    1       -3.701   4.204  -3.498  0.00  0.00    +0.070 A 
ATOM     16  C   LIG    1       -3.143   3.970  -4.737  0.00  0.00    +0.010 A 
ATOM     17  C   LIG    1       -1.852   3.625  -4.721  0.00  0.00    -0.030 A 
ATOM     18  S   LIG    1       -1.265   3.587  -3.064  0.00  0.00    +0.140 S 
ENDBRANCH   5  14
BRANCH   2  19
ATOM     19  S   LIG    1       -2.727   3.970   2.830  0.00  0.00    +0.010 S 
BRANCH  19  20
ATOM     20  C   LIG    1       -4.133   4.759   3.653  0.00  0.00    +0.090 C 
BRANCH  20  21
ATOM     21  C   LIG    1       -3.961   4.653   5.170  0.00  0.00    +0.060 C 
BRANCH  21  22
ATOM     22  C   LIG    1       -5.150   5.320   5.865  0.00  0.00    +0.060 C 
BRANCH  22  23
ATOM     23  C   LIG    1       -4.981   5.215   7.359  0.00  0.00    +0.400 C 
ATOM     24  O   LIG    1       -4.006   4.662   7.822  0.00  0.00    -0.450 OA
BRANCH  23  25
ATOM     25  C   LIG    1       -5.998   5.784   8.255  0.00  0.00    -0.180 A 
ATOM     26  C   LIG    1       -7.121   6.428   7.724  0.00  0.00    +0.100 A 
ATOM     27  C   LIG    1       -8.072   6.956   8.570  0.00  0.00    -0.030 A 
ATOM     28  C   LIG    1       -7.914   6.858   9.944  0.00  0.00    +0.130 A 
ATOM     29  C   LIG    1       -6.801   6.224  10.477  0.00  0.00    -0.030 A 
ATOM     30  F   LIG    1       -8.848   7.381  10.768  0.00  0.00    -0.130 F 
ATOM     31  C   LIG    1       -5.844   5.689   9.643  0.00  0.00    +0.110 A 
ENDBRANCH  23  25
ENDBRANCH  22  23
ENDBRANCH  21  22
ENDBRANCH  20  21
ENDBRANCH  19  20
ENDBRANCH   2  19
TORSDOF 9
