REMARK  Name = ZINCpk00000xI9JN.0
REMARK                            x       y       z     vdW  Elec       q    Type
REMARK                         _______ _______ _______ _____ _____    ______ ____
ROOT
ATOM      1  N   LIG    1        5.222   1.218   0.078  0.00  0.00    -0.550 N 
ATOM      2  C   LIG    1        6.017   0.878   1.111  0.00  0.00    +0.640 A 
ATOM      3  O   LIG    1        6.889  -0.062   0.713  0.00  0.00    -0.220 OA
ATOM      4  C   LIG    1        6.676  -0.341  -0.596  0.00  0.00    +0.100 A 
ATOM      5  C   LIG    1        7.283  -1.212  -1.487  0.00  0.00    +0.100 A 
ATOM      6  C   LIG    1        6.838  -1.281  -2.794  0.00  0.00    +0.140 A 
ATOM      7  C   LIG    1        5.789  -0.484  -3.217  0.00  0.00    -0.020 A 
ATOM      8  C   LIG    1        5.178   0.387  -2.336  0.00  0.00    +0.120 A 
ATOM      9  O   LIG    1        5.953   1.347   2.231  0.00  0.00    -0.450 OA
ATOM     10  C   LIG    1        5.619   0.462  -1.024  0.00  0.00    +0.060 A 
ENDROOT
BRANCH   7  11
ATOM     11  N   LIG    1        5.319  -0.566  -4.618  0.00  0.00    +0.030 N 
ATOM     12  O   LIG    1        4.462   0.201  -5.019  0.00  0.00    -0.150 OA
ATOM     13  O   LIG    1        5.790  -1.400  -5.371  0.00  0.00    -0.140 OA
ENDBRANCH   7  11
BRANCH   1  14
ATOM     14  C   LIG    1        4.141   2.207   0.106  0.00  0.00    +0.520 C 
BRANCH  14  20
ATOM     15  C   LIG    1        1.755   2.054  -0.254  0.00  0.00    +0.200 C 
ATOM     16  C   LIG    1        0.445   1.717   0.466  0.00  0.00    +0.160 C 
ATOM     17  S   LIG    1        0.300  -0.092   0.584  0.00  0.00    -0.230 S 
ATOM     18  C   LIG    1        1.907  -0.551   1.302  0.00  0.00    +0.140 C 
ATOM     19  C   LIG    1        3.016   0.098   0.467  0.00  0.00    +0.210 C 
ATOM     20  N   LIG    1        2.892   1.556   0.524  0.00  0.00    -0.540 NA
BRANCH  15  21
ATOM     21  C   LIG    1        1.871   3.549  -0.410  0.00  0.00    +0.460 C 
ATOM     22  O   LIG    1        2.410   4.206   0.449  0.00  0.00    -0.480 OA
BRANCH  21  23
ATOM     23  O   LIG    1        1.375   4.150  -1.502  0.00  0.00    -0.350 OA
BRANCH  23  25
ATOM     24  C   LIG    1        1.090   6.055  -2.992  0.00  0.00    +0.060 C 
ATOM     25  C   LIG    1        1.621   5.574  -1.640  0.00  0.00    +0.210 C 
ENDBRANCH  23  25
ENDBRANCH  21  23
ENDBRANCH  15  21
ENDBRANCH  14  20
ENDBRANCH   1  14
TORSDOF 6
