REMARK  Name = ZINCpe000000Szg7.0
REMARK                            x       y       z     vdW  Elec       q    Type
REMARK                         _______ _______ _______ _____ _____    ______ ____
ROOT
ATOM      1  O   LIG    1        5.806  -1.545   2.764  0.00  0.00    -0.290 OA
ENDROOT
BRANCH   1   2
ATOM      2  C   LIG    1        5.319  -0.456   2.114  0.00  0.00    +0.160 A 
ATOM      3  C   LIG    1        6.115   0.667   1.946  0.00  0.00    -0.110 A 
ATOM      4  C   LIG    1        5.621   1.776   1.285  0.00  0.00    +0.080 A 
ATOM      5  C   LIG    1        4.334   1.766   0.782  0.00  0.00    -0.060 A 
ATOM      6  C   LIG    1        3.530   0.645   0.952  0.00  0.00    +0.210 A 
ATOM      7  C   LIG    1        4.025  -0.468   1.616  0.00  0.00    -0.030 A 
BRANCH   6   8
ATOM      8  N   LIG    1        2.224   0.638   0.448  0.00  0.00    -0.560 N 
ATOM      9  C   LIG    1        1.566   1.798  -0.164  0.00  0.00    +0.270 C 
ATOM     10  C   LIG    1        0.057   1.465  -0.159  0.00  0.00    +0.060 C 
ATOM     11  C   LIG    1        0.075  -0.081  -0.151  0.00  0.00    +0.070 C 
ATOM     12  C   LIG    1        1.412  -0.433   0.463  0.00  0.00    +0.510 C 
ATOM     13  O   LIG    1        1.708  -1.523   0.905  0.00  0.00    -0.500 OA
ENDBRANCH   6   8
ENDBRANCH   1   2
BRANCH   1  14
ATOM     14  C   LIG    1        7.148  -1.463   3.250  0.00  0.00    +0.240 C 
BRANCH  14  22
ATOM     15  C   LIG    1       12.757  -1.739   7.069  0.00  0.00    +0.100 C 
ATOM     16  C   LIG    1       11.797  -2.900   7.039  0.00  0.00    +0.510 C 
ATOM     17  N   LIG    1       10.572  -2.747   6.499  0.00  0.00    -0.620 N 
ATOM     18  C   LIG    1        9.581  -3.830   6.574  0.00  0.00    +0.290 C 
ATOM     19  C   LIG    1        9.107  -4.159   5.153  0.00  0.00    +0.290 C 
ATOM     20  N   LIG    1        8.738  -2.906   4.479  0.00  0.00    -0.610 N 
ATOM     21  C   LIG    1        9.730  -1.825   4.399  0.00  0.00    +0.270 C 
ATOM     22  C   LIG    1        7.512  -2.753   3.938  0.00  0.00    +0.520 C 
ATOM     23  O   LIG    1        6.703  -3.654   4.006  0.00  0.00    -0.510 OA
ATOM     24  C   LIG    1       10.202  -1.494   5.825  0.00  0.00    +0.280 C 
ATOM     25  O   LIG    1       12.127  -3.972   7.500  0.00  0.00    -0.540 OA
ENDBRANCH  14  22
ENDBRANCH   1  14
TORSDOF 4
