REMARK  Name = ZINCrH000004tPCU.0
REMARK                            x       y       z     vdW  Elec       q    Type
REMARK                         _______ _______ _______ _____ _____    ______ ____
ROOT
ATOM      1  O   LIG    1       -5.388   2.148  -5.405  0.00  0.00    -0.480 OA
ATOM      2  C   LIG    1       -6.205   3.030  -5.568  0.00  0.00    +0.510 C 
ATOM      3  N   LIG    1       -6.576   3.804  -4.529  0.00  0.00    -0.670 N 
ATOM      4  H   LIG    1       -7.284   4.458  -4.640  0.00  0.00    +0.420 HD
ENDROOT
BRANCH   3   5
ATOM      5  C   LIG    1       -5.941   3.665  -3.290  0.00  0.00    +0.150 A 
ATOM      6  C   LIG    1       -6.655   3.867  -2.116  0.00  0.00    +0.000 A 
ATOM      7  C   LIG    1       -6.032   3.731  -0.890  0.00  0.00    +0.050 A 
ATOM      8  C   LIG    1       -4.696   3.389  -0.824  0.00  0.00    +0.000 A 
ATOM      9  C   LIG    1       -3.969   3.189  -1.998  0.00  0.00    +0.000 A 
ATOM     10  C   LIG    1       -4.597   3.326  -3.234  0.00  0.00    +0.070 A 
BRANCH   9  11
ATOM     11  C   LIG    1       -2.536   2.827  -1.930  0.00  0.00    +0.240 A 
ATOM     12  N   LIG    1       -1.670   2.871  -2.918  0.00  0.00    -0.260 NA
ATOM     13  N   LIG    1       -0.516   2.487  -2.501  0.00  0.00    -0.280 NA
ATOM     14  C   LIG    1       -0.579   2.180  -1.231  0.00  0.00    +0.160 A 
ATOM     15  C   LIG    1        0.255   1.686  -0.069  0.00  0.00    +0.170 C 
ATOM     16  C   LIG    1       -0.590   2.021   1.181  0.00  0.00    +0.070 C 
ATOM     17  C   LIG    1       -2.022   2.052   0.594  0.00  0.00    +0.300 C 
ATOM     18  N   LIG    1       -1.859   2.381  -0.826  0.00  0.00    -0.500 N 
ENDBRANCH   9  11
ENDBRANCH   3   5
BRANCH   2  19
ATOM     19  C   LIG    1       -6.804   3.260  -6.931  0.00  0.00    +0.240 C 
BRANCH  19  20
ATOM     20  O   LIG    1       -6.256   2.320  -7.857  0.00  0.00    -0.280 OA
BRANCH  20  21
ATOM     21  C   LIG    1       -6.694   2.392  -9.142  0.00  0.00    +0.130 A 
ATOM     22  C   LIG    1       -6.203   1.510 -10.093  0.00  0.00    +0.040 A 
ATOM     23  C   LIG    1       -6.650   1.583 -11.399  0.00  0.00    +0.060 A 
ATOM     24  C   LIG    1       -7.588   2.535 -11.758  0.00  0.00    +0.070 A 
ATOM     25  C   LIG    1       -8.079   3.418 -10.809  0.00  0.00    -0.030 A 
ATOM     26 CL   LIG    1       -9.255   4.612 -11.261  0.00  0.00    -0.040 Cl
ATOM     27  F   LIG    1       -8.023   2.606 -13.035  0.00  0.00    -0.130 F 
ATOM     28  C   LIG    1       -7.638   3.343  -9.501  0.00  0.00    -0.030 A 
ENDBRANCH  20  21
ENDBRANCH  19  20
ENDBRANCH   2  19
TORSDOF 5
