REMARK  Name = ZINCqH0000051rKE.0
REMARK                            x       y       z     vdW  Elec       q    Type
REMARK                         _______ _______ _______ _____ _____    ______ ____
ROOT
ATOM      1  O   LIG    1       -1.089   1.906  -0.304  0.00  0.00    -0.500 OA
ATOM      2  C   LIG    1       -0.026   1.334  -0.159  0.00  0.00    +0.610 C 
ATOM      3  N   LIG    1        0.002  -0.004   0.002  0.00  0.00    -0.660 N 
ATOM      4  H   LIG    1        0.852  -0.470   0.039  0.00  0.00    +0.430 HD
ENDROOT
BRANCH   3   5
ATOM      5  C   LIG    1       -1.195  -0.721   0.115  0.00  0.00    +0.190 A 
ATOM      6  C   LIG    1       -1.284  -2.008  -0.397  0.00  0.00    +0.020 A 
ATOM      7  C   LIG    1       -2.463  -2.718  -0.281  0.00  0.00    +0.090 A 
ATOM      8  C   LIG    1       -3.562  -2.142   0.338  0.00  0.00    +0.070 A 
ATOM      9  C   LIG    1       -3.476  -0.850   0.847  0.00  0.00    +0.130 A 
ATOM     10  F   LIG    1       -4.546  -0.289   1.450  0.00  0.00    -0.120 F 
ATOM     11  C   LIG    1       -2.295  -0.142   0.735  0.00  0.00    +0.020 A 
BRANCH   8  12
ATOM     12  N   LIG    1       -4.762  -2.862   0.451  0.00  0.00    -0.420 N 
ATOM     13  C   LIG    1       -5.416  -3.520  -0.558  0.00  0.00    +0.130 A 
ATOM     14  C   LIG    1       -6.517  -4.073  -0.014  0.00  0.00    +0.160 A 
ATOM     15  N   LIG    1       -6.540  -3.764   1.290  0.00  0.00    -0.480 NA
ATOM     16  C   LIG    1       -5.491  -3.043   1.582  0.00  0.00    +0.410 A 
ENDBRANCH   8  12
ENDBRANCH   3   5
BRANCH   2  17
ATOM     17  C   LIG    1        1.232   2.102  -0.164  0.00  0.00    -0.070 A 
ATOM     18  C   LIG    1        1.356   3.448  -0.321  0.00  0.00    +0.060 A 
ATOM     19  O   LIG    1        2.667   3.730  -0.261  0.00  0.00    -0.190 OA
ATOM     20  C   LIG    1        3.335   2.582  -0.079  0.00  0.00    +0.460 A 
ATOM     21  N   LIG    1        2.487   1.599  -0.020  0.00  0.00    -0.470 NA
BRANCH  18  22
ATOM     22  C   LIG    1        0.235   4.436  -0.522  0.00  0.00    +0.190 C 
BRANCH  22  23
ATOM     23  C   LIG    1       -0.245   4.945   0.838  0.00  0.00    +0.070 C 
BRANCH  23  24
ATOM     24  C   LIG    1       -1.383   5.947   0.634  0.00  0.00    +0.460 C 
ATOM     25  F   LIG    1       -0.925   7.024  -0.132  0.00  0.00    -0.180 F 
ATOM     26  F   LIG    1       -1.823   6.414   1.878  0.00  0.00    -0.180 F 
ATOM     27  F   LIG    1       -2.443   5.321  -0.029  0.00  0.00    -0.180 F 
ENDBRANCH  23  24
ENDBRANCH  22  23
ENDBRANCH  18  22
ENDBRANCH   2  17
TORSDOF 6
