REMARK  Name = ZINCrD000000CH7S.0
REMARK                            x       y       z     vdW  Elec       q    Type
REMARK                         _______ _______ _______ _____ _____    ______ ____
ROOT
ATOM      1  O   LIG    1       -5.291   5.493   0.580  0.00  0.00    -0.480 OA
ATOM      2  C   LIG    1       -5.354   4.281   0.650  0.00  0.00    +0.570 C 
ATOM      3  N   LIG    1       -6.532   3.656   0.455  0.00  0.00    -0.610 N 
ATOM      4  C   LIG    1       -6.795   2.224   0.690  0.00  0.00    +0.250 C 
ATOM      5  C   LIG    1       -8.322   2.135   0.932  0.00  0.00    +0.040 C 
ATOM      6  C   LIG    1       -8.858   3.195  -0.067  0.00  0.00    +0.040 C 
ATOM      7  C   LIG    1       -7.770   4.290  -0.022  0.00  0.00    +0.230 C 
ENDROOT
BRANCH   2   8
ATOM      8  C   LIG    1       -4.141   3.493   0.949  0.00  0.00    -0.240 A 
ATOM      9  C   LIG    1       -2.959   4.123   1.359  0.00  0.00    +0.400 A 
ATOM     10  N   LIG    1       -1.896   3.384   1.617  0.00  0.00    -0.480 NA
ATOM     11  C   LIG    1       -1.938   2.064   1.492  0.00  0.00    +0.380 A 
ATOM     12  N   LIG    1       -3.036   1.431   1.101  0.00  0.00    -0.510 NA
ATOM     13  C   LIG    1       -4.142   2.098   0.829  0.00  0.00    +0.350 A 
BRANCH  11  14
ATOM     14  C   LIG    1       -0.719   1.273   1.792  0.00  0.00    +0.160 A 
ATOM     15  C   LIG    1       -0.747  -0.113   1.665  0.00  0.00    +0.030 A 
ATOM     16  C   LIG    1        0.401  -0.838   1.943  0.00  0.00    +0.060 A 
ATOM     17  C   LIG    1        1.538  -0.150   2.339  0.00  0.00    -0.010 A 
ATOM     18  C   LIG    1        1.494   1.230   2.444  0.00  0.00    +0.260 A 
ATOM     19  N   LIG    1        0.390   1.894   2.174  0.00  0.00    -0.440 NA
ENDBRANCH  11  14
ENDBRANCH   2   8
BRANCH   7  20
ATOM     20  C   LIG    1       -7.555   4.863  -1.424  0.00  0.00    +0.000 C 
BRANCH  20  21
ATOM     21  C   LIG    1       -6.542   6.007  -1.357  0.00  0.00    +0.310 C 
BRANCH  21  22
ATOM     22  C   LIG    1       -6.468   6.692  -2.697  0.00  0.00    -0.210 A 
ATOM     23  C   LIG    1       -5.577   6.421  -3.652  0.00  0.00    +0.000 A 
ATOM     24  C   LIG    1       -5.704   7.181  -4.802  0.00  0.00    +0.010 A 
ATOM     25  C   LIG    1       -6.699   8.069  -4.781  0.00  0.00    -0.050 A 
ATOM     26  S   LIG    1       -7.550   7.966  -3.245  0.00  0.00    +0.100 S 
ENDBRANCH  21  22
BRANCH  21  27
ATOM     27  O   LIG    1       -6.951   6.948  -0.363  0.00  0.00    -0.520 OA
ATOM     28  H   LIG    1       -7.817   7.344  -0.529  0.00  0.00    +0.360 HD
ENDBRANCH  21  27
ENDBRANCH  20  21
ENDBRANCH   7  20
TORSDOF 6
