REMARK  Name = ZINCrH000004v3jB.0
REMARK                            x       y       z     vdW  Elec       q    Type
REMARK                         _______ _______ _______ _____ _____    ______ ____
ROOT
ATOM      1  O   LIG    1       -0.029   0.002   0.328  0.00  0.00    -0.510 OA
ATOM      2  C   LIG    1       -0.027   1.206   0.178  0.00  0.00    +0.530 C 
ATOM      3  N   LIG    1       -1.191   1.867   0.018  0.00  0.00    -0.670 N 
ATOM      4  H   LIG    1       -1.196   2.836  -0.025  0.00  0.00    +0.420 HD
ENDROOT
BRANCH   2   5
ATOM      5  C   LIG    1        1.277   1.961   0.165  0.00  0.00    +0.010 C 
ATOM      6  C   LIG    1        1.366   2.932   1.365  0.00  0.00    +0.070 C 
ATOM      7  C   LIG    1        2.820   2.874   1.780  0.00  0.00    +0.520 C 
ATOM      8  N   LIG    1        3.413   1.794   1.241  0.00  0.00    -0.610 N 
ATOM      9  O   LIG    1        3.371   3.684   2.495  0.00  0.00    -0.520 OA
ATOM     10  C   LIG    1        2.467   1.014   0.435  0.00  0.00    +0.300 C 
BRANCH   8  11
ATOM     11  C   LIG    1        4.822   1.442   1.435  0.00  0.00    +0.350 C 
BRANCH  11  12
ATOM     12  C   LIG    1        5.653   2.084   0.354  0.00  0.00    -0.110 A 
ATOM     13  C   LIG    1        5.891   1.409  -0.828  0.00  0.00    +0.010 A 
ATOM     14  C   LIG    1        6.650   1.999  -1.821  0.00  0.00    +0.000 A 
ATOM     15  C   LIG    1        7.178   3.262  -1.628  0.00  0.00    +0.010 A 
ATOM     16  C   LIG    1        6.944   3.936  -0.444  0.00  0.00    +0.000 A 
ATOM     17  C   LIG    1        6.182   3.347   0.547  0.00  0.00    +0.030 A 
ENDBRANCH  11  12
ENDBRANCH   8  11
ENDBRANCH   2   5
BRANCH   3  18
ATOM     18  C   LIG    1       -2.390   1.156  -0.086  0.00  0.00    +0.160 A 
ATOM     19  C   LIG    1       -2.407  -0.089  -0.705  0.00  0.00    +0.020 A 
ATOM     20  C   LIG    1       -3.587  -0.794  -0.804  0.00  0.00    +0.060 A 
ATOM     21  C   LIG    1       -4.767  -0.253  -0.292  0.00  0.00    -0.040 A 
ATOM     22  C   LIG    1       -4.747   1.000   0.324  0.00  0.00    +0.090 A 
ATOM     23  C   LIG    1       -3.563   1.698   0.425  0.00  0.00    +0.000 A 
BRANCH  21  24
ATOM     24  C   LIG    1       -6.035  -1.004  -0.402  0.00  0.00    +0.120 A 
ATOM     25  N   LIG    1       -7.192  -0.603   0.043  0.00  0.00    -0.470 NA
ATOM     26  C   LIG    1       -8.215  -1.405  -0.149  0.00  0.00    +0.220 A 
ATOM     27  C   LIG    1       -7.945  -2.555  -0.774  0.00  0.00    -0.070 A 
ATOM     28  S   LIG    1       -6.223  -2.589  -1.148  0.00  0.00    +0.090 S 
ENDBRANCH  21  24
ENDBRANCH   3  18
TORSDOF 5
