REMARK  Name = ZINCah0000002zgH.0
REMARK                            x       y       z     vdW  Elec       q    Type
REMARK                         _______ _______ _______ _____ _____    ______ ____
ROOT
ATOM      1  C   LIG    1        1.735   1.777  -0.005  0.00  0.00    -0.390 A 
ATOM      2  C   LIG    1        2.240   0.497  -0.017  0.00  0.00    +0.300 A 
ATOM      3  C   LIG    1        1.253  -0.471  -0.012  0.00  0.00    -0.050 A 
ATOM      4  C   LIG    1        0.002  -0.004   0.002  0.00  0.00    +0.000 A 
ATOM      5  S   LIG    1       -0.021   1.701   0.011  0.00  0.00    +0.240 S 
ENDROOT
BRANCH   2   6
ATOM      6  N   LIG    1        3.601   0.207  -0.031  0.00  0.00    -0.830 N 
ATOM      7  H   LIG    1        4.250   0.928  -0.034  0.00  0.00    +0.420 HD
ATOM      8  H   LIG    1        3.900  -0.716  -0.039  0.00  0.00    +0.400 HD
ENDBRANCH   2   6
BRANCH   1   9
ATOM      9  C   LIG    1        2.505   2.962  -0.006  0.00  0.00    +0.550 C 
ATOM     10  O   LIG    1        3.720   2.898  -0.018  0.00  0.00    -0.530 OA
BRANCH   9  12
ATOM     11  C   LIG    1        2.732   5.321   0.005  0.00  0.00    +0.260 C 
ATOM     12  O   LIG    1        1.892   4.165   0.007  0.00  0.00    -0.350 OA
ENDBRANCH   9  12
ENDBRANCH   1   9
TORSDOF 3
