REMARK  Name = ZINCrH000004tvHJ.0
REMARK                            x       y       z     vdW  Elec       q    Type
REMARK                         _______ _______ _______ _____ _____    ______ ____
ROOT
ATOM      1  N   LIG    1       -4.663   0.331   0.047  0.00  0.00    -0.730 N 
ATOM      2  H   LIG    1       -4.377  -0.596   0.040  0.00  0.00    +0.400 HD
ATOM      3  C   LIG    1       -3.745   1.318   0.044  0.00  0.00    +0.590 C 
ATOM      4  O   LIG    1       -4.103   2.482   0.053  0.00  0.00    -0.520 OA
ENDROOT
BRANCH   3   5
ATOM      5  C   LIG    1       -2.317   0.991   0.029  0.00  0.00    -0.240 A 
ATOM      6  C   LIG    1       -1.312   1.897   0.030  0.00  0.00    +0.150 A 
ATOM      7  C   LIG    1       -0.016   1.358   0.009  0.00  0.00    -0.160 A 
ATOM      8  C   LIG    1        0.002  -0.004   0.002  0.00  0.00    -0.130 A 
ATOM      9  C   LIG    1        1.364  -0.570  -0.014  0.00  0.00    -0.040 A 
ATOM     10  C   LIG    1        2.352   0.405  -0.018  0.00  0.00    -0.120 A 
ATOM     11  C   LIG    1        3.701   0.023  -0.033  0.00  0.00    +0.050 A 
ATOM     12  C   LIG    1        4.040  -1.310  -0.044  0.00  0.00    +0.050 A 
ATOM     13  C   LIG    1        3.052  -2.283  -0.040  0.00  0.00    +0.020 A 
ATOM     14  C   LIG    1        1.736  -1.931  -0.025  0.00  0.00    +0.050 A 
ATOM     15  S   LIG    1        1.632   2.004  -0.003  0.00  0.00    +0.150 S 
ATOM     16  S   LIG    1       -1.656  -0.633   0.015  0.00  0.00    +0.190 S 
ENDBRANCH   3   5
BRANCH   1  17
ATOM     17  C   LIG    1       -6.090   0.658   0.062  0.00  0.00    +0.280 C 
BRANCH  17  18
ATOM     18  C   LIG    1       -6.910  -0.634   0.063  0.00  0.00    +0.080 C 
BRANCH  18  22
ATOM     19  C   LIG    1      -11.074   0.319   0.105  0.00  0.00    -0.680 A 
ATOM     20  C   LIG    1      -10.411   0.171  -1.099  0.00  0.00    +0.140 A 
ATOM     21  C   LIG    1       -9.063  -0.137  -1.112  0.00  0.00    +0.010 A 
ATOM     22  C   LIG    1       -8.379  -0.298   0.078  0.00  0.00    -0.020 A 
ATOM     23  C   LIG    1       -9.043  -0.155   1.282  0.00  0.00    +0.010 A 
ATOM     24  C   LIG    1      -10.389   0.158   1.296  0.00  0.00    +0.140 A 
BRANCH  19  25
ATOM     25  S   LIG    1      -12.791   0.711   0.123  0.00  0.00    +2.700 S 
ATOM     26  O   LIG    1      -13.072   1.338  -1.121  0.00  0.00    -0.960 OA
ATOM     27  O   LIG    1      -13.050   1.325   1.378  0.00  0.00    -0.960 OA
BRANCH  25  28
ATOM     28  N   LIG    1      -13.621  -0.722   0.123  0.00  0.00    -1.250 NA
ATOM     29  H   LIG    1      -14.591  -0.720   0.132  0.00  0.00    +0.420 HD
ATOM     30  H   LIG    1      -13.138  -1.562   0.114  0.00  0.00    +0.420 HD
ENDBRANCH  25  28
ENDBRANCH  19  25
ENDBRANCH  18  22
ENDBRANCH  17  18
ENDBRANCH   1  17
TORSDOF 6
