REMARK  Name = ZINCqH0000036jde.1
REMARK                            x       y       z     vdW  Elec       q    Type
REMARK                         _______ _______ _______ _____ _____    ______ ____
ROOT
ATOM      1  C   LIG    1       -2.704  -2.298   0.038  0.00  0.00    +0.170 C 
ENDROOT
BRANCH   1   6
ATOM      2  C   LIG    1       -1.030   0.959   0.970  0.00  0.00    +0.130 A 
ATOM      3  C   LIG    1       -0.030   0.519   1.825  0.00  0.00    -0.070 A 
ATOM      4  C   LIG    1        0.095  -0.829   2.104  0.00  0.00    +0.050 A 
ATOM      5  C   LIG    1       -0.770  -1.739   1.524  0.00  0.00    +0.010 A 
ATOM      6  C   LIG    1       -1.764  -1.303   0.668  0.00  0.00    -0.050 A 
ATOM      7  C   LIG    1       -1.896   0.043   0.390  0.00  0.00    -0.010 A 
BRANCH   2   9
ATOM      8  C   LIG    1       -0.231   3.169   1.331  0.00  0.00    +0.250 C 
ATOM      9  O   LIG    1       -1.158   2.284   0.698  0.00  0.00    -0.320 OA
ENDBRANCH   2   9
ENDBRANCH   1   6
BRANCH   1  10
ATOM     10  N   LIG    1       -1.932  -3.418  -0.516  0.00  0.00    -0.500 NA
ATOM     11  C   LIG    1       -2.806  -4.335  -1.292  0.00  0.00    +0.160 C 
ATOM     12  C   LIG    1       -1.806  -5.097  -2.197  0.00  0.00    +0.030 C 
ATOM     13  C   LIG    1       -0.776  -4.005  -2.568  0.00  0.00    +0.010 C 
ATOM     14  C   LIG    1       -0.907  -2.937  -1.468  0.00  0.00    +0.170 C 
ENDBRANCH   1  10
BRANCH   1  15
ATOM     15  C   LIG    1       -3.677  -2.822   1.096  0.00  0.00    +0.320 C 
BRANCH  15  16
ATOM     16  N   LIG    1       -4.732  -3.602   0.446  0.00  0.00    -0.740 N 
ATOM     17  H   LIG    1       -4.786  -3.633  -0.522  0.00  0.00    +0.400 HD
ATOM     18  C   LIG    1       -5.629  -4.277   1.192  0.00  0.00    +0.710 C 
ATOM     19  N   LIG    1       -6.600  -4.994   0.594  0.00  0.00    -0.680 N 
ATOM     20  H   LIG    1       -6.598  -5.104  -0.370  0.00  0.00    +0.410 HD
ATOM     21  O   LIG    1       -5.562  -4.238   2.406  0.00  0.00    -0.560 OA
BRANCH  19  22
ATOM     22  C   LIG    1       -7.613  -5.581   1.364  0.00  0.00    +0.140 A 
ATOM     23  C   LIG    1       -7.864  -5.122   2.648  0.00  0.00    +0.050 A 
ATOM     24  C   LIG    1       -8.864  -5.702   3.406  0.00  0.00    +0.030 A 
ATOM     25  C   LIG    1       -9.613  -6.741   2.885  0.00  0.00    +0.010 A 
ATOM     26  C   LIG    1       -9.366  -7.203   1.605  0.00  0.00    +0.010 A 
ATOM     27  C   LIG    1       -8.372  -6.623   0.840  0.00  0.00    +0.060 A 
ATOM     28  F   LIG    1       -8.134  -7.069  -0.413  0.00  0.00    -0.140 F 
ENDBRANCH  19  22
ENDBRANCH  15  16
ENDBRANCH   1  15
TORSDOF 6
