REMARK  Name = ZINCqj00000ry6b3.0
REMARK                            x       y       z     vdW  Elec       q    Type
REMARK                         _______ _______ _______ _____ _____    ______ ____
ROOT
ATOM      1  N   LIG    1        1.333   1.675  -0.002  0.00  0.00    -0.510 N 
ATOM      2  H   LIG    1        1.718   1.649   0.930  0.00  0.00    +0.410 HD
ATOM      3  H   LIG    1        1.279   2.632  -0.316  0.00  0.00    +0.420 HD
ENDROOT
BRANCH   1   6
ATOM      4  C   LIG    1       -2.060   1.620  -0.147  0.00  0.00    +0.200 C 
ATOM      5  C   LIG    1       -0.899   1.554  -1.159  0.00  0.00    +0.070 C 
ATOM      6  C   LIG    1       -0.013   1.086   0.008  0.00  0.00    +0.180 C 
ATOM      7  C   LIG    1       -0.994   1.809   0.939  0.00  0.00    -0.110 C 
ATOM      8  C   LIG    1       -0.631   3.271   1.193  0.00  0.00    +0.100 C 
ATOM      9  C   LIG    1        0.509   3.331   2.215  0.00  0.00    +0.250 C 
ATOM     10  N   LIG    1        0.096   2.654   3.450  0.00  0.00    -0.510 N 
ATOM     11  C   LIG    1       -0.115   1.224   3.195  0.00  0.00    +0.260 C 
ATOM     12  H   LIG    1        0.816   2.766   4.148  0.00  0.00    +0.440 HD
ATOM     13  H   LIG    1       -0.762   3.064   3.786  0.00  0.00    +0.440 HD
ATOM     14  C   LIG    1       -1.290   1.044   2.228  0.00  0.00    +0.130 C 
BRANCH   4  16
ATOM     15  C   LIG    1       -4.130   0.469  -0.514  0.00  0.00    +0.250 C 
ATOM     16  O   LIG    1       -2.789   0.397  -0.027  0.00  0.00    -0.360 OA
ENDBRANCH   4  16
ENDBRANCH   1   6
BRANCH   1  17
ATOM     17  C   LIG    1        2.196   0.909  -0.910  0.00  0.00    +0.330 C 
BRANCH  17  18
ATOM     18  C   LIG    1        3.577   1.514  -0.920  0.00  0.00    -0.170 A 
ATOM     19  C   LIG    1        3.892   2.501  -1.835  0.00  0.00    +0.050 A 
ATOM     20  C   LIG    1        5.157   3.060  -1.840  0.00  0.00    +0.050 A 
ATOM     21  C   LIG    1        6.109   2.622  -0.939  0.00  0.00    -0.050 A 
ATOM     22  C   LIG    1        5.796   1.630  -0.029  0.00  0.00    +0.020 A 
ATOM     23  C   LIG    1        4.529   1.076  -0.019  0.00  0.00    +0.040 A 
BRANCH  21  24
ATOM     24  C   LIG    1        7.490   3.226  -0.949  0.00  0.00    +0.250 C 
BRANCH  24  25
ATOM     25  N   LIG    1        8.353   2.460  -1.858  0.00  0.00    -0.540 NA
ATOM     26  C   LIG    1        8.576   1.099  -1.350  0.00  0.00    +0.200 C 
ATOM     27  C   LIG    1        9.429   0.317  -2.352  0.00  0.00    +0.280 C 
ATOM     28  N   LIG    1       10.713   1.003  -2.543  0.00  0.00    -0.510 N 
ATOM     29  C   LIG    1       10.475   2.352  -3.074  0.00  0.00    +0.290 C 
ATOM     30  H   LIG    1       11.194   1.070  -1.659  0.00  0.00    +0.430 HD
ATOM     31  H   LIG    1       11.280   0.481  -3.195  0.00  0.00    +0.440 HD
ATOM     32  C   LIG    1        9.631   3.151  -2.078  0.00  0.00    +0.220 C 
ENDBRANCH  24  25
ENDBRANCH  21  24
ENDBRANCH  17  18
ENDBRANCH   1  17
TORSDOF 6
