REMARK  Name = ZINCAx00000009V9.0
REMARK                            x       y       z     vdW  Elec       q    Type
REMARK                         _______ _______ _______ _____ _____    ______ ____
ROOT
ATOM      1  N   LIG    1       -1.239   2.069   0.019  0.00  0.00    -0.650 N 
ATOM      2  H   LIG    1       -2.002   1.705  -0.457  0.00  0.00    +0.420 HD
ATOM      3  C   LIG    1       -1.356   3.228   0.696  0.00  0.00    +0.600 C 
ATOM      4  O   LIG    1       -0.380   3.727   1.221  0.00  0.00    -0.510 OA
ENDROOT
BRANCH   3   5
ATOM      5  C   LIG    1       -2.673   3.894   0.798  0.00  0.00    +0.010 A 
ATOM      6  N   LIG    1       -3.725   3.355   0.225  0.00  0.00    -0.160 NA
ATOM      7  N   LIG    1       -4.890   3.891   0.290  0.00  0.00    -0.330 N 
ATOM      8  C   LIG    1       -5.103   5.049   0.943  0.00  0.00    +0.480 A 
ATOM      9  C   LIG    1       -4.023   5.697   1.583  0.00  0.00    -0.020 A 
ATOM     10  O   LIG    1       -6.221   5.535   0.982  0.00  0.00    -0.520 OA
ATOM     11  C   LIG    1       -2.794   5.112   1.509  0.00  0.00    +0.140 A 
BRANCH   7  12
ATOM     12  C   LIG    1       -6.017   3.228  -0.371  0.00  0.00    +0.360 C 
BRANCH  12  13
ATOM     13  C   LIG    1       -6.133   3.731  -1.811  0.00  0.00    +0.200 C 
BRANCH  13  14
ATOM     14  O   LIG    1       -4.975   3.333  -2.549  0.00  0.00    -0.310 OA
BRANCH  14  15
ATOM     15  C   LIG    1       -4.918   3.703  -3.855  0.00  0.00    +0.130 A 
ATOM     16  C   LIG    1       -5.959   4.429  -4.417  0.00  0.00    -0.080 A 
ATOM     17  C   LIG    1       -5.896   4.808  -5.744  0.00  0.00    +0.050 A 
ATOM     18  C   LIG    1       -4.804   4.456  -6.515  0.00  0.00    -0.040 A 
ATOM     19  C   LIG    1       -3.768   3.728  -5.958  0.00  0.00    +0.050 A 
ATOM     20  C   LIG    1       -3.823   3.351  -4.630  0.00  0.00    -0.020 A 
ENDBRANCH  14  15
ENDBRANCH  13  14
ENDBRANCH  12  13
ENDBRANCH   7  12
ENDBRANCH   3   5
BRANCH   1  24
ATOM     21  C   LIG    1        2.405   0.044  -0.039  0.00  0.00    +0.220 A 
ATOM     22  C   LIG    1        2.383   1.431  -0.034  0.00  0.00    -0.070 A 
ATOM     23  C   LIG    1        1.176   2.102  -0.013  0.00  0.00    +0.130 A 
ATOM     24  C   LIG    1       -0.015   1.389   0.003  0.00  0.00    +0.090 A 
ATOM     25  C   LIG    1        0.009   0.000  -0.002  0.00  0.00    +0.140 A 
ATOM     26  C   LIG    1        1.216  -0.670  -0.024  0.00  0.00    -0.690 A 
BRANCH  26  27
ATOM     27  S   LIG    1        1.246  -2.432  -0.030  0.00  0.00    +2.700 S 
ATOM     28  O   LIG    1       -0.111  -2.856  -0.045  0.00  0.00    -0.960 OA
ATOM     29  O   LIG    1        2.171  -2.821   0.976  0.00  0.00    -0.940 OA
BRANCH  27  30
ATOM     30  N   LIG    1        1.900  -2.905  -1.476  0.00  0.00    -0.990 NA
ATOM     31  C   LIG    1        1.041  -3.143  -2.644  0.00  0.00    +0.290 C 
ATOM     32  C   LIG    1        1.568  -2.303  -3.817  0.00  0.00    +0.010 C 
ATOM     33  C   LIG    1        3.045  -2.629  -4.047  0.00  0.00    +0.000 C 
ATOM     34  C   LIG    1        3.850  -2.267  -2.797  0.00  0.00    +0.010 C 
ATOM     35  C   LIG    1        3.349  -3.102  -1.613  0.00  0.00    +0.290 C 
ENDBRANCH  27  30
ENDBRANCH  26  27
BRANCH  21  37
ATOM     36  C   LIG    1        4.779   0.182  -0.075  0.00  0.00    +0.250 C 
ATOM     37  O   LIG    1        3.594  -0.616  -0.060  0.00  0.00    -0.310 OA
ENDBRANCH  21  37
ENDBRANCH   1  24
TORSDOF 9
