REMARK  Name = ZINCkj000005fJ3Q.0
REMARK                            x       y       z     vdW  Elec       q    Type
REMARK                         _______ _______ _______ _____ _____    ______ ____
ROOT
ATOM      1  N   LIG    1        2.359   1.795   3.328  0.00  0.00    -0.350 N 
ATOM      2  C   LIG    1        3.477   2.199   2.659  0.00  0.00    +0.680 C 
ATOM      3  N   LIG    1        3.249   2.182   1.372  0.00  0.00    -0.520 NA
ATOM      4  C   LIG    1        1.987   1.768   1.133  0.00  0.00    +0.630 C 
ATOM      5  N   LIG    1        1.366   1.588  -0.003  0.00  0.00    -0.620 NA
ATOM      6  C   LIG    1       -0.013   1.086   0.008  0.00  0.00    +0.230 C 
ATOM      7  C   LIG    1       -0.756   1.573   1.253  0.00  0.00    +0.090 C 
ATOM      8  C   LIG    1       -0.005   1.115   2.514  0.00  0.00    +0.350 C 
ATOM      9  C   LIG    1       -0.741   1.587  -1.241  0.00  0.00    +0.090 C 
ATOM     10  H   LIG    1        1.811   1.784  -0.842  0.00  0.00    +0.450 HD
ATOM     11  N   LIG    1        1.389   1.537   2.365  0.00  0.00    -0.400 NA
ENDROOT
BRANCH   1  12
ATOM     12  C   LIG    1        2.209   1.660   4.779  0.00  0.00    +0.400 C 
BRANCH  12  14
ATOM     13  N   LIG    1        2.673  -0.041   6.514  0.00  0.00    -0.600 N 
ATOM     14  C   LIG    1        2.712   0.307   5.213  0.00  0.00    +0.490 C 
ATOM     15  O   LIG    1        3.152  -0.468   4.391  0.00  0.00    -0.520 OA
BRANCH  13  16
ATOM     16  C   LIG    1        3.162  -1.356   6.936  0.00  0.00    +0.290 C 
BRANCH  16  18
ATOM     17  C   LIG    1        5.162  -2.637   7.710  0.00  0.00    +0.030 C 
ATOM     18  C   LIG    1        4.652  -1.264   7.270  0.00  0.00    +0.000 C 
ENDBRANCH  16  18
ENDBRANCH  13  16
BRANCH  13  19
ATOM     19  C   LIG    1        2.141   0.895   7.508  0.00  0.00    +0.270 C 
BRANCH  19  20
ATOM     20  C   LIG    1        0.636   0.671   7.666  0.00  0.00    -0.010 C 
ATOM     21  C   LIG    1        0.081   1.649   8.703  0.00  0.00    +0.020 C 
ENDBRANCH  19  20
ENDBRANCH  13  19
ENDBRANCH  12  14
ENDBRANCH   1  12
TORSDOF 6
