REMARK  Name = ZINCpe000000SoU0.0
REMARK                            x       y       z     vdW  Elec       q    Type
REMARK                         _______ _______ _______ _____ _____    ______ ____
ROOT
ATOM      1  N   LIG    1       -6.108  -3.431   4.045  0.00  0.00    -1.010 NA
ATOM      2  C   LIG    1       -7.137  -3.021   3.077  0.00  0.00    +0.300 C 
ATOM      3  C   LIG    1       -6.450  -2.686   1.749  0.00  0.00    +0.170 C 
ATOM      4  N   LIG    1       -5.391  -1.696   1.985  0.00  0.00    -0.530 NA
ATOM      5  C   LIG    1       -4.343  -2.237   2.861  0.00  0.00    +0.170 C 
ATOM      6  C   LIG    1       -4.943  -2.554   4.235  0.00  0.00    +0.290 C 
ENDROOT
BRANCH   1   7
ATOM      7  S   LIG    1       -6.257  -4.843   4.897  0.00  0.00    +2.790 S 
ATOM      8  O   LIG    1       -7.644  -5.151   4.925  0.00  0.00    -0.970 OA
ATOM      9  O   LIG    1       -5.472  -4.688   6.071  0.00  0.00    -0.970 OA
BRANCH   7  10
ATOM     10  N   LIG    1       -5.532  -6.034   4.003  0.00  0.00    -1.130 NA
ATOM     11  H   LIG    1       -6.062  -6.761   3.643  0.00  0.00    +0.420 HD
BRANCH  10  12
ATOM     12  C   LIG    1       -4.088  -5.988   3.757  0.00  0.00    +0.410 C 
BRANCH  12  14
ATOM     13  C   LIG    1       -3.268  -8.346   2.880  0.00  0.00    +0.060 C 
ATOM     14  C   LIG    1       -3.632  -7.300   3.269  0.00  0.00    -0.210 C 
ENDBRANCH  12  14
ENDBRANCH  10  12
ENDBRANCH   7  10
ENDBRANCH   1   7
BRANCH   4  15
ATOM     15  C   LIG    1       -4.823  -1.220   0.717  0.00  0.00    +0.260 C 
BRANCH  15  16
ATOM     16  C   LIG    1       -3.923  -0.041   0.981  0.00  0.00    -0.230 A 
ATOM     17  C   LIG    1       -2.597  -0.095   1.247  0.00  0.00    +0.090 A 
ATOM     18  N   LIG    1       -2.161   1.170   1.423  0.00  0.00    -0.360 N 
ATOM     19  N   LIG    1       -3.255   2.029   1.265  0.00  0.00    -0.290 NA
ATOM     20  C   LIG    1       -1.758  -1.344   1.332  0.00  0.00    +0.140 C 
ATOM     21  C   LIG    1       -4.310   1.303   0.995  0.00  0.00    +0.090 A 
ATOM     22  C   LIG    1       -5.702   1.824   0.748  0.00  0.00    +0.150 C 
BRANCH  18  23
ATOM     23  C   LIG    1       -0.786   1.572   1.730  0.00  0.00    +0.180 C 
ATOM     24  C   LIG    1       -0.746   3.075   2.014  0.00  0.00    +0.070 C 
ATOM     25  C   LIG    1       -0.294   0.808   2.961  0.00  0.00    +0.050 C 
ATOM     26  C   LIG    1        0.118   1.255   0.537  0.00  0.00    +0.060 C 
ENDBRANCH  18  23
ENDBRANCH  15  16
ENDBRANCH   4  15
TORSDOF 7
