REMARK  Name = ZINCAx0000000gOo.0
REMARK                            x       y       z     vdW  Elec       q    Type
REMARK                         _______ _______ _______ _____ _____    ______ ____
ROOT
ATOM      1  N   LIG    1       -2.198   3.986   0.043  0.00  0.00    -0.390 N 
ATOM      2  C   LIG    1       -1.584   5.186   0.043  0.00  0.00    +0.300 A 
ATOM      3  N   LIG    1       -0.286   5.017   0.030  0.00  0.00    -0.490 NA
ATOM      4  C   LIG    1        0.001   3.713   0.021  0.00  0.00    +0.320 A 
ATOM      5  N   LIG    1        1.182   2.990   0.006  0.00  0.00    -0.500 N 
ATOM      6  C   LIG    1        1.150   1.644  -0.000  0.00  0.00    +0.710 A 
ATOM      7  O   LIG    1        2.197   1.026  -0.013  0.00  0.00    -0.530 OA
ATOM      8  N   LIG    1       -0.011   0.966   0.007  0.00  0.00    -0.650 N 
ATOM      9  H   LIG    1        0.002  -0.004   0.002  0.00  0.00    +0.440 HD
ATOM     10  C   LIG    1       -1.194   1.614   0.017  0.00  0.00    +0.600 A 
ATOM     11  O   LIG    1       -2.240   0.989   0.018  0.00  0.00    -0.510 OA
ATOM     12  C   LIG    1       -1.206   3.026   0.029  0.00  0.00    -0.150 A 
ENDROOT
BRANCH   1  13
ATOM     13  C   LIG    1       -3.643   3.747   0.055  0.00  0.00    +0.300 C 
BRANCH  13  14
ATOM     14  C   LIG    1       -4.160   3.671  -1.383  0.00  0.00    +0.020 C 
BRANCH  14  16
ATOM     15  C   LIG    1       -6.186   3.344  -2.809  0.00  0.00    +0.010 C 
ATOM     16  C   LIG    1       -5.669   3.421  -1.371  0.00  0.00    +0.010 C 
ENDBRANCH  14  16
ENDBRANCH  13  14
ENDBRANCH   1  13
BRANCH   5  17
ATOM     17  C   LIG    1        2.469   3.690  -0.002  0.00  0.00    +0.380 C 
BRANCH  17  18
ATOM     18  C   LIG    1        2.897   3.938  -1.426  0.00  0.00    -0.120 A 
ATOM     19  C   LIG    1        3.670   3.002  -2.087  0.00  0.00    +0.040 A 
ATOM     20  C   LIG    1        4.059   3.227  -3.395  0.00  0.00    -0.010 A 
ATOM     21  C   LIG    1        3.682   4.392  -4.037  0.00  0.00    +0.010 A 
ATOM     22  C   LIG    1        2.913   5.330  -3.374  0.00  0.00    -0.010 A 
ATOM     23  C   LIG    1        2.521   5.102  -2.068  0.00  0.00    +0.040 A 
ENDBRANCH  17  18
ENDBRANCH   5  17
BRANCH   2  24
ATOM     24  C   LIG    1       -2.286   6.519   0.056  0.00  0.00    +0.310 C 
BRANCH  24  25
ATOM     25  N   LIG    1       -2.527   6.959  -1.325  0.00  0.00    -0.540 NA
ATOM     26  C   LIG    1       -1.261   7.241  -2.016  0.00  0.00    +0.190 C 
ATOM     27  C   LIG    1       -1.550   7.618  -3.471  0.00  0.00    +0.200 C 
ATOM     28  N   LIG    1       -2.436   8.790  -3.504  0.00  0.00    -0.490 N 
ATOM     29  C   LIG    1       -3.702   8.508  -2.813  0.00  0.00    +0.200 C 
ATOM     30  C   LIG    1       -3.413   8.131  -1.358  0.00  0.00    +0.200 C 
BRANCH  28  31
ATOM     31  C   LIG    1       -2.665   9.209  -4.819  0.00  0.00    +0.100 A 
ATOM     32  C   LIG    1       -3.963   9.303  -5.302  0.00  0.00    -0.020 A 
ATOM     33  C   LIG    1       -4.189   9.723  -6.598  0.00  0.00    +0.010 A 
ATOM     34  C   LIG    1       -3.118  10.038  -7.422  0.00  0.00    +0.080 A 
ATOM     35  C   LIG    1       -1.821   9.939  -6.942  0.00  0.00    +0.010 A 
ATOM     36  C   LIG    1       -1.594   9.525  -5.644  0.00  0.00    +0.010 A 
BRANCH  34  37
ATOM     37  O   LIG    1       -3.341  10.445  -8.700  0.00  0.00    -0.500 OA
ATOM     38  H   LIG    1       -3.368   9.723  -9.344  0.00  0.00    +0.390 HD
ENDBRANCH  34  37
ENDBRANCH  28  31
ENDBRANCH  24  25
ENDBRANCH   2  24
TORSDOF 9
