REMARK  Name = ZINCkj00000dEb5E.0
REMARK                            x       y       z     vdW  Elec       q    Type
REMARK                         _______ _______ _______ _____ _____    ______ ____
ROOT
ATOM      1  N   LIG    1       -0.016   1.325   0.009  0.00  0.00    -0.660 NA
ATOM      2  C   LIG    1        1.129   2.007   0.002  0.00  0.00    +0.490 A 
ATOM      3  C   LIG    1        2.428   1.459  -0.014  0.00  0.00    -0.070 A 
ATOM      4  C   LIG    1        3.317   2.478  -0.017  0.00  0.00    +0.340 A 
ATOM      5  N   LIG    1        2.635   3.658  -0.003  0.00  0.00    -0.400 N 
ATOM      6  N   LIG    1        1.263   3.373   0.003  0.00  0.00    -0.490 N 
ATOM      7  H   LIG    1        0.541   4.021   0.008  0.00  0.00    +0.440 HD
ENDROOT
BRANCH   5   8
ATOM      8  C   LIG    1        3.234   4.995  -0.001  0.00  0.00    +0.320 C 
ATOM      9  C   LIG    1        2.782   5.787  -1.246  0.00  0.00    +0.070 C 
ATOM     10  C   LIG    1        2.031   7.015  -0.688  0.00  0.00    +0.290 C 
ATOM     11  N   LIG    1        2.575   7.196   0.683  0.00  0.00    -0.520 N 
ATOM     12  H   LIG    1        1.929   7.723   1.252  0.00  0.00    +0.440 HD
ATOM     13  H   LIG    1        3.472   7.655   0.649  0.00  0.00    +0.440 HD
ATOM     14  C   LIG    1        2.719   5.812   1.203  0.00  0.00    +0.270 C 
ENDBRANCH   5   8
BRANCH   1  16
ATOM     15  O   LIG    1        1.063  -0.598  -0.011  0.00  0.00    -0.540 OA
ATOM     16  C   LIG    1        0.002  -0.004   0.002  0.00  0.00    +0.500 C 
BRANCH  16  17
ATOM     17  C   LIG    1       -1.293  -0.775   0.010  0.00  0.00    +0.100 C 
BRANCH  17  18
ATOM     18  C   LIG    1       -0.993  -2.276  -0.001  0.00  0.00    +0.160 C 
ATOM     19  C   LIG    1       -2.304  -3.057  -0.118  0.00  0.00    -0.010 C 
ATOM     20  C   LIG    1       -2.000  -4.558  -0.068  0.00  0.00    +0.010 C 
ATOM     21  C   LIG    1       -1.250  -4.873   1.230  0.00  0.00    -0.020 C 
ATOM     22  C   LIG    1        0.020  -4.021   1.295  0.00  0.00    +0.200 C 
ATOM     23  O   LIG    1       -0.331  -2.638   1.213  0.00  0.00    -0.370 OA
ENDBRANCH  17  18
ENDBRANCH  16  17
ENDBRANCH   1  16
TORSDOF 4
