REMARK  Name = ZINCqH0000033Q6r.1
REMARK                            x       y       z     vdW  Elec       q    Type
REMARK                         _______ _______ _______ _____ _____    ______ ____
ROOT
ATOM      1  C   LIG    1       -3.189   3.429  -0.948  0.00  0.00    +0.000 C 
ATOM      2  C   LIG    1       -2.819   3.848   0.477  0.00  0.00    +0.060 C 
ATOM      3  C   LIG    1       -1.326   4.194   0.540  0.00  0.00    +0.030 C 
ATOM      4  C   LIG    1       -0.507   2.953   0.170  0.00  0.00    +0.270 C 
ATOM      5  N   LIG    1       -0.959   2.458  -1.138  0.00  0.00    -0.600 N 
ATOM      6  C   LIG    1       -0.078   2.260  -2.139  0.00  0.00    +0.570 C 
ATOM      7  O   LIG    1       -0.453   1.785  -3.193  0.00  0.00    -0.530 OA
ATOM      8  C   LIG    1       -2.388   2.181  -1.333  0.00  0.00    +0.300 C 
ENDROOT
BRANCH   6   9
ATOM      9  C   LIG    1        1.343   2.622  -1.955  0.00  0.00    -0.120 A 
ATOM     10  C   LIG    1        2.041   2.171  -0.833  0.00  0.00    +0.060 A 
ATOM     11  C   LIG    1        3.369   2.506  -0.670  0.00  0.00    +0.030 A 
ATOM     12  C   LIG    1        4.006   3.299  -1.610  0.00  0.00    -0.020 A 
ATOM     13  C   LIG    1        3.317   3.755  -2.722  0.00  0.00    +0.030 A 
ATOM     14 CL   LIG    1        5.676   3.724  -1.395  0.00  0.00    -0.060 Cl
ATOM     15  C   LIG    1        1.991   3.421  -2.899  0.00  0.00    +0.080 A 
ENDBRANCH   6   9
BRANCH   1  18
ATOM     16  N   LIG    1       -5.216   2.726  -2.178  0.00  0.00    -0.630 N 
ATOM     17  H   LIG    1       -4.667   2.640  -2.972  0.00  0.00    +0.430 HD
ATOM     18  C   LIG    1       -4.663   3.122  -1.015  0.00  0.00    +0.520 C 
ATOM     19  O   LIG    1       -5.351   3.230  -0.021  0.00  0.00    -0.460 OA
BRANCH  16  23
ATOM     20  C   LIG    1       -8.938   1.865  -2.697  0.00  0.00    -0.020 A 
ATOM     21  N   LIG    1       -8.626   2.224  -1.487  0.00  0.00    -0.240 NA
ATOM     22  N   LIG    1       -7.421   2.518  -1.255  0.00  0.00    -0.250 NA
ATOM     23  C   LIG    1       -6.579   2.442  -2.240  0.00  0.00    +0.250 A 
ATOM     24  S   LIG    1       -7.468   1.922  -3.672  0.00  0.00    +0.130 S 
BRANCH  20  25
ATOM     25  S   LIG    1      -10.543   1.409  -3.264  0.00  0.00    +0.020 S 
BRANCH  25  27
ATOM     26  C   LIG    1      -13.012   1.206  -2.104  0.00  0.00    +0.080 C 
ATOM     27  C   LIG    1      -11.564   1.573  -1.773  0.00  0.00    +0.090 C 
ENDBRANCH  25  27
ENDBRANCH  20  25
ENDBRANCH  16  23
ENDBRANCH   1  18
TORSDOF 5
