REMARK  Name = ZINCrH000004tRyH.0
REMARK                            x       y       z     vdW  Elec       q    Type
REMARK                         _______ _______ _______ _____ _____    ______ ____
ROOT
ATOM      1  C   LIG    1       -1.733   0.945  -1.851  0.00  0.00    +0.150 A 
ATOM      2  N   LIG    1       -2.082   1.725  -2.849  0.00  0.00    -0.290 NA
ATOM      3  N   LIG    1       -1.357   2.786  -2.854  0.00  0.00    -0.250 NA
ATOM      4  C   LIG    1       -0.503   2.752  -1.855  0.00  0.00    +0.260 A 
ATOM      5  N   LIG    1       -0.721   1.571  -1.179  0.00  0.00    -0.450 N 
ENDROOT
BRANCH   4   6
ATOM      6  C   LIG    1        0.497   3.778  -1.522  0.00  0.00    +0.040 A 
ATOM      7  C   LIG    1        0.910   4.788  -2.338  0.00  0.00    +0.030 A 
ATOM      8  C   LIG    1        1.866   5.528  -1.616  0.00  0.00    -0.050 A 
ATOM      9  C   LIG    1        1.996   4.938  -0.412  0.00  0.00    +0.190 A 
ATOM     10  O   LIG    1        1.168   3.881  -0.357  0.00  0.00    -0.170 OA
ENDBRANCH   4   6
BRANCH   1  11
ATOM     11  S   LIG    1       -2.442  -0.618  -1.450  0.00  0.00    +0.100 S 
BRANCH  11  12
ATOM     12  C   LIG    1       -3.680  -0.748  -2.765  0.00  0.00    +0.130 C 
BRANCH  12  14
ATOM     13  O   LIG    1       -4.159  -2.808  -1.717  0.00  0.00    -0.450 OA
ATOM     14  C   LIG    1       -4.432  -2.045  -2.620  0.00  0.00    +0.530 C 
ATOM     15  N   LIG    1       -5.409  -2.359  -3.494  0.00  0.00    -0.630 N 
ATOM     16  H   LIG    1       -5.628  -1.749  -4.216  0.00  0.00    +0.430 HD
BRANCH  15  17
ATOM     17  C   LIG    1       -6.103  -3.556  -3.361  0.00  0.00    +0.260 A 
ATOM     18  N   LIG    1       -5.888  -4.440  -2.438  0.00  0.00    -0.480 NA
ATOM     19  C   LIG    1       -6.645  -5.521  -2.458  0.00  0.00    +0.250 A 
ATOM     20  C   LIG    1       -7.537  -5.556  -3.450  0.00  0.00    -0.090 A 
ATOM     21  S   LIG    1       -7.361  -4.079  -4.394  0.00  0.00    +0.130 S 
ENDBRANCH  15  17
ENDBRANCH  12  14
ENDBRANCH  11  12
ENDBRANCH   1  11
BRANCH   5  22
ATOM     22  C   LIG    1       -0.013   1.086   0.008  0.00  0.00    +0.370 C 
BRANCH  22  23
ATOM     23  C   LIG    1       -0.718   1.572   1.248  0.00  0.00    -0.130 A 
ATOM     24  C   LIG    1       -0.360   2.779   1.819  0.00  0.00    +0.030 A 
ATOM     25  C   LIG    1       -1.010   3.227   2.953  0.00  0.00    +0.010 A 
ATOM     26  C   LIG    1       -2.012   2.463   3.523  0.00  0.00    +0.030 A 
ATOM     27  C   LIG    1       -2.366   1.254   2.955  0.00  0.00    +0.010 A 
ATOM     28  C   LIG    1       -1.719   0.808   1.818  0.00  0.00    +0.040 A 
ENDBRANCH  22  23
ENDBRANCH   5  22
TORSDOF 7
