REMARK  Name = ZINCvU0000000GCA.0
REMARK                            x       y       z     vdW  Elec       q    Type
REMARK                         _______ _______ _______ _____ _____    ______ ____
ROOT
ATOM      1  N   LIG    1        0.002  -0.004   0.002  0.00  0.00    -0.410 N 
ATOM      2  C   LIG    1        1.324  -0.354  -0.013  0.00  0.00    +0.160 A 
ATOM      3  N   LIG    1        2.022   0.761  -0.013  0.00  0.00    -0.290 NA
ATOM      4  N   LIG    1        1.234   1.776  -0.000  0.00  0.00    -0.250 NA
ATOM      5  C   LIG    1       -0.017   1.374   0.010  0.00  0.00    +0.230 A 
ENDROOT
BRANCH   1  13
ATOM      6  C   LIG    1       -1.034  -0.845   2.516  0.00  0.00    +0.110 C 
ATOM      7  C   LIG    1       -1.639  -1.301   1.213  0.00  0.00    -0.040 A 
ATOM      8  C   LIG    1       -2.729  -2.151   1.216  0.00  0.00    -0.030 A 
ATOM      9  C   LIG    1       -3.284  -2.570   0.019  0.00  0.00    +0.070 A 
ATOM     10  C   LIG    1       -2.751  -2.139  -1.181  0.00  0.00    +0.050 A 
ATOM     11  C   LIG    1       -1.666  -1.284  -1.190  0.00  0.00    +0.050 A 
ATOM     12 CL   LIG    1       -3.400  -2.696   2.721  0.00  0.00    -0.040 Cl
ATOM     13  C   LIG    1       -1.103  -0.867   0.008  0.00  0.00    +0.100 A 
ENDBRANCH   1  13
BRANCH   5  14
ATOM     14  C   LIG    1       -1.216   2.236   0.020  0.00  0.00    +0.030 A 
ATOM     15  C   LIG    1       -2.479   1.717  -0.293  0.00  0.00    -0.020 A 
ATOM     16  C   LIG    1       -3.572   2.556  -0.267  0.00  0.00    +0.270 A 
ATOM     17  N   LIG    1       -3.439   3.833   0.039  0.00  0.00    -0.470 NA
ATOM     18  C   LIG    1       -2.268   4.364   0.335  0.00  0.00    +0.280 A 
ATOM     19  C   LIG    1       -1.122   3.597   0.338  0.00  0.00    +0.020 A 
ENDBRANCH   5  14
BRANCH   2  20
ATOM     20  S   LIG    1        1.971  -1.992  -0.027  0.00  0.00    +0.100 S 
BRANCH  20  21
ATOM     21  C   LIG    1        3.744  -1.630  -0.042  0.00  0.00    +0.110 C 
BRANCH  21  22
ATOM     22  C   LIG    1        4.521  -2.921  -0.056  0.00  0.00    +0.540 C 
ATOM     23  N   LIG    1        5.869  -2.897  -0.069  0.00  0.00    -0.720 N 
ATOM     24  H   LIG    1        6.338  -2.048  -0.069  0.00  0.00    +0.400 HD
ATOM     25  O   LIG    1        3.934  -3.982  -0.055  0.00  0.00    -0.520 OA
BRANCH  23  26
ATOM     26  C   LIG    1        6.624  -4.152  -0.082  0.00  0.00    +0.240 C 
ATOM     27  C   LIG    1        6.793  -4.660   1.351  0.00  0.00    +0.000 C 
ATOM     28  C   LIG    1        7.582  -5.971   1.337  0.00  0.00    +0.020 C 
ATOM     29  C   LIG    1        8.959  -5.731   0.715  0.00  0.00    +0.010 C 
ATOM     30  C   LIG    1        8.790  -5.223  -0.718  0.00  0.00    +0.030 C 
ATOM     31  C   LIG    1        8.001  -3.912  -0.704  0.00  0.00    -0.020 C 
ATOM     32  C   LIG    1        7.832  -3.403  -2.137  0.00  0.00    +0.030 C 
ENDBRANCH  23  26
ENDBRANCH  21  22
ENDBRANCH  20  21
ENDBRANCH   2  20
TORSDOF 6
