REMARK  Name = ZINCrH000004sa98.0
REMARK                            x       y       z     vdW  Elec       q    Type
REMARK                         _______ _______ _______ _____ _____    ______ ____
ROOT
ATOM      1  N   LIG    1       -0.017   1.390   0.010  0.00  0.00    -0.650 N 
ATOM      2  H   LIG    1        0.817   1.887   0.004  0.00  0.00    +0.420 HD
ATOM      3  C   LIG    1       -1.193   2.048   0.019  0.00  0.00    +0.710 C 
ATOM      4  N   LIG    1       -1.211   3.396   0.026  0.00  0.00    -0.720 N 
ATOM      5  H   LIG    1       -0.378   3.892   0.025  0.00  0.00    +0.410 HD
ATOM      6  O   LIG    1       -2.238   1.426   0.020  0.00  0.00    -0.560 OA
ENDROOT
BRANCH   1  11
ATOM      7  N   LIG    1        1.111  -0.795  -0.018  0.00  0.00    -0.340 N 
ATOM      8  N   LIG    1        0.684  -2.129  -0.017  0.00  0.00    -0.280 NA
ATOM      9  C   LIG    1       -0.625  -2.145  -0.005  0.00  0.00    +0.280 A 
ATOM     10  C   LIG    1       -1.084  -0.824   0.007  0.00  0.00    -0.100 A 
ATOM     11  C   LIG    1        0.002  -0.004   0.002  0.00  0.00    +0.350 A 
BRANCH   7  17
ATOM     12  C   LIG    1        5.871  -1.592   0.957  0.00  0.00    +0.120 C 
ATOM     13  C   LIG    1        4.751  -0.729   0.433  0.00  0.00    -0.020 A 
ATOM     14  C   LIG    1        5.010   0.533  -0.083  0.00  0.00    -0.050 A 
ATOM     15  C   LIG    1        3.961   1.298  -0.554  0.00  0.00    +0.310 A 
ATOM     16  N   LIG    1        2.724   0.842  -0.524  0.00  0.00    -0.520 NA
ATOM     17  C   LIG    1        2.437  -0.354  -0.035  0.00  0.00    +0.370 A 
ATOM     18  C   LIG    1        3.442  -1.178   0.456  0.00  0.00    -0.010 A 
ENDBRANCH   7  17
ENDBRANCH   1  11
BRANCH   4  19
ATOM     19  C   LIG    1       -2.490   4.111   0.036  0.00  0.00    +0.330 C 
BRANCH  19  20
ATOM     20  C   LIG    1       -2.297   5.477   0.643  0.00  0.00    +0.120 A 
ATOM     21  N   LIG    1       -1.262   6.210   0.281  0.00  0.00    -0.470 NA
ATOM     22  C   LIG    1       -1.053   7.411   0.786  0.00  0.00    +0.260 A 
ATOM     23  C   LIG    1       -1.920   7.946   1.720  0.00  0.00    -0.020 A 
ATOM     24  C   LIG    1       -3.019   7.203   2.125  0.00  0.00    +0.060 A 
ATOM     25  C   LIG    1       -3.209   5.948   1.569  0.00  0.00    -0.120 A 
ATOM     26  C   LIG    1       -4.392   5.106   1.971  0.00  0.00    +0.110 C 
ENDBRANCH  19  20
BRANCH  19  27
ATOM     27  C   LIG    1       -3.003   4.258  -1.398  0.00  0.00    -0.020 C 
ATOM     28  C   LIG    1       -4.338   5.005  -1.387  0.00  0.00    +0.020 C 
ATOM     29  C   LIG    1       -3.199   2.871  -2.014  0.00  0.00    +0.030 C 
ENDBRANCH  19  27
ENDBRANCH   4  19
TORSDOF 5
