REMARK  Name = ZINCnE000001PKpS.0
REMARK                            x       y       z     vdW  Elec       q    Type
REMARK                         _______ _______ _______ _____ _____    ______ ____
ROOT
ATOM      1  S   LIG    1       -2.497  -0.548  -0.035  0.00  0.00    +2.610 S 
ATOM      2  O   LIG    1       -1.849  -0.742   1.215  0.00  0.00    -1.010 OA
ATOM      3  O   LIG    1       -1.964  -1.013  -1.267  0.00  0.00    -1.030 OA
ENDROOT
BRANCH   1   4
ATOM      4  C   LIG    1       -4.098  -1.267   0.117  0.00  0.00    -0.630 A 
ATOM      5  C   LIG    1       -4.569  -2.120  -0.862  0.00  0.00    +0.140 A 
ATOM      6  C   LIG    1       -5.825  -2.689  -0.741  0.00  0.00    +0.030 A 
ATOM      7  C   LIG    1       -6.616  -2.396   0.357  0.00  0.00    +0.070 A 
ATOM      8  C   LIG    1       -6.150  -1.538   1.336  0.00  0.00    -0.070 A 
ATOM      9  F   LIG    1       -6.282  -3.527  -1.697  0.00  0.00    -0.140 F 
ATOM     10  C   LIG    1       -4.890  -0.972   1.218  0.00  0.00    +0.230 A 
BRANCH  10  11
ATOM     11  O   LIG    1       -4.431  -0.128   2.179  0.00  0.00    -0.280 OA
BRANCH  11  12
ATOM     12  C   LIG    1       -5.342   0.225   3.222  0.00  0.00    +0.140 C 
ATOM     13  C   LIG    1       -4.935   1.573   3.820  0.00  0.00    +0.060 C 
ATOM     14  C   LIG    1       -5.310  -0.848   4.312  0.00  0.00    +0.020 C 
ENDBRANCH  11  12
ENDBRANCH  10  11
ENDBRANCH   1   4
BRANCH   1  15
ATOM     15  N   LIG    1       -2.707   1.086  -0.203  0.00  0.00    -1.070 NA
BRANCH  15  20
ATOM     16  C   LIG    1        1.673   4.566  -0.796  0.00  0.00    +0.100 C 
ATOM     17  C   LIG    1        0.515   3.615  -0.633  0.00  0.00    +0.000 A 
ATOM     18  C   LIG    1        0.760   2.261  -0.496  0.00  0.00    +0.000 A 
ATOM     19  C   LIG    1       -0.309   1.393  -0.347  0.00  0.00    -0.120 A 
ATOM     20  C   LIG    1       -1.597   1.922  -0.346  0.00  0.00    +0.240 A 
ATOM     21  C   LIG    1       -1.761   3.295  -0.482  0.00  0.00    +0.060 A 
ATOM     22  C   LIG    1       -3.148   3.885  -0.477  0.00  0.00    +0.120 C 
ATOM     23  N   LIG    1       -0.717   4.086  -0.622  0.00  0.00    -0.450 NA
ENDBRANCH  15  20
ENDBRANCH   1  15
TORSDOF 5
