REMARK  Name = ZINCAx00000009W8.0
REMARK                            x       y       z     vdW  Elec       q    Type
REMARK                         _______ _______ _______ _____ _____    ______ ____
ROOT
ATOM      1  O   LIG    1       -0.082  -0.087  -2.423  0.00  0.00    -0.530 OA
ATOM      2  C   LIG    1       -0.736   0.926  -2.301  0.00  0.00    +0.530 C 
ATOM      3  N   LIG    1       -0.749   1.583  -1.124  0.00  0.00    -0.720 N 
ATOM      4  H   LIG    1       -1.272   2.393  -1.026  0.00  0.00    +0.410 HD
ENDROOT
BRANCH   3   5
ATOM      5  C   LIG    1        0.029   1.072   0.008  0.00  0.00    +0.260 C 
ATOM      6  C   LIG    1        1.461   1.654   0.003  0.00  0.00    +0.070 C 
ATOM      7  C   LIG    1        1.781   1.866   1.466  0.00  0.00    +0.520 C 
ATOM      8  N   LIG    1        0.652   1.831   2.196  0.00  0.00    -0.560 N 
ATOM      9  O   LIG    1        2.893   2.042   1.916  0.00  0.00    -0.500 OA
ATOM     10  C   LIG    1       -0.524   1.609   1.347  0.00  0.00    +0.280 C 
BRANCH   8  11
ATOM     11  C   LIG    1        0.606   1.986   3.587  0.00  0.00    +0.170 A 
ATOM     12  C   LIG    1        1.784   2.064   4.317  0.00  0.00    +0.020 A 
ATOM     13  C   LIG    1        1.737   2.223   5.688  0.00  0.00    +0.040 A 
ATOM     14  C   LIG    1        0.513   2.292   6.337  0.00  0.00    +0.060 A 
ATOM     15  C   LIG    1       -0.665   2.208   5.609  0.00  0.00    +0.050 A 
ATOM     16  C   LIG    1       -0.620   2.056   4.237  0.00  0.00    -0.010 A 
BRANCH  14  17
ATOM     17  O   LIG    1        0.467   2.442   7.688  0.00  0.00    -0.260 OA
BRANCH  17  18
ATOM     18  C   LIG    1        0.746   3.669   8.203  0.00  0.00    +0.120 A 
ATOM     19  C   LIG    1        0.962   4.746   7.355  0.00  0.00    -0.060 A 
ATOM     20  C   LIG    1        1.240   5.992   7.881  0.00  0.00    +0.050 A 
ATOM     21  C   LIG    1        1.314   6.165   9.251  0.00  0.00    -0.020 A 
ATOM     22  C   LIG    1        1.104   5.092  10.098  0.00  0.00    +0.050 A 
ATOM     23  C   LIG    1        0.821   3.845   9.577  0.00  0.00    -0.020 A 
ENDBRANCH  17  18
ENDBRANCH  14  17
ENDBRANCH   8  11
ENDBRANCH   3   5
BRANCH   2  24
ATOM     24  C   LIG    1       -1.536   1.452  -3.465  0.00  0.00    +0.050 C 
BRANCH  24  25
ATOM     25  C   LIG    1       -1.350   0.528  -4.670  0.00  0.00    +0.350 C 
BRANCH  25  26
ATOM     26  N   LIG    1       -2.127   1.039  -5.802  0.00  0.00    -0.540 N 
ATOM     27  C   LIG    1       -1.562   1.906  -6.660  0.00  0.00    +0.710 A 
ATOM     28  N   LIG    1       -2.216   2.413  -7.717  0.00  0.00    -0.660 N 
ATOM     29  H   LIG    1       -1.760   3.036  -8.304  0.00  0.00    +0.430 HD
ATOM     30  C   LIG    1       -3.497   2.074  -7.979  0.00  0.00    +0.570 A 
ATOM     31  C   LIG    1       -4.168   1.126  -7.070  0.00  0.00    -0.200 A 
ATOM     32  C   LIG    1       -5.486   0.726  -7.272  0.00  0.00    +0.140 A 
ATOM     33  C   LIG    1       -6.068  -0.165  -6.394  0.00  0.00    -0.010 A 
ATOM     34  C   LIG    1       -5.349  -0.659  -5.317  0.00  0.00    +0.100 A 
ATOM     35  C   LIG    1       -4.041  -0.270  -5.105  0.00  0.00    -0.030 A 
ATOM     36  O   LIG    1       -4.082   2.538  -8.938  0.00  0.00    -0.490 OA
ATOM     37  O   LIG    1       -0.410   2.245  -6.471  0.00  0.00    -0.540 OA
ATOM     38  C   LIG    1       -3.437   0.619  -5.981  0.00  0.00    +0.200 A 
ENDBRANCH  25  26
ENDBRANCH  24  25
ENDBRANCH   2  24
TORSDOF 7
