REMARK  Name = ZINCrg000000nFrF.0
REMARK                            x       y       z     vdW  Elec       q    Type
REMARK                         _______ _______ _______ _____ _____    ______ ____
ROOT
ATOM      1  C   LIG    1        1.985   4.867  -3.147  0.00  0.00    +0.360 C 
ENDROOT
BRANCH   1   2
ATOM      2  N   LIG    1        0.781   4.199  -2.648  0.00  0.00    -0.570 N 
ATOM      3  C   LIG    1       -0.352   4.064  -3.348  0.00  0.00    +0.710 C 
ATOM      4  N   LIG    1       -1.307   3.415  -2.657  0.00  0.00    -0.720 N 
ATOM      5  H   LIG    1       -2.204   3.204  -2.958  0.00  0.00    +0.440 HD
ATOM      6  C   LIG    1       -0.723   3.086  -1.347  0.00  0.00    +0.130 C 
ATOM      7  C   LIG    1       -0.679   1.553  -1.190  0.00  0.00    +0.040 C 
ATOM      8  C   LIG    1       -0.013   1.092   0.008  0.00  0.00    +0.010 C 
ATOM      9  C   LIG    1       -0.678   1.556   1.315  0.00  0.00    +0.020 C 
ATOM     10  C   LIG    1       -0.061   2.864   1.725  0.00  0.00    +0.020 C 
ATOM     11  C   LIG    1       -0.671   4.073   0.996  0.00  0.00    +0.020 C 
ATOM     12  C   LIG    1       -1.530   3.687  -0.230  0.00  0.00    +0.050 C 
ATOM     13  O   LIG    1       -0.500   4.481  -4.481  0.00  0.00    -0.540 OA
ATOM     14  C   LIG    1        0.677   3.638  -1.423  0.00  0.00    +0.540 C 
ATOM     15  O   LIG    1        1.546   3.591  -0.579  0.00  0.00    -0.450 OA
ENDBRANCH   1   2
BRANCH   1  17
ATOM     16  N   LIG    1        4.036   4.253  -4.385  0.00  0.00    -0.600 N 
ATOM     17  C   LIG    1        2.866   3.862  -3.843  0.00  0.00    +0.510 C 
ATOM     18  O   LIG    1        2.521   2.702  -3.916  0.00  0.00    -0.520 OA
BRANCH  16  19
ATOM     19  C   LIG    1        4.893   3.276  -5.062  0.00  0.00    +0.280 C 
ATOM     20  C   LIG    1        4.115   2.595  -6.202  0.00  0.00    +0.060 C 
ATOM     21  C   LIG    1        4.905   1.355  -6.666  0.00  0.00    -0.310 C 
ATOM     22  S   LIG    1        5.849   0.813  -5.196  0.00  0.00    +2.390 S 
ATOM     23  O   LIG    1        5.333  -0.427  -4.732  0.00  0.00    -0.930 OA
ATOM     24  O   LIG    1        7.240   0.950  -5.453  0.00  0.00    -0.930 OA
ATOM     25  C   LIG    1        5.304   2.155  -4.073  0.00  0.00    -0.320 C 
ENDBRANCH  16  19
BRANCH  16  26
ATOM     26  C   LIG    1        4.452   5.655  -4.297  0.00  0.00    +0.280 C 
BRANCH  26  28
ATOM     27  C   LIG    1        5.702   7.330  -2.927  0.00  0.00    +0.030 C 
ATOM     28  C   LIG    1        5.267   5.866  -3.019  0.00  0.00    -0.010 C 
ENDBRANCH  26  28
ENDBRANCH  16  26
ENDBRANCH   1  17
TORSDOF 5
