REMARK  Name = ZINCpk000000pVme.0
REMARK                            x       y       z     vdW  Elec       q    Type
REMARK                         _______ _______ _______ _____ _____    ______ ____
ROOT
ATOM      1  C   LIG    1        2.558   5.347   0.368  0.00  0.00    +0.180 A 
ATOM      2  C   LIG    1        3.754   5.546  -0.293  0.00  0.00    -0.290 A 
ATOM      3  C   LIG    1        4.292   4.270  -0.577  0.00  0.00    +0.300 A 
ATOM      4  N   LIG    1        3.470   3.371  -0.110  0.00  0.00    -0.280 NA
ATOM      5  N   LIG    1        2.378   4.017   0.479  0.00  0.00    -0.310 N 
ENDROOT
BRANCH   2   6
ATOM      6  C   LIG    1        4.357   6.846  -0.637  0.00  0.00    +0.610 C 
ATOM      7  N   LIG    1        5.642   7.098  -0.317  0.00  0.00    -0.600 N 
ATOM      8  C   LIG    1        6.480   6.058   0.294  0.00  0.00    +0.270 C 
ATOM      9  C   LIG    1        7.092   6.604   1.583  0.00  0.00    +0.010 C 
ATOM     10  C   LIG    1        7.831   7.910   1.280  0.00  0.00    +0.050 C 
ATOM     11  C   LIG    1        6.843   8.944   0.736  0.00  0.00    -0.020 C 
ATOM     12  C   LIG    1        6.230   8.422  -0.568  0.00  0.00    +0.300 C 
ATOM     13  O   LIG    1        3.696   7.691  -1.209  0.00  0.00    -0.530 OA
BRANCH  11  14
ATOM     14  C   LIG    1        7.566  10.239   0.468  0.00  0.00    +0.520 C 
ATOM     15  N   LIG    1        6.892  11.298  -0.021  0.00  0.00    -0.740 N 
ATOM     16  H   LIG    1        5.941  11.227  -0.201  0.00  0.00    +0.400 HD
ATOM     17  C   LIG    1        7.595  12.557  -0.281  0.00  0.00    +0.290 C 
ATOM     18  O   LIG    1        8.754  10.327   0.694  0.00  0.00    -0.530 OA
ENDBRANCH  11  14
ENDBRANCH   2   6
BRANCH   5  19
ATOM     19  C   LIG    1        1.287   3.389   1.087  0.00  0.00    +0.360 A 
ATOM     20  C   LIG    1        0.938   2.099   0.709  0.00  0.00    +0.000 A 
ATOM     21  C   LIG    1       -0.145   1.488   1.319  0.00  0.00    +0.100 A 
ATOM     22  C   LIG    1       -0.846   2.195   2.285  0.00  0.00    -0.030 A 
ATOM     23  C   LIG    1       -0.439   3.473   2.615  0.00  0.00    +0.300 A 
ATOM     24  N   LIG    1        0.596   4.029   2.017  0.00  0.00    -0.490 NA
ENDBRANCH   5  19
BRANCH   1  26
ATOM     25  C   LIG    1        2.008   6.794   2.304  0.00  0.00    +0.050 C 
ATOM     26  C   LIG    1        1.627   6.419   0.871  0.00  0.00    +0.120 C 
ENDBRANCH   1  26
TORSDOF 4
