REMARK  Name = ZINCrD00000F5LkM.0
REMARK                            x       y       z     vdW  Elec       q    Type
REMARK                         _______ _______ _______ _____ _____    ______ ____
ROOT
ATOM      1  C   LIG    1       -0.729   1.579   1.267  0.00  0.00    +0.250 C 
ATOM      2  C   LIG    1       -0.013   1.086   0.008  0.00  0.00    +0.030 C 
ENDROOT
BRANCH   1   3
ATOM      3  C   LIG    1       -2.164   1.050   1.278  0.00  0.00    -0.010 C 
ATOM      4  C   LIG    1       -2.186  -0.494   1.430  0.00  0.00    +0.070 C 
ATOM      5  C   LIG    1       -3.557  -0.757   2.089  0.00  0.00    +0.240 C 
ATOM      6  N   LIG    1       -3.968   0.489   2.752  0.00  0.00    -0.620 N 
ATOM      7  C   LIG    1       -5.120   0.677   3.426  0.00  0.00    +0.610 C 
ATOM      8  O   LIG    1       -5.357   1.755   3.938  0.00  0.00    -0.510 OA
ATOM      9  C   LIG    1       -2.912   1.499   2.558  0.00  0.00    +0.280 C 
BRANCH   7  10
ATOM     10  C   LIG    1       -6.087  -0.417   3.543  0.00  0.00    -0.250 A 
ATOM     11  C   LIG    1       -7.283  -0.352   4.202  0.00  0.00    +0.130 A 
ATOM     12  C   LIG    1       -7.996  -1.526   4.152  0.00  0.00    -0.050 A 
ATOM     13  C   LIG    1       -7.402  -2.523   3.482  0.00  0.00    -0.180 A 
ATOM     14 CL   LIG    1       -8.080  -4.107   3.272  0.00  0.00    +0.020 Cl
ATOM     15 CL   LIG    1       -9.549  -1.705   4.907  0.00  0.00    -0.020 Cl
ATOM     16  S   LIG    1       -5.892  -2.027   2.863  0.00  0.00    +0.300 S 
ENDBRANCH   7  10
ENDBRANCH   1   3
BRANCH   1  17
ATOM     17  N   LIG    1       -0.749   3.044   1.275  0.00  0.00    -1.120 NA
ATOM     18  H   LIG    1       -1.448   3.522   0.802  0.00  0.00    +0.420 HD
BRANCH  17  19
ATOM     19  S   LIG    1        0.422   3.884   2.091  0.00  0.00    +2.610 S 
ATOM     20  O   LIG    1        0.431   3.302   3.388  0.00  0.00    -0.950 OA
ATOM     21  O   LIG    1        0.072   5.248   1.902  0.00  0.00    -0.930 OA
BRANCH  19  22
ATOM     22  C   LIG    1        1.958   3.493   1.208  0.00  0.00    -0.350 C 
BRANCH  22  27
ATOM     23  C   LIG    1        4.287   7.651   1.456  0.00  0.00    +0.060 C 
ATOM     24  C   LIG    1        4.249   6.218   1.993  0.00  0.00    +0.140 C 
ATOM     25  C   LIG    1        5.190   5.309   1.171  0.00  0.00    +0.010 C 
ATOM     26  C   LIG    1        4.436   3.963   1.091  0.00  0.00    +0.020 C 
ATOM     27  C   LIG    1        3.129   4.218   1.874  0.00  0.00    +0.170 C 
ATOM     28  O   LIG    1        2.935   5.648   1.813  0.00  0.00    -0.360 OA
ENDBRANCH  22  27
ENDBRANCH  19  22
ENDBRANCH  17  19
ENDBRANCH   1  17
TORSDOF 6
