REMARK  Name = ZINCvU0000000B4L.0
REMARK                            x       y       z     vdW  Elec       q    Type
REMARK                         _______ _______ _______ _____ _____    ______ ____
ROOT
ATOM      1  C   LIG    1       -0.078   2.260  -2.139  0.00  0.00    +0.560 C 
ATOM      2  N   LIG    1       -0.723   1.559  -1.186  0.00  0.00    -0.600 N 
ATOM      3  C   LIG    1       -2.161   1.281  -1.306  0.00  0.00    +0.270 C 
ATOM      4  C   LIG    1       -2.862   1.755  -0.029  0.00  0.00    +0.030 C 
ATOM      5  C   LIG    1       -2.196   1.104   1.186  0.00  0.00    +0.040 C 
ATOM      6  C   LIG    1       -0.725   1.532   1.256  0.00  0.00    +0.070 C 
ATOM      7  C   LIG    1       -0.002   1.056  -0.009  0.00  0.00    +0.310 C 
ATOM      8  O   LIG    1        1.087   2.573  -1.980  0.00  0.00    -0.510 OA
ENDROOT
BRANCH   6   9
ATOM      9  C   LIG    1       -0.074   0.917   2.468  0.00  0.00    +0.100 A 
ATOM     10  N   LIG    1        0.007  -0.342   2.681  0.00  0.00    -0.460 NA
ATOM     11  C   LIG    1        0.620  -0.751   3.807  0.00  0.00    +0.080 A 
ATOM     12  C   LIG    1        0.851  -2.058   4.283  0.00  0.00    +0.080 A 
ATOM     13  C   LIG    1        1.495  -2.257   5.467  0.00  0.00    +0.030 A 
ATOM     14  C   LIG    1        1.935  -1.182   6.225  0.00  0.00    +0.040 A 
ATOM     15  C   LIG    1        1.724   0.105   5.785  0.00  0.00    +0.060 A 
ATOM     16  C   LIG    1        1.068   0.329   4.577  0.00  0.00    -0.180 A 
ATOM     17  S   LIG    1        0.640   1.813   3.733  0.00  0.00    +0.110 S 
ENDBRANCH   6   9
BRANCH   1  23
ATOM     18  C   LIG    1       -0.819   3.995  -3.773  0.00  0.00    -0.050 A 
ATOM     19  C   LIG    1       -1.483   4.348  -4.942  0.00  0.00    -0.010 A 
ATOM     20  C   LIG    1       -2.112   3.380  -5.698  0.00  0.00    +0.050 A 
ATOM     21  C   LIG    1       -2.084   2.052  -5.303  0.00  0.00    +0.000 A 
ATOM     22  C   LIG    1       -1.426   1.682  -4.150  0.00  0.00    +0.060 A 
ATOM     23  C   LIG    1       -0.783   2.649  -3.373  0.00  0.00    -0.110 A 
BRANCH  18  24
ATOM     24  S   LIG    1       -0.021   5.229  -2.801  0.00  0.00    -0.040 S 
BRANCH  24  25
ATOM     25  C   LIG    1       -0.353   6.755  -3.725  0.00  0.00    +0.170 C 
BRANCH  25  29
ATOM     26  C   LIG    1        2.845  10.371  -2.113  0.00  0.00    +0.190 C 
ATOM     27  C   LIG    1        1.660   9.466  -2.332  0.00  0.00    -0.030 A 
ATOM     28  C   LIG    1        1.582   8.428  -3.199  0.00  0.00    -0.040 A 
ATOM     29  C   LIG    1        0.275   7.923  -3.009  0.00  0.00    +0.030 A 
ATOM     30  N   LIG    1       -0.279   8.669  -2.098  0.00  0.00    -0.350 NA
ATOM     31  O   LIG    1        0.477   9.528  -1.706  0.00  0.00    +0.110 OA
ENDBRANCH  25  29
ENDBRANCH  24  25
ENDBRANCH  18  24
ENDBRANCH   1  23
TORSDOF 5
