REMARK  Name = ZINCqH0000004NuK.0
REMARK                            x       y       z     vdW  Elec       q    Type
REMARK                         _______ _______ _______ _____ _____    ______ ____
ROOT
ATOM      1  C   LIG    1        3.374  -1.231  -1.033  0.00  0.00    +0.240 C 
ATOM      2  C   LIG    1        3.919  -1.579   0.354  0.00  0.00    +0.030 C 
ATOM      3  C   LIG    1        4.422  -3.024   0.359  0.00  0.00    +0.030 C 
ATOM      4  C   LIG    1        3.256  -3.967   0.047  0.00  0.00    +0.270 C 
ATOM      5  N   LIG    1        2.634  -3.549  -1.216  0.00  0.00    -0.600 N 
ATOM      6  C   LIG    1        2.468  -4.428  -2.224  0.00  0.00    +0.570 C 
ATOM      7  O   LIG    1        1.889  -4.088  -3.238  0.00  0.00    -0.520 OA
ATOM      8  C   LIG    1        2.196  -2.154  -1.360  0.00  0.00    +0.280 C 
ENDROOT
BRANCH   1  17
ATOM      9  C   LIG    1        3.391   1.156  -1.848  0.00  0.00    +0.290 A 
ATOM     10  N   LIG    1        2.767   2.268  -1.595  0.00  0.00    -0.490 NA
ATOM     11  C   LIG    1        1.852   2.065  -0.611  0.00  0.00    +0.050 A 
ATOM     12  C   LIG    1        0.935   2.895   0.038  0.00  0.00    +0.070 A 
ATOM     13  C   LIG    1        0.126   2.384   1.013  0.00  0.00    +0.000 A 
ATOM     14  C   LIG    1        0.211   1.047   1.374  0.00  0.00    +0.030 A 
ATOM     15  C   LIG    1        1.112   0.211   0.751  0.00  0.00    +0.010 A 
ATOM     16  C   LIG    1        1.939   0.711  -0.245  0.00  0.00    +0.050 A 
ATOM     17  N   LIG    1        2.921   0.163  -1.045  0.00  0.00    -0.480 N 
BRANCH   9  19
ATOM     18  C   LIG    1        3.852   0.603  -4.221  0.00  0.00    +0.040 C 
ATOM     19  C   LIG    1        4.477   0.991  -2.880  0.00  0.00    +0.130 C 
ENDBRANCH   9  19
ENDBRANCH   1  17
BRANCH   6  20
ATOM     20  C   LIG    1        2.989  -5.806  -2.097  0.00  0.00    -0.190 A 
ATOM     21  C   LIG    1        3.786  -6.361  -3.104  0.00  0.00    +0.120 A 
ATOM     22  C   LIG    1        4.249  -7.655  -2.936  0.00  0.00    -0.020 A 
ATOM     23  C   LIG    1        3.912  -8.350  -1.789  0.00  0.00    +0.150 A 
ATOM     24  N   LIG    1        3.159  -7.801  -0.856  0.00  0.00    -0.480 NA
ATOM     25  C   LIG    1        4.415  -9.759  -1.602  0.00  0.00    +0.130 C 
ATOM     26  C   LIG    1        2.699  -6.572  -0.967  0.00  0.00    +0.300 A 
ENDBRANCH   6  20
TORSDOF 3
