REMARK  Name = ZINCrH000004sSCt.0
REMARK                            x       y       z     vdW  Elec       q    Type
REMARK                         _______ _______ _______ _____ _____    ______ ____
ROOT
ATOM      1  C   LIG    1       -5.465   2.774   3.382  0.00  0.00    +0.160 C 
ENDROOT
BRANCH   1   2
ATOM      2  C   LIG    1       -4.934   2.226   2.083  0.00  0.00    +0.030 A 
ATOM      3  C   LIG    1       -5.771   1.941   1.052  0.00  0.00    -0.050 A 
ATOM      4  C   LIG    1       -5.250   1.428  -0.154  0.00  0.00    +0.510 A 
ATOM      5  O   LIG    1       -3.934   1.221  -0.322  0.00  0.00    -0.260 OA
ATOM      6  C   LIG    1       -3.047   1.495   0.659  0.00  0.00    +0.160 A 
ATOM      7  C   LIG    1       -1.691   1.275   0.469  0.00  0.00    -0.130 A 
ATOM      8  C   LIG    1       -0.798   1.568   1.486  0.00  0.00    +0.160 A 
ATOM      9  C   LIG    1       -1.250   2.077   2.702  0.00  0.00    -0.020 A 
ATOM     10  C   LIG    1       -2.582   2.293   2.907  0.00  0.00    +0.100 A 
ATOM     11  C   LIG    1       -1.191   0.725  -0.842  0.00  0.00    +0.120 C 
ATOM     12  O   LIG    1       -6.013   1.167  -1.067  0.00  0.00    -0.450 OA
ATOM     13  C   LIG    1       -3.499   2.003   1.891  0.00  0.00    -0.160 A 
BRANCH   8  14
ATOM     14  O   LIG    1        0.530   1.358   1.297  0.00  0.00    -0.490 OA
ATOM     15  H   LIG    1        1.000   2.119   0.930  0.00  0.00    +0.400 HD
ENDBRANCH   8  14
ENDBRANCH   1   2
BRANCH   1  16
ATOM     16  S   LIG    1       -5.427   1.477   4.644  0.00  0.00    +0.030 S 
BRANCH  16  20
ATOM     17  C   LIG    1       -6.808   2.924   8.001  0.00  0.00    +0.270 A 
ATOM     18  N   LIG    1       -6.890   3.951   7.187  0.00  0.00    -0.270 NA
ATOM     19  N   LIG    1       -6.458   3.624   6.022  0.00  0.00    -0.280 NA
ATOM     20  C   LIG    1       -6.082   2.366   6.017  0.00  0.00    +0.150 A 
ATOM     21  N   LIG    1       -6.288   1.877   7.277  0.00  0.00    -0.460 N 
ATOM     22  C   LIG    1       -6.012   0.520   7.756  0.00  0.00    +0.360 C 
BRANCH  17  25
ATOM     23  C   LIG    1       -9.469   4.052   9.215  0.00  0.00    +0.190 C 
ATOM     24  C   LIG    1       -8.350   3.382   9.970  0.00  0.00    +0.070 A 
ATOM     25  C   LIG    1       -7.201   2.898   9.426  0.00  0.00    -0.140 A 
ATOM     26  C   LIG    1       -6.435   2.339  10.547  0.00  0.00    -0.050 A 
ATOM     27  C   LIG    1       -7.181   2.545  11.645  0.00  0.00    +0.190 A 
ATOM     28  O   LIG    1       -8.319   3.162  11.293  0.00  0.00    -0.170 OA
ENDBRANCH  17  25
ENDBRANCH  16  20
ENDBRANCH   1  16
TORSDOF 5
