REMARK  Name = ZINCrD00000hQ4ba.0
REMARK                            x       y       z     vdW  Elec       q    Type
REMARK                         _______ _______ _______ _____ _____    ______ ____
ROOT
ATOM      1  C   LIG    1        2.152  -0.863  -0.762  0.00  0.00    +0.400 A 
ATOM      2  N   LIG    1        2.351   0.064   0.165  0.00  0.00    -0.530 NA
ATOM      3  C   LIG    1        1.377   0.869   0.558  0.00  0.00    +0.260 A 
ATOM      4  N   LIG    1        0.162   0.812   0.068  0.00  0.00    -0.460 NA
ATOM      5  C   LIG    1       -0.149  -0.089  -0.876  0.00  0.00    +0.160 A 
ATOM      6  C   LIG    1       -1.437  -0.179  -1.421  0.00  0.00    +0.060 A 
ATOM      7  C   LIG    1       -1.699  -1.113  -2.379  0.00  0.00    +0.070 A 
ATOM      8  C   LIG    1       -0.707  -1.982  -2.823  0.00  0.00    +0.030 A 
ATOM      9  C   LIG    1        0.557  -1.923  -2.313  0.00  0.00    +0.090 A 
ATOM     10  C   LIG    1        0.859  -0.975  -1.330  0.00  0.00    -0.130 A 
ENDROOT
BRANCH   1  17
ATOM     11  C   LIG    1        5.490   1.980  -3.392  0.00  0.00    +0.530 C 
ATOM     12  N   LIG    1        5.209   0.776  -2.855  0.00  0.00    -0.620 N 
ATOM     13  C   LIG    1        6.128  -0.368  -2.792  0.00  0.00    +0.260 C 
ATOM     14  C   LIG    1        5.371  -1.543  -2.142  0.00  0.00    +0.020 C 
ATOM     15  C   LIG    1        5.521  -1.424  -0.604  0.00  0.00    +0.030 C 
ATOM     16  C   LIG    1        4.151  -1.894  -0.075  0.00  0.00    +0.220 C 
ATOM     17  N   LIG    1        3.175  -1.696  -1.162  0.00  0.00    -0.460 N 
ATOM     18  C   LIG    1        3.872  -1.149  -2.339  0.00  0.00    +0.200 C 
ATOM     19  C   LIG    1        3.930   0.391  -2.234  0.00  0.00    +0.230 C 
ATOM     20  O   LIG    1        4.679   2.878  -3.324  0.00  0.00    -0.530 OA
BRANCH  11  22
ATOM     21  C   LIG    1        6.723   3.459  -4.953  0.00  0.00    +0.060 C 
ATOM     22  C   LIG    1        6.813   2.209  -4.076  0.00  0.00    -0.020 C 
ATOM     23  C   LIG    1        7.906   2.402  -3.023  0.00  0.00    +0.040 C 
ENDBRANCH  11  22
ENDBRANCH   1  17
BRANCH   3  24
ATOM     24  C   LIG    1        1.678   1.899   1.616  0.00  0.00    +0.550 C 
ATOM     25  F   LIG    1        2.420   2.943   1.053  0.00  0.00    -0.160 F 
ATOM     26  F   LIG    1        2.415   1.307   2.647  0.00  0.00    -0.160 F 
ATOM     27  F   LIG    1        0.479   2.404   2.130  0.00  0.00    -0.150 F 
ENDBRANCH   3  24
TORSDOF 3
