REMARK  Name = ZINCkj00000xbrLx.0
REMARK                            x       y       z     vdW  Elec       q    Type
REMARK                         _______ _______ _______ _____ _____    ______ ____
ROOT
ATOM      1  C   LIG    1        0.865   3.422   0.846  0.00  0.00    +0.180 A 
ATOM      2  N   LIG    1       -0.212   4.147   0.818  0.00  0.00    -0.330 NA
ATOM      3  O   LIG    1       -0.123   5.062   1.611  0.00  0.00    +0.100 OA
ATOM      4  C   LIG    1        1.056   5.004   2.238  0.00  0.00    +0.120 A 
ATOM      5  N   LIG    1        1.690   3.960   1.761  0.00  0.00    -0.440 NA
ENDROOT
BRANCH   4   6
ATOM      6  C   LIG    1        1.558   5.954   3.295  0.00  0.00    +0.230 C 
ATOM      7  C   LIG    1        2.744   6.778   2.754  0.00  0.00    +0.090 C 
ATOM      8  C   LIG    1        2.271   8.249   2.819  0.00  0.00    +0.290 C 
ATOM      9  N   LIG    1        1.217   8.257   3.866  0.00  0.00    -0.510 N 
ATOM     10  H   LIG    1        1.631   8.264   4.786  0.00  0.00    +0.440 HD
ATOM     11  H   LIG    1        0.609   9.053   3.747  0.00  0.00    +0.440 HD
ATOM     12  C   LIG    1        0.470   6.993   3.641  0.00  0.00    +0.330 C 
BRANCH   6  13
ATOM     13  O   LIG    1        1.946   5.233   4.465  0.00  0.00    -0.520 OA
ATOM     14  H   LIG    1        2.643   4.580   4.312  0.00  0.00    +0.420 HD
ENDBRANCH   6  13
ENDBRANCH   4   6
BRANCH   1  16
ATOM     15  C   LIG    1        1.461   2.621  -1.424  0.00  0.00    +0.070 C 
ATOM     16  C   LIG    1        1.138   2.197   0.010  0.00  0.00    +0.280 C 
BRANCH  16  17
ATOM     17  O   LIG    1       -0.016   1.355   0.009  0.00  0.00    -0.300 OA
BRANCH  17  18
ATOM     18  C   LIG    1        0.186   0.032  -0.225  0.00  0.00    +0.120 A 
ATOM     19  C   LIG    1       -0.871  -0.862  -0.125  0.00  0.00    -0.020 A 
ATOM     20  C   LIG    1       -0.664  -2.205  -0.370  0.00  0.00    +0.050 A 
ATOM     21  C   LIG    1        0.598  -2.662  -0.703  0.00  0.00    -0.020 A 
ATOM     22  C   LIG    1        1.654  -1.775  -0.798  0.00  0.00    +0.050 A 
ATOM     23  C   LIG    1        1.451  -0.429  -0.560  0.00  0.00    -0.080 A 
ENDBRANCH  17  18
ENDBRANCH  16  17
ENDBRANCH   1  16
TORSDOF 5
