REMARK  Name = ZINCrH00000tj1c5.0
REMARK                            x       y       z     vdW  Elec       q    Type
REMARK                         _______ _______ _______ _____ _____    ______ ____
ROOT
ATOM      1  C   LIG    1        1.217   2.409  -0.132  0.00  0.00    -0.670 A 
ATOM      2  C   LIG    1        2.375   1.739   0.217  0.00  0.00    +0.140 A 
ATOM      3  C   LIG    1        2.331   0.393   0.532  0.00  0.00    +0.010 A 
ATOM      4  C   LIG    1        1.129  -0.286   0.496  0.00  0.00    +0.140 A 
ATOM      5  C   LIG    1       -0.036   0.384   0.146  0.00  0.00    +0.100 A 
ATOM      6  C   LIG    1        0.012   1.736  -0.169  0.00  0.00    +0.120 A 
ENDROOT
BRANCH   1   7
ATOM      7  S   LIG    1        1.279   4.124  -0.532  0.00  0.00    +2.690 S 
ATOM      8  O   LIG    1        0.146   4.387  -1.348  0.00  0.00    -0.940 OA
ATOM      9  O   LIG    1        2.612   4.393  -0.944  0.00  0.00    -0.940 OA
BRANCH   7  10
ATOM     10  N   LIG    1        1.047   4.964   0.876  0.00  0.00    -1.050 N 
ATOM     11  H   LIG    1        0.291   5.566   0.963  0.00  0.00    +0.430 HD
BRANCH  10  17
ATOM     12  C   LIG    1        5.642   4.268   2.473  0.00  0.00    +0.110 C 
ATOM     13  C   LIG    1        4.173   4.467   2.743  0.00  0.00    -0.040 A 
ATOM     14  C   LIG    1        3.708   4.495   4.045  0.00  0.00    +0.010 A 
ATOM     15  C   LIG    1        2.361   4.678   4.298  0.00  0.00    +0.080 A 
ATOM     16  C   LIG    1        1.475   4.834   3.249  0.00  0.00    -0.120 A 
ATOM     17  C   LIG    1        1.940   4.807   1.939  0.00  0.00    +0.190 A 
ATOM     18 BR   LIG    1       -0.367   5.083   3.596  0.00  0.00    -0.040 Br
ATOM     19  C   LIG    1        3.292   4.617   1.690  0.00  0.00    +0.000 A 
ENDBRANCH  10  17
ENDBRANCH   7  10
ENDBRANCH   1   7
BRANCH   5  20
ATOM     20  N   LIG    1       -1.255  -0.302   0.109  0.00  0.00    -0.620 N 
ATOM     21  H   LIG    1       -1.880  -0.141  -0.615  0.00  0.00    +0.410 HD
BRANCH  20  22
ATOM     22  C   LIG    1       -1.560  -1.186   1.079  0.00  0.00    +0.510 C 
ATOM     23  S   LIG    1       -0.523  -1.368   2.429  0.00  0.00    -0.480 S 
BRANCH  22  24
ATOM     24  N   LIG    1       -2.682  -1.927   0.987  0.00  0.00    -0.640 N 
ATOM     25  H   LIG    1       -3.270  -1.823   0.222  0.00  0.00    +0.410 HD
ATOM     26  C   LIG    1       -2.988  -2.811   1.957  0.00  0.00    +0.520 C 
ATOM     27  O   LIG    1       -2.253  -2.940   2.913  0.00  0.00    -0.400 OA
BRANCH  26  28
ATOM     28  C   LIG    1       -4.243  -3.639   1.854  0.00  0.00    -0.070 C 
ATOM     29  C   LIG    1       -5.365  -3.348   2.851  0.00  0.00    +0.060 C 
ATOM     30  C   LIG    1       -4.534  -4.625   2.987  0.00  0.00    +0.080 C 
ENDBRANCH  26  28
ENDBRANCH  22  24
ENDBRANCH  20  22
ENDBRANCH   5  20
TORSDOF 7
