REMARK  Name = ZINCrg00000Q5ZVl.0
REMARK                            x       y       z     vdW  Elec       q    Type
REMARK                         _______ _______ _______ _____ _____    ______ ____
ROOT
ATOM      1  C   LIG    1       -1.399  -0.516   0.187  0.00  0.00    +0.150 C 
ATOM      2  C   LIG    1       -2.150  -0.175  -1.105  0.00  0.00    +0.290 C 
ATOM      3  N   LIG    1       -3.155  -1.222  -1.348  0.00  0.00    -0.990 NA
ATOM      4  C   LIG    1       -2.716  -2.626  -1.303  0.00  0.00    +0.280 C 
ATOM      5  C   LIG    1       -1.937  -2.848  -0.002  0.00  0.00    +0.230 C 
ATOM      6  O   LIG    1       -0.911  -1.858   0.107  0.00  0.00    -0.340 OA
ENDROOT
BRANCH   1   8
ATOM      7  O   LIG    1        0.898   0.012   0.320  0.00  0.00    -0.510 OA
ATOM      8  C   LIG    1       -0.239   0.431   0.360  0.00  0.00    +0.530 C 
ATOM      9  N   LIG    1       -0.467   1.744   0.560  0.00  0.00    -0.610 N 
ATOM     10  C   LIG    1       -1.838   2.275   0.606  0.00  0.00    +0.270 C 
ATOM     11  C   LIG    1       -1.988   3.113   1.885  0.00  0.00    +0.180 C 
ATOM     12  N   LIG    1       -0.927   4.129   1.926  0.00  0.00    -0.500 NA
ATOM     13  C   LIG    1        0.402   3.509   2.000  0.00  0.00    +0.170 C 
ATOM     14  C   LIG    1        0.650   2.686   0.731  0.00  0.00    +0.300 C 
BRANCH  12  15
ATOM     15  C   LIG    1       -1.135   5.063   3.041  0.00  0.00    +0.140 C 
ATOM     16  C   LIG    1       -2.165   4.676   4.104  0.00  0.00    -0.020 C 
ATOM     17  C   LIG    1       -2.478   5.794   3.108  0.00  0.00    +0.030 C 
ENDBRANCH  12  15
ENDBRANCH   1   8
BRANCH   3  18
ATOM     18  S   LIG    1       -4.734  -0.833  -1.661  0.00  0.00    +2.690 S 
ATOM     19  O   LIG    1       -5.334  -1.999  -2.209  0.00  0.00    -0.930 OA
ATOM     20  O   LIG    1       -4.712   0.419  -2.334  0.00  0.00    -0.940 OA
BRANCH  18  21
ATOM     21  C   LIG    1       -5.519  -0.550  -0.110  0.00  0.00    -0.680 A 
ATOM     22  C   LIG    1       -5.951   0.719   0.226  0.00  0.00    +0.140 A 
ATOM     23  C   LIG    1       -6.567   0.940   1.443  0.00  0.00    +0.010 A 
ATOM     24  C   LIG    1       -6.752  -0.107   2.326  0.00  0.00    +0.090 A 
ATOM     25  C   LIG    1       -6.321  -1.377   1.992  0.00  0.00    +0.020 A 
ATOM     26  C   LIG    1       -5.710  -1.601   0.771  0.00  0.00    +0.050 A 
ATOM     27 CL   LIG    1       -5.175  -3.197   0.347  0.00  0.00    -0.040 Cl
ENDBRANCH  18  21
ENDBRANCH   3  18
TORSDOF 4
