REMARK  Name = ZINCpe000000UBWP.0
REMARK                            x       y       z     vdW  Elec       q    Type
REMARK                         _______ _______ _______ _____ _____    ______ ____
ROOT
ATOM      1  C   LIG    1        1.045  -1.920   1.429  0.00  0.00    -0.440 A 
ATOM      2  C   LIG    1        1.261  -2.399   2.733  0.00  0.00    +0.560 A 
ATOM      3  N   LIG    1        1.045  -3.722   2.995  0.00  0.00    -0.520 N 
ATOM      4  C   LIG    1        0.643  -4.567   2.033  0.00  0.00    +0.710 A 
ATOM      5  N   LIG    1        0.425  -4.168   0.769  0.00  0.00    -0.660 N 
ATOM      6  H   LIG    1        0.135  -4.814   0.106  0.00  0.00    +0.430 HD
ATOM      7  O   LIG    1        0.469  -5.736   2.316  0.00  0.00    -0.520 OA
ATOM      8  C   LIG    1        0.605  -2.880   0.409  0.00  0.00    +0.580 A 
ATOM      9  O   LIG    1        0.406  -2.522  -0.737  0.00  0.00    -0.510 OA
ENDROOT
BRANCH   3  10
ATOM     10  C   LIG    1        1.262  -4.230   4.352  0.00  0.00    +0.170 C 
ATOM     11  C   LIG    1        0.174  -5.120   4.956  0.00  0.00    +0.100 C 
ATOM     12  C   LIG    1        0.361  -3.687   5.462  0.00  0.00    +0.060 C 
ENDBRANCH   3  10
BRANCH   2  13
ATOM     13  N   LIG    1        1.675  -1.558   3.719  0.00  0.00    -0.800 N 
ATOM     14  H   LIG    1        2.183  -1.903   4.470  0.00  0.00    +0.410 HD
ATOM     15  H   LIG    1        1.461  -0.613   3.672  0.00  0.00    +0.440 HD
ENDBRANCH   2  13
BRANCH   1  16
ATOM     16  C   LIG    1        1.248  -0.560   1.110  0.00  0.00    +0.440 C 
ATOM     17  O   LIG    1        1.497   0.239   1.990  0.00  0.00    -0.490 OA
BRANCH  16  18
ATOM     18  C   LIG    1        1.158  -0.101  -0.322  0.00  0.00    +0.210 C 
BRANCH  18  20
ATOM     19  C   LIG    1        2.791   1.659  -0.009  0.00  0.00    +0.190 C 
ATOM     20  N   LIG    1        1.407   1.345  -0.390  0.00  0.00    -0.530 NA
BRANCH  20  21
ATOM     21  C   LIG    1        1.096   1.871  -1.726  0.00  0.00    +0.180 C 
BRANCH  21  22
ATOM     22  C   LIG    1        1.127   3.401  -1.691  0.00  0.00    +0.070 C 
BRANCH  22  23
ATOM     23  C   LIG    1        0.808   3.940  -3.061  0.00  0.00    -0.080 A 
ATOM     24  C   LIG    1        1.827   4.176  -3.965  0.00  0.00    +0.000 A 
ATOM     25  C   LIG    1        1.534   4.667  -5.224  0.00  0.00    +0.000 A 
ATOM     26  C   LIG    1        0.223   4.932  -5.575  0.00  0.00    -0.010 A 
ATOM     27  C   LIG    1       -0.795   4.700  -4.669  0.00  0.00    +0.000 A 
ATOM     28  C   LIG    1       -0.503   4.205  -3.412  0.00  0.00    +0.000 A 
ENDBRANCH  22  23
ENDBRANCH  21  22
ENDBRANCH  20  21
ENDBRANCH  18  20
ENDBRANCH  16  18
ENDBRANCH   1  16
TORSDOF 8
