REMARK  Name = ZINCrH000004rRmx.0
REMARK                            x       y       z     vdW  Elec       q    Type
REMARK                         _______ _______ _______ _____ _____    ______ ____
ROOT
ATOM      1  N   LIG    1       -3.914   5.418   7.104  0.00  0.00    -0.570 N 
ATOM      2  C   LIG    1       -4.063   3.961   7.187  0.00  0.00    +0.310 C 
ATOM      3  C   LIG    1       -2.700   3.382   6.748  0.00  0.00    +0.020 C 
ATOM      4  C   LIG    1       -1.739   4.545   7.088  0.00  0.00    +0.090 C 
ATOM      5  C   LIG    1       -2.619   5.775   7.053  0.00  0.00    +0.520 C 
ATOM      6  O   LIG    1       -2.215   6.917   6.988  0.00  0.00    -0.510 OA
ENDROOT
BRANCH   1  12
ATOM      7  C   LIG    1       -7.207   8.014   4.537  0.00  0.00    +0.090 C 
ATOM      8  C   LIG    1       -6.599   7.596   5.851  0.00  0.00    -0.080 A 
ATOM      9  C   LIG    1       -7.096   8.106   7.035  0.00  0.00    +0.020 A 
ATOM     10  C   LIG    1       -6.540   7.727   8.243  0.00  0.00    +0.010 A 
ATOM     11  C   LIG    1       -5.489   6.831   8.270  0.00  0.00    +0.010 A 
ATOM     12  C   LIG    1       -4.983   6.321   7.081  0.00  0.00    +0.140 A 
ATOM     13  C   LIG    1       -5.543   6.705   5.870  0.00  0.00    -0.070 A 
ATOM     14  C   LIG    1       -5.002   6.149   4.578  0.00  0.00    +0.100 C 
ENDBRANCH   1  12
BRANCH   3  15
ATOM     15  C   LIG    1       -2.689   3.087   5.270  0.00  0.00    +0.520 C 
ATOM     16  N   LIG    1       -1.584   2.575   4.693  0.00  0.00    -0.630 N 
ATOM     17  H   LIG    1       -0.796   2.395   5.229  0.00  0.00    +0.420 HD
ATOM     18  O   LIG    1       -3.675   3.312   4.600  0.00  0.00    -0.480 OA
BRANCH  16  19
ATOM     19  C   LIG    1       -1.575   2.304   3.332  0.00  0.00    +0.060 A 
ATOM     20  C   LIG    1       -0.512   1.786   2.653  0.00  0.00    -0.090 A 
ATOM     21  C   LIG    1       -0.771   1.600   1.229  0.00  0.00    -0.070 A 
ATOM     22  C   LIG    1       -2.001   1.976   0.879  0.00  0.00    -0.270 A 
ATOM     23  C   LIG    1       -2.219   1.764  -0.615  0.00  0.00    +0.120 C 
ATOM     24  C   LIG    1       -0.802   1.618  -1.205  0.00  0.00    +0.040 C 
ATOM     25  C   LIG    1       -0.013   1.086   0.008  0.00  0.00    +0.100 C 
ATOM     26  S   LIG    1       -2.892   2.572   2.279  0.00  0.00    +0.340 S 
BRANCH  20  27
ATOM     27  C   LIG    1        0.735   1.458   3.276  0.00  0.00    +0.270 C 
ATOM     28  N   LIG    1        1.725   1.198   3.770  0.00  0.00    -0.420 NA
ENDBRANCH  20  27
ENDBRANCH  16  19
ENDBRANCH   3  15
TORSDOF 4
