REMARK  Name = ZINCpk00000KfLCH.0
REMARK                            x       y       z     vdW  Elec       q    Type
REMARK                         _______ _______ _______ _____ _____    ______ ____
ROOT
ATOM      1  N   LIG    1       -1.751   5.911  -3.287  0.00  0.00    -0.600 N 
ATOM      2  C   LIG    1       -1.427   5.144  -2.227  0.00  0.00    +0.510 C 
ATOM      3  O   LIG    1       -1.148   5.662  -1.166  0.00  0.00    -0.510 OA
ENDROOT
BRANCH   1   4
ATOM      4  C   LIG    1       -2.087   5.285  -4.568  0.00  0.00    +0.290 C 
BRANCH   4   5
ATOM      5  C   LIG    1       -3.592   5.018  -4.625  0.00  0.00    +0.150 C 
BRANCH   5   7
ATOM      6  C   LIG    1       -5.719   6.122  -4.666  0.00  0.00    +0.200 C 
ATOM      7  O   LIG    1       -4.298   6.261  -4.615  0.00  0.00    -0.390 OA
ENDBRANCH   5   7
ENDBRANCH   4   5
ENDBRANCH   1   4
BRANCH   2   8
ATOM      8  C   LIG    1       -1.410   3.643  -2.360  0.00  0.00    +0.210 C 
BRANCH   8   9
ATOM      9  N   LIG    1       -1.028   3.041  -1.075  0.00  0.00    -0.520 NA
ATOM     10  C   LIG    1       -0.771   1.602  -1.223  0.00  0.00    +0.190 C 
ATOM     11  C   LIG    1       -0.013   1.086   0.008  0.00  0.00    +0.130 C 
ATOM     12  C   LIG    1       -0.734   1.579   1.236  0.00  0.00    -0.030 A 
ATOM     13  C   LIG    1       -1.651   2.575   1.213  0.00  0.00    +0.010 A 
ATOM     14  N   LIG    1       -2.092   2.755   2.458  0.00  0.00    -0.480 NA
ATOM     15  C   LIG    1       -1.485   1.913   3.254  0.00  0.00    +0.380 A 
ATOM     16  N   LIG    1       -0.628   1.162   2.523  0.00  0.00    -0.450 N 
ATOM     17  C   LIG    1        0.247   0.100   3.026  0.00  0.00    +0.330 C 
ATOM     18  C   LIG    1       -2.049   3.304  -0.046  0.00  0.00    +0.290 C 
ENDBRANCH   8   9
ENDBRANCH   2   8
BRANCH   1  19
ATOM     19  C   LIG    1       -1.767   7.370  -3.157  0.00  0.00    +0.340 C 
BRANCH  19  20
ATOM     20  C   LIG    1       -0.405   7.919  -3.496  0.00  0.00    -0.110 A 
ATOM     21  C   LIG    1        0.543   8.078  -2.502  0.00  0.00    +0.040 A 
ATOM     22  C   LIG    1        1.794   8.578  -2.814  0.00  0.00    +0.000 A 
ATOM     23  C   LIG    1        2.093   8.927  -4.117  0.00  0.00    +0.000 A 
ATOM     24  C   LIG    1        1.144   8.774  -5.110  0.00  0.00    -0.010 A 
ATOM     25  C   LIG    1       -0.105   8.270  -4.799  0.00  0.00    +0.010 A 
ENDBRANCH  19  20
ENDBRANCH   1  19
TORSDOF 7
