REMARK  Name = ZINCpe000000YmJu.0
REMARK                            x       y       z     vdW  Elec       q    Type
REMARK                         _______ _______ _______ _____ _____    ______ ____
ROOT
ATOM      1  C   LIG    1        5.180   5.067  -3.555  0.00  0.00    +0.360 C 
ATOM      2  N   LIG    1        5.459   5.016  -2.118  0.00  0.00    -0.410 N 
ATOM      3  C   LIG    1        6.628   5.315  -1.517  0.00  0.00    +0.500 A 
ATOM      4  N   LIG    1        6.512   5.157  -0.223  0.00  0.00    -0.500 NA
ATOM      5  C   LIG    1        5.274   4.752   0.074  0.00  0.00    +0.320 A 
ATOM      6  N   LIG    1        4.624   4.441   1.257  0.00  0.00    -0.510 N 
ATOM      7  C   LIG    1        5.338   4.538   2.532  0.00  0.00    +0.340 C 
ATOM      8  C   LIG    1        3.334   4.056   1.237  0.00  0.00    +0.720 A 
ATOM      9  O   LIG    1        2.778   3.792   2.286  0.00  0.00    -0.530 OA
ATOM     10  N   LIG    1        2.647   3.950   0.087  0.00  0.00    -0.540 N 
ATOM     11  C   LIG    1        3.225   4.239  -1.097  0.00  0.00    +0.600 A 
ATOM     12  O   LIG    1        2.591   4.144  -2.133  0.00  0.00    -0.510 OA
ATOM     13  C   LIG    1        4.575   4.652  -1.122  0.00  0.00    -0.150 A 
ENDROOT
BRANCH  10  14
ATOM     14  C   LIG    1        1.246   3.521   0.120  0.00  0.00    +0.380 C 
BRANCH  14  15
ATOM     15  C   LIG    1        1.178   2.020   0.002  0.00  0.00    +0.510 C 
ATOM     16  N   LIG    1       -0.017   1.397   0.010  0.00  0.00    -0.660 N 
ATOM     17  H   LIG    1       -0.835   1.917   0.006  0.00  0.00    +0.420 HD
ATOM     18  O   LIG    1        2.199   1.372  -0.099  0.00  0.00    -0.500 OA
BRANCH  16  19
ATOM     19  C   LIG    1       -0.077  -0.003   0.018  0.00  0.00    +0.130 A 
ATOM     20  C   LIG    1        0.984  -0.742   0.522  0.00  0.00    +0.070 A 
ATOM     21  C   LIG    1        0.920  -2.122   0.533  0.00  0.00    +0.060 A 
ATOM     22  C   LIG    1       -0.196  -2.769   0.033  0.00  0.00    -0.030 A 
ATOM     23  C   LIG    1       -1.254  -2.036  -0.476  0.00  0.00    +0.030 A 
ATOM     24 CL   LIG    1       -0.269  -4.503   0.044  0.00  0.00    -0.050 Cl
ATOM     25  C   LIG    1       -1.198  -0.655  -0.485  0.00  0.00    +0.080 A 
ATOM     26  F   LIG    1       -2.231   0.061  -0.983  0.00  0.00    -0.130 F 
ENDBRANCH  16  19
ENDBRANCH  14  15
ENDBRANCH  10  14
TORSDOF 3
