REMARK  Name = ZINCpk00000Gek8j.1
REMARK                            x       y       z     vdW  Elec       q    Type
REMARK                         _______ _______ _______ _____ _____    ______ ____
ROOT
ATOM      1  C   LIG    1       -6.801   5.023  -3.985  0.00  0.00    +0.080 C 
ATOM      2  C   LIG    1       -5.492   5.272  -4.779  0.00  0.00    +0.060 C 
ATOM      3  C   LIG    1       -4.396   4.835  -3.784  0.00  0.00    +0.240 C 
ATOM      4  N   LIG    1       -4.977   4.907  -2.436  0.00  0.00    -0.620 N 
ATOM      5  C   LIG    1       -4.345   4.584  -1.290  0.00  0.00    +0.530 C 
ATOM      6  O   LIG    1       -4.925   4.681  -0.229  0.00  0.00    -0.510 OA
ATOM      7  C   LIG    1       -6.367   5.384  -2.545  0.00  0.00    +0.280 C 
ENDROOT
BRANCH   1  11
ATOM      8  C   LIG    1       -9.265   9.085  -5.819  0.00  0.00    +0.140 C 
ATOM      9  C   LIG    1       -8.966   7.715  -5.266  0.00  0.00    +0.090 A 
ATOM     10  C   LIG    1       -7.743   7.239  -4.936  0.00  0.00    -0.120 A 
ATOM     11  C   LIG    1       -7.904   5.932  -4.463  0.00  0.00    +0.090 A 
ATOM     12  N   LIG    1       -9.177   5.633  -4.513  0.00  0.00    -0.290 NA
ATOM     13  N   LIG    1       -9.868   6.745  -5.011  0.00  0.00    -0.470 N 
ATOM     14  H   LIG    1      -10.826   6.806  -5.152  0.00  0.00    +0.440 HD
ENDBRANCH   1  11
BRANCH   5  15
ATOM     15  C   LIG    1       -2.917   4.101  -1.327  0.00  0.00    +0.230 C 
BRANCH  15  16
ATOM     16  N   LIG    1       -2.461   3.817   0.040  0.00  0.00    -0.460 N 
ATOM     17  C   LIG    1       -2.393   5.046   0.837  0.00  0.00    +0.300 C 
ATOM     18  C   LIG    1       -1.202   5.869   0.419  0.00  0.00    +0.480 C 
ATOM     19  N   LIG    1       -0.066   5.246   0.035  0.00  0.00    -0.670 N 
ATOM     20  H   LIG    1        0.715   5.758  -0.226  0.00  0.00    +0.410 HD
ATOM     21  C   LIG    1       -0.041   3.843   0.024  0.00  0.00    +0.130 A 
ATOM     22  C   LIG    1        1.165   3.164   0.009  0.00  0.00    -0.010 A 
ATOM     23  C   LIG    1        1.177   1.780   0.000  0.00  0.00    +0.040 A 
ATOM     24  C   LIG    1       -0.013   1.076   0.008  0.00  0.00    +0.000 A 
ATOM     25  C   LIG    1       -1.221   1.748   0.017  0.00  0.00    +0.070 A 
ATOM     26  O   LIG    1       -1.263   7.080   0.426  0.00  0.00    -0.510 OA
ATOM     27  C   LIG    1       -1.242   3.135   0.029  0.00  0.00    +0.050 A 
ENDBRANCH  15  16
ENDBRANCH   5  15
TORSDOF 3
