REMARK  Name = ZINCpk00000Gek8j.0
REMARK                            x       y       z     vdW  Elec       q    Type
REMARK                         _______ _______ _______ _____ _____    ______ ____
ROOT
ATOM      1  C   LIG    1       -2.199   1.882  -0.662  0.00  0.00    +0.080 C 
ATOM      2  C   LIG    1       -0.779   1.607  -1.226  0.00  0.00    +0.060 C 
ATOM      3  C   LIG    1       -0.013   1.086   0.008  0.00  0.00    +0.250 C 
ATOM      4  N   LIG    1       -0.721   1.570   1.202  0.00  0.00    -0.620 N 
ATOM      5  C   LIG    1       -0.374   1.312   2.479  0.00  0.00    +0.500 C 
ATOM      6  O   LIG    1       -1.034   1.765   3.390  0.00  0.00    -0.520 OA
ATOM      7  C   LIG    1       -1.874   2.383   0.767  0.00  0.00    +0.260 C 
ENDROOT
BRANCH   1  13
ATOM      8  C   LIG    1       -5.173   4.228  -4.066  0.00  0.00    +0.150 C 
ATOM      9  C   LIG    1       -4.195   3.989  -2.945  0.00  0.00    +0.080 A 
ATOM     10  N   LIG    1       -3.588   4.913  -2.246  0.00  0.00    -0.290 NA
ATOM     11  N   LIG    1       -2.766   4.281  -1.304  0.00  0.00    -0.470 N 
ATOM     12  H   LIG    1       -2.200   4.724  -0.653  0.00  0.00    +0.440 HD
ATOM     13  C   LIG    1       -2.901   2.948  -1.463  0.00  0.00    +0.100 A 
ATOM     14  C   LIG    1       -3.775   2.740  -2.475  0.00  0.00    -0.110 A 
ENDBRANCH   1  13
BRANCH   5  15
ATOM     15  C   LIG    1        0.833   0.460   2.775  0.00  0.00    +0.270 C 
BRANCH  15  16
ATOM     16  N   LIG    1        0.996   0.329   4.229  0.00  0.00    -0.460 N 
ATOM     17  C   LIG    1       -0.116  -0.426   4.816  0.00  0.00    +0.250 C 
ATOM     18  C   LIG    1        0.011  -0.449   6.317  0.00  0.00    +0.530 C 
ATOM     19  N   LIG    1        0.510   0.631   6.958  0.00  0.00    -0.660 N 
ATOM     20  H   LIG    1        0.588   0.641   7.925  0.00  0.00    +0.420 HD
ATOM     21  C   LIG    1        0.913   1.737   6.195  0.00  0.00    +0.130 A 
ATOM     22  C   LIG    1        1.074   2.978   6.789  0.00  0.00    +0.010 A 
ATOM     23  C   LIG    1        1.470   4.061   6.026  0.00  0.00    +0.020 A 
ATOM     24  C   LIG    1        1.704   3.908   4.672  0.00  0.00    +0.020 A 
ATOM     25  C   LIG    1        1.547   2.672   4.072  0.00  0.00    -0.010 A 
ATOM     26  O   LIG    1       -0.334  -1.428   6.945  0.00  0.00    -0.520 OA
ATOM     27  C   LIG    1        1.152   1.580   4.830  0.00  0.00    +0.100 A 
ENDBRANCH  15  16
ENDBRANCH   5  15
TORSDOF 3
