REMARK  Name = ZINCAx0000000aqr.0
REMARK                            x       y       z     vdW  Elec       q    Type
REMARK                         _______ _______ _______ _____ _____    ______ ____
ROOT
ATOM      1  O   LIG    1       -4.122   6.083  -7.951  0.00  0.00    -0.330 OA
ENDROOT
BRANCH   1   2
ATOM      2  C   LIG    1       -4.393   5.337  -6.864  0.00  0.00    +0.510 C 
ATOM      3  O   LIG    1       -5.335   4.571  -6.872  0.00  0.00    -0.490 OA
BRANCH   2   4
ATOM      4  C   LIG    1       -3.544   5.451  -5.658  0.00  0.00    -0.100 A 
ATOM      5  C   LIG    1       -2.462   6.331  -5.650  0.00  0.00    +0.130 A 
ATOM      6  C   LIG    1       -1.662   6.444  -4.525  0.00  0.00    +0.110 A 
ATOM      7  C   LIG    1       -1.936   5.679  -3.403  0.00  0.00    -0.100 A 
ATOM      8  C   LIG    1       -1.313   5.552  -2.066  0.00  0.00    +0.580 C 
ATOM      9  N   LIG    1       -2.003   4.640  -1.357  0.00  0.00    -0.570 N 
ATOM     10  C   LIG    1       -3.029   4.145  -2.073  0.00  0.00    +0.580 C 
ATOM     11  O   LIG    1       -3.822   3.310  -1.690  0.00  0.00    -0.440 OA
ATOM     12  O   LIG    1       -0.341   6.166  -1.675  0.00  0.00    -0.450 OA
ATOM     13  C   LIG    1       -3.028   4.787  -3.405  0.00  0.00    -0.150 A 
ATOM     14  C   LIG    1       -3.827   4.675  -4.529  0.00  0.00    +0.180 A 
BRANCH   9  15
ATOM     15  C   LIG    1       -1.682   4.241   0.015  0.00  0.00    +0.450 C 
BRANCH  15  16
ATOM     16  C   LIG    1       -0.730   3.074  -0.010  0.00  0.00    -0.060 A 
ATOM     17  C   LIG    1        0.613   3.154  -0.020  0.00  0.00    -0.020 A 
ATOM     18  C   LIG    1        1.103   1.828  -0.042  0.00  0.00    -0.070 A 
ATOM     19  C   LIG    1        0.030   1.017  -0.045  0.00  0.00    +0.190 A 
ATOM     20  O   LIG    1       -1.077   1.777  -0.031  0.00  0.00    -0.170 OA
ENDBRANCH  15  16
ENDBRANCH   9  15
ENDBRANCH   2   4
ENDBRANCH   1   2
BRANCH   1  21
ATOM     21  C   LIG    1       -4.998   5.920  -9.098  0.00  0.00    +0.270 C 
BRANCH  21  23
ATOM     22  O   LIG    1       -3.576   7.543 -10.053  0.00  0.00    -0.500 OA
ATOM     23  C   LIG    1       -4.543   6.828 -10.211  0.00  0.00    +0.520 C 
ATOM     24  N   LIG    1       -5.211   6.846 -11.382  0.00  0.00    -0.650 N 
ATOM     25  H   LIG    1       -5.943   6.228 -11.532  0.00  0.00    +0.430 HD
BRANCH  24  26
ATOM     26  C   LIG    1       -4.849   7.752 -12.376  0.00  0.00    +0.210 A 
ATOM     27  C   LIG    1       -3.516   8.096 -12.555  0.00  0.00    +0.020 A 
ATOM     28  C   LIG    1       -3.160   8.995 -13.541  0.00  0.00    +0.060 A 
ATOM     29  C   LIG    1       -4.126   9.559 -14.358  0.00  0.00    -0.010 A 
ATOM     30  C   LIG    1       -5.454   9.229 -14.194  0.00  0.00    +0.060 A 
ATOM     31  C   LIG    1       -5.829   8.317 -13.205  0.00  0.00    -0.170 A 
BRANCH  31  32
ATOM     32  C   LIG    1       -7.249   7.955 -13.029  0.00  0.00    +0.570 C 
ATOM     33  N   LIG    1       -8.174   8.416 -13.895  0.00  0.00    -0.700 N 
ATOM     34  H   LIG    1       -7.907   8.986 -14.633  0.00  0.00    +0.400 HD
ATOM     35  O   LIG    1       -7.584   7.242 -12.104  0.00  0.00    -0.540 OA
BRANCH  33  36
ATOM     36  C   LIG    1       -9.583   8.057 -13.720  0.00  0.00    +0.220 C 
ATOM     37  C   LIG    1      -10.369   7.651 -14.968  0.00  0.00    +0.020 C 
ATOM     38  C   LIG    1      -10.632   9.005 -14.304  0.00  0.00    +0.020 C 
ENDBRANCH  33  36
ENDBRANCH  31  32
ENDBRANCH  24  26
ENDBRANCH  21  23
ENDBRANCH   1  21
TORSDOF 9
