REMARK  Name = ZINCpe000000UVTf.1
REMARK                            x       y       z     vdW  Elec       q    Type
REMARK                         _______ _______ _______ _____ _____    ______ ____
ROOT
ATOM      1  N   LIG    1       -2.371  -0.271   1.273  0.00  0.00    -0.700 N 
ATOM      2  H   LIG    1       -1.625  -0.891   1.262  0.00  0.00    +0.410 HD
ATOM      3  C   LIG    1       -2.143   1.058   1.278  0.00  0.00    +0.530 C 
ATOM      4  O   LIG    1       -3.075   1.833   1.291  0.00  0.00    -0.530 OA
ENDROOT
BRANCH   3   5
ATOM      5  C   LIG    1       -0.729   1.579   1.267  0.00  0.00    +0.250 C 
ATOM      6  C   LIG    1       -0.013   1.086   0.008  0.00  0.00    +0.070 C 
BRANCH   5   7
ATOM      7  N   LIG    1       -0.749   3.044   1.275  0.00  0.00    -0.710 N 
ATOM      8  H   LIG    1       -1.520   3.521   0.930  0.00  0.00    +0.410 HD
ATOM      9  C   LIG    1        0.305   3.730   1.762  0.00  0.00    +0.600 C 
ATOM     10  O   LIG    1        1.272   3.132   2.195  0.00  0.00    -0.520 OA
BRANCH   9  11
ATOM     11  C   LIG    1        0.285   5.194   1.770  0.00  0.00    -0.260 A 
ATOM     12  C   LIG    1        1.287   5.998   2.235  0.00  0.00    +0.110 A 
ATOM     13  C   LIG    1        1.006   7.339   2.122  0.00  0.00    +0.050 A 
ATOM     14  C   LIG    1       -0.186   7.626   1.583  0.00  0.00    -0.220 A 
ATOM     15 BR   LIG    1       -0.843   9.377   1.304  0.00  0.00    +0.020 Br
ATOM     16  S   LIG    1       -1.030   6.200   1.175  0.00  0.00    +0.270 S 
ENDBRANCH   9  11
ENDBRANCH   5   7
ENDBRANCH   3   5
BRANCH   1  17
ATOM     17  C   LIG    1       -3.745  -0.778   1.283  0.00  0.00    +0.260 C 
BRANCH  17  21
ATOM     18  C   LIG    1       -5.981  -1.346   4.338  0.00  0.00    +0.290 C 
ATOM     19  N   LIG    1       -5.494  -1.283   2.958  0.00  0.00    -0.730 N 
ATOM     20  H   LIG    1       -6.070  -1.557   2.227  0.00  0.00    +0.400 HD
ATOM     21  C   LIG    1       -4.246  -0.843   2.703  0.00  0.00    +0.500 C 
ATOM     22  O   LIG    1       -3.526  -0.500   3.616  0.00  0.00    -0.520 OA
ENDBRANCH  17  21
BRANCH  17  23
ATOM     23  C   LIG    1       -3.777  -2.178   0.666  0.00  0.00    +0.140 C 
BRANCH  23  24
ATOM     24  C   LIG    1       -3.394  -2.094  -0.789  0.00  0.00    -0.030 A 
ATOM     25  C   LIG    1       -2.145  -2.097  -1.292  0.00  0.00    +0.160 A 
ATOM     26  N   LIG    1       -2.234  -2.009  -2.627  0.00  0.00    -0.490 NA
ATOM     27  C   LIG    1       -3.492  -1.951  -2.971  0.00  0.00    +0.400 A 
ATOM     28  N   LIG    1       -4.249  -2.007  -1.854  0.00  0.00    -0.570 N 
ATOM     29  H   LIG    1       -5.218  -1.987  -1.814  0.00  0.00    +0.420 HD
ENDBRANCH  23  24
ENDBRANCH  17  23
ENDBRANCH   1  17
TORSDOF 7
