REMARK  Name = ZINCrD0000074nsY.0
REMARK                            x       y       z     vdW  Elec       q    Type
REMARK                         _______ _______ _______ _____ _____    ______ ____
ROOT
ATOM      1  N   LIG    1       -0.653   1.721   3.626  0.00  0.00    -0.740 N 
ATOM      2  H   LIG    1       -1.485   1.232   3.734  0.00  0.00    +0.390 HD
ATOM      3  C   LIG    1       -0.043   1.754   2.425  0.00  0.00    +0.710 C 
ATOM      4  N   LIG    1       -0.636   1.196   1.351  0.00  0.00    -0.630 N 
ATOM      5  C   LIG    1        0.071   1.109   0.066  0.00  0.00    +0.310 C 
ATOM      6  C   LIG    1       -0.802   1.739  -1.024  0.00  0.00    +0.040 C 
ATOM      7  C   LIG    1       -2.178   1.070  -1.020  0.00  0.00    +0.170 C 
ATOM      8  C   LIG    1       -2.855   1.299   0.333  0.00  0.00    +0.000 C 
ATOM      9  C   LIG    1       -2.006   0.664   1.439  0.00  0.00    +0.280 C 
ATOM     10  O   LIG    1        1.044   2.288   2.310  0.00  0.00    -0.580 OA
ENDROOT
BRANCH   1  11
ATOM     11  C   LIG    1       -0.062   2.421   4.769  0.00  0.00    +0.330 C 
ATOM     12  C   LIG    1       -0.500   3.887   4.750  0.00  0.00    +0.030 C 
BRANCH  11  15
ATOM     13  C   LIG    1        1.329   2.663   7.560  0.00  0.00    +0.140 C 
ATOM     14  C   LIG    1        0.078   1.880   7.256  0.00  0.00    +0.100 A 
ATOM     15  C   LIG    1       -0.524   1.775   6.049  0.00  0.00    -0.250 A 
ATOM     16  C   LIG    1       -1.654   0.965   6.200  0.00  0.00    +0.230 A 
ATOM     17  N   LIG    1       -1.723   0.589   7.452  0.00  0.00    -0.290 NA
ATOM     18  N   LIG    1       -0.643   1.157   8.139  0.00  0.00    -0.370 N 
ATOM     19  C   LIG    1       -0.347   0.995   9.565  0.00  0.00    +0.360 C 
ENDBRANCH  11  15
ENDBRANCH   1  11
BRANCH   7  20
ATOM     20  O   LIG    1       -2.984   1.634  -2.057  0.00  0.00    -0.300 OA
BRANCH  20  21
ATOM     21  C   LIG    1       -4.004   0.869  -2.531  0.00  0.00    +0.090 A 
ATOM     22  C   LIG    1       -4.255  -0.375  -1.974  0.00  0.00    -0.010 A 
ATOM     23  C   LIG    1       -5.295  -1.150  -2.454  0.00  0.00    +0.030 A 
ATOM     24  C   LIG    1       -6.079  -0.689  -3.497  0.00  0.00    +0.090 A 
ATOM     25  C   LIG    1       -5.827   0.551  -4.059  0.00  0.00    +0.010 A 
ATOM     26  F   LIG    1       -7.091  -1.450  -3.968  0.00  0.00    -0.130 F 
ATOM     27  C   LIG    1       -4.791   1.331  -3.578  0.00  0.00    +0.100 A 
ATOM     28  F   LIG    1       -4.545   2.541  -4.126  0.00  0.00    -0.120 F 
ENDBRANCH  20  21
ENDBRANCH   7  20
TORSDOF 4
