REMARK  Name = ZINCah0000006lmK.0
REMARK                            x       y       z     vdW  Elec       q    Type
REMARK                         _______ _______ _______ _____ _____    ______ ____
ROOT
ATOM      1 CL   LIG    1        2.664   3.915  -0.002  0.00  0.00    -0.000 Cl
ATOM      2  C   LIG    1        1.155   3.057   0.007  0.00  0.00    +0.250 A 
ATOM      3  N   LIG    1        1.131   1.731   0.001  0.00  0.00    -0.510 NA
ATOM      4  C   LIG    1       -0.013   1.076   0.008  0.00  0.00    +0.550 A 
ATOM      5  N   LIG    1       -1.175   1.700   0.017  0.00  0.00    -0.500 NA
ATOM      6  C   LIG    1       -1.228   3.019   0.029  0.00  0.00    +0.160 A 
ATOM      7  C   LIG    1       -2.361   4.015   0.045  0.00  0.00    +0.320 C 
ATOM      8  O   LIG    1       -1.784   5.266   0.463  0.00  0.00    -0.340 OA
ATOM      9  C   LIG    1       -0.411   5.206   0.033  0.00  0.00    +0.300 C 
ATOM     10  C   LIG    1       -0.045   3.743   0.022  0.00  0.00    -0.230 A 
ENDROOT
TORSDOF 0
