REMARK  Name = ZINCqH00000512Wo.1
REMARK                            x       y       z     vdW  Elec       q    Type
REMARK                         _______ _______ _______ _____ _____    ______ ____
ROOT
ATOM      1  N   LIG    1       -0.318   4.032   1.298  0.00  0.00    -0.690 N 
ATOM      2  H   LIG    1        0.426   4.317   0.744  0.00  0.00    +0.410 HD
ENDROOT
BRANCH   1  14
ATOM      3  N   LIG    1       -2.698   4.297   5.267  0.00  0.00    -0.720 NA
ATOM      4  H   LIG    1       -2.849   4.655   6.155  0.00  0.00    +0.330 HD
ATOM      5  C   LIG    1       -1.669   4.718   4.551  0.00  0.00    +0.550 A 
ATOM      6  N   LIG    1       -0.857   5.642   5.090  0.00  0.00    -0.640 NA
ATOM      7  C   LIG    1        0.183   6.100   4.428  0.00  0.00    +0.470 A 
ATOM      8  N   LIG    1        1.178   7.010   4.676  0.00  0.00    -0.490 N 
ATOM      9  H   LIG    1        1.285   7.530   5.489  0.00  0.00    +0.460 HD
ATOM     10  N   LIG    1        2.013   7.060   3.552  0.00  0.00    -0.450 N 
ATOM     11  H   LIG    1        2.796   7.626   3.466  0.00  0.00    +0.460 HD
ATOM     12  C   LIG    1        1.570   6.208   2.609  0.00  0.00    +0.440 A 
ATOM     13  C   LIG    1        0.442   5.571   3.079  0.00  0.00    -0.350 A 
ATOM     14  C   LIG    1       -0.488   4.571   2.552  0.00  0.00    +0.530 A 
ATOM     15  N   LIG    1       -1.495   4.198   3.327  0.00  0.00    -0.580 NA
ENDBRANCH   1  14
BRANCH   1  16
ATOM     16  C   LIG    1       -1.260   3.028   0.798  0.00  0.00    +0.270 C 
ATOM     17  C   LIG    1       -0.802   1.617   1.230  0.00  0.00    +0.020 C 
ATOM     18  C   LIG    1       -0.013   1.086   0.008  0.00  0.00    +0.010 C 
ATOM     19  C   LIG    1       -0.825   1.630  -1.193  0.00  0.00    +0.030 C 
ATOM     20  C   LIG    1       -1.272   3.036  -0.741  0.00  0.00    +0.030 C 
BRANCH  20  21
ATOM     21  C   LIG    1       -2.663   3.323  -1.246  0.00  0.00    -0.070 A 
ATOM     22  C   LIG    1       -3.709   2.490  -0.899  0.00  0.00    +0.060 A 
ATOM     23  C   LIG    1       -4.986   2.756  -1.358  0.00  0.00    +0.030 A 
ATOM     24  C   LIG    1       -5.214   3.849  -2.173  0.00  0.00    +0.070 A 
ATOM     25  C   LIG    1       -4.165   4.680  -2.524  0.00  0.00    -0.180 A 
ATOM     26  C   LIG    1       -2.890   4.417  -2.061  0.00  0.00    +0.060 A 
BRANCH  25  27
ATOM     27  C   LIG    1       -4.414   5.871  -3.413  0.00  0.00    +0.510 C 
ATOM     28  F   LIG    1       -3.498   6.883  -3.103  0.00  0.00    -0.180 F 
ATOM     29  F   LIG    1       -5.715   6.342  -3.209  0.00  0.00    -0.180 F 
ATOM     30  F   LIG    1       -4.257   5.495  -4.751  0.00  0.00    -0.180 F 
ENDBRANCH  25  27
ENDBRANCH  20  21
ENDBRANCH   1  16
TORSDOF 4
