REMARK  Name = ZINCvU0000000AEW.0
REMARK                            x       y       z     vdW  Elec       q    Type
REMARK                         _______ _______ _______ _____ _____    ______ ____
ROOT
ATOM      1  C   LIG    1       -2.615   1.772   2.937  0.00  0.00    +0.250 C 
ENDROOT
BRANCH   1   3
ATOM      2  O   LIG    1       -4.455   0.740   1.881  0.00  0.00    -0.500 OA
ATOM      3  C   LIG    1       -4.085   1.498   2.752  0.00  0.00    +0.520 C 
ATOM      4  N   LIG    1       -4.988   2.094   3.555  0.00  0.00    -0.600 N 
BRANCH   4   5
ATOM      5  C   LIG    1       -4.558   3.129   4.499  0.00  0.00    +0.240 C 
ATOM      6  C   LIG    1       -4.072   4.356   3.724  0.00  0.00    +0.000 C 
ATOM      7  C   LIG    1       -3.623   5.436   4.710  0.00  0.00    +0.020 C 
ATOM      8  C   LIG    1       -2.484   4.895   5.576  0.00  0.00    +0.000 C 
ATOM      9  C   LIG    1       -2.970   3.668   6.351  0.00  0.00    +0.030 C 
ATOM     10  C   LIG    1       -3.419   2.588   5.365  0.00  0.00    -0.010 C 
ENDBRANCH   4   5
BRANCH   4  11
ATOM     11  C   LIG    1       -6.399   1.708   3.484  0.00  0.00    +0.250 C 
ATOM     12  C   LIG    1       -6.538   0.220   3.813  0.00  0.00    -0.000 C 
ATOM     13  C   LIG    1       -8.012  -0.183   3.739  0.00  0.00    +0.020 C 
ATOM     14  C   LIG    1       -8.542   0.079   2.327  0.00  0.00    +0.000 C 
ATOM     15  C   LIG    1       -8.403   1.567   1.998  0.00  0.00    +0.010 C 
ATOM     16  C   LIG    1       -6.929   1.970   2.073  0.00  0.00    +0.010 C 
ENDBRANCH   4  11
ENDBRANCH   1   3
BRANCH   1  17
ATOM     17  O   LIG    1       -1.883   1.291   1.779  0.00  0.00    -0.330 OA
BRANCH  17  18
ATOM     18  C   LIG    1       -0.551   1.460   1.785  0.00  0.00    +0.480 C 
ATOM     19  O   LIG    1       -0.015   1.993   2.728  0.00  0.00    -0.500 OA
BRANCH  18  20
ATOM     20  C   LIG    1        0.274   0.986   0.618  0.00  0.00    -0.010 C 
ATOM     21  C   LIG    1       -0.140   1.738  -0.664  0.00  0.00    +0.060 C 
ATOM     22  C   LIG    1        0.877   2.902  -0.767  0.00  0.00    +0.020 C 
ATOM     23  C   LIG    1        2.197   2.246  -0.288  0.00  0.00    +0.020 C 
ATOM     24  C   LIG    1        1.760   1.309   0.857  0.00  0.00    +0.060 C 
BRANCH  20  25
ATOM     25  C   LIG    1        0.093  -0.498   0.427  0.00  0.00    -0.040 A 
ATOM     26  C   LIG    1       -0.610  -1.234   1.362  0.00  0.00    +0.000 A 
ATOM     27  C   LIG    1       -0.782  -2.595   1.185  0.00  0.00    +0.060 A 
ATOM     28  C   LIG    1       -0.242  -3.222   0.079  0.00  0.00    -0.010 A 
ATOM     29  C   LIG    1        0.467  -2.486  -0.856  0.00  0.00    +0.100 A 
ATOM     30  F   LIG    1        0.996  -3.099  -1.938  0.00  0.00    -0.140 F 
ATOM     31  C   LIG    1        0.634  -1.123  -0.681  0.00  0.00    +0.000 A 
ENDBRANCH  20  25
ENDBRANCH  18  20
ENDBRANCH  17  18
ENDBRANCH   1  17
TORSDOF 7
