REMARK  Name = ZINCpk00000y6x11.0
REMARK                            x       y       z     vdW  Elec       q    Type
REMARK                         _______ _______ _______ _____ _____    ______ ____
ROOT
ATOM      1  C   LIG    1        1.248   1.716  -0.001  0.00  0.00    +0.260 C 
ATOM      2  C   LIG    1        1.775   1.931   1.440  0.00  0.00    +0.250 C 
ATOM      3  N   LIG    1        2.447   0.666   1.789  0.00  0.00    -0.610 N 
ATOM      4  C   LIG    1        2.857  -0.007   0.548  0.00  0.00    +0.260 C 
ATOM      5  C   LIG    1        2.652   0.205   3.039  0.00  0.00    +0.540 C 
ATOM      6  O   LIG    1        3.220  -0.853   3.208  0.00  0.00    -0.510 OA
ATOM      7  C   LIG    1        2.391   0.876  -0.628  0.00  0.00    -0.010 C 
ATOM      8  C   LIG    1        1.863   0.016  -1.779  0.00  0.00    +0.060 C 
ENDROOT
BRANCH   5   9
ATOM      9  C   LIG    1        2.176   1.003   4.225  0.00  0.00    +0.140 C 
ATOM     10  C   LIG    1        2.932   2.350   4.327  0.00  0.00    +0.080 C 
ATOM     11  C   LIG    1        3.113   2.512   5.824  0.00  0.00    +0.090 C 
ATOM     12  N   LIG    1        2.885   1.387   6.383  0.00  0.00    -0.280 NA
ATOM     13  O   LIG    1        2.553   0.366   5.462  0.00  0.00    -0.170 OA
BRANCH  11  14
ATOM     14  C   LIG    1        3.496   3.785   6.532  0.00  0.00    +0.070 C 
ATOM     15  C   LIG    1        4.911   4.193   6.119  0.00  0.00    +0.040 C 
ATOM     16  C   LIG    1        3.452   3.561   8.045  0.00  0.00    +0.040 C 
ENDBRANCH  11  14
ENDBRANCH   5   9
BRANCH   1  18
ATOM     17  C   LIG    1       -1.187   1.624   0.017  0.00  0.00    +0.520 C 
ATOM     18  N   LIG    1       -0.011   0.966   0.007  0.00  0.00    -0.720 N 
ATOM     19  H   LIG    1        0.002  -0.004   0.002  0.00  0.00    +0.400 HD
ATOM     20  O   LIG    1       -1.204   2.837   0.023  0.00  0.00    -0.530 OA
BRANCH  17  21
ATOM     21  C   LIG    1       -2.482   0.853   0.018  0.00  0.00    +0.060 C 
BRANCH  21  22
ATOM     22  C   LIG    1       -3.658   1.831   0.029  0.00  0.00    +0.020 C 
ATOM     23  C   LIG    1       -3.667   2.633  -1.274  0.00  0.00    +0.030 C 
BRANCH  22  24
ATOM     24  C   LIG    1       -4.969   1.052   0.157  0.00  0.00    +0.160 C 
BRANCH  24  26
ATOM     25  C   LIG    1       -7.335   1.339   0.411  0.00  0.00    +0.200 C 
ATOM     26  O   LIG    1       -6.058   1.968   0.284  0.00  0.00    -0.390 OA
ENDBRANCH  24  26
ENDBRANCH  22  24
ENDBRANCH  21  22
ENDBRANCH  17  21
ENDBRANCH   1  18
TORSDOF 7
