REMARK  Name = ZINCrH000004uWNh.0
REMARK                            x       y       z     vdW  Elec       q    Type
REMARK                         _______ _______ _______ _____ _____    ______ ____
ROOT
ATOM      1  O   LIG    1       -2.018  -0.233  -1.222  0.00  0.00    -0.550 OA
ATOM      2  C   LIG    1       -1.718   0.837  -1.715  0.00  0.00    +0.600 C 
ATOM      3  N   LIG    1       -0.727   1.574  -1.174  0.00  0.00    -0.710 N 
ATOM      4  H   LIG    1       -0.487   2.428  -1.568  0.00  0.00    +0.410 HD
ENDROOT
BRANCH   3   5
ATOM      5  C   LIG    1       -0.013   1.086   0.008  0.00  0.00    +0.300 C 
ATOM      6  C   LIG    1        1.125   0.162  -0.426  0.00  0.00    +0.020 C 
ATOM      7  C   LIG    1        1.761   0.655  -1.717  0.00  0.00    +0.010 C 
ATOM      8  C   LIG    1        2.509   1.962  -1.560  0.00  0.00    +0.230 C 
ATOM      9  O   LIG    1        1.612   3.027  -1.229  0.00  0.00    -0.330 OA
ATOM     10  C   LIG    1        1.348   3.182   0.097  0.00  0.00    +0.140 A 
ATOM     11  C   LIG    1        1.865   4.276   0.778  0.00  0.00    -0.020 A 
ATOM     12  C   LIG    1        1.616   4.420   2.132  0.00  0.00    +0.120 A 
ATOM     13  C   LIG    1        0.857   3.479   2.805  0.00  0.00    -0.020 A 
ATOM     14  C   LIG    1        0.334   2.394   2.122  0.00  0.00    +0.080 A 
ATOM     15  F   LIG    1        2.116   5.484   2.799  0.00  0.00    -0.130 F 
ATOM     16  C   LIG    1        0.576   2.258   0.771  0.00  0.00    -0.140 A 
ENDBRANCH   3   5
BRANCH   2  17
ATOM     17  C   LIG    1       -2.437   1.329  -2.904  0.00  0.00    -0.300 A 
ATOM     18  C   LIG    1       -3.463   0.684  -3.566  0.00  0.00    +0.320 A 
ATOM     19  N   LIG    1       -3.837   1.470  -4.588  0.00  0.00    -0.350 N 
ATOM     20  N   LIG    1       -3.038   2.618  -4.582  0.00  0.00    -0.280 NA
ATOM     21  C   LIG    1       -2.201   2.544  -3.584  0.00  0.00    +0.270 A 
BRANCH  19  22
ATOM     22  C   LIG    1       -4.900   1.171  -5.552  0.00  0.00    +0.380 C 
BRANCH  22  23
ATOM     23  C   LIG    1       -5.889   2.308  -5.577  0.00  0.00    -0.120 A 
ATOM     24  C   LIG    1       -6.980   2.294  -4.729  0.00  0.00    +0.020 A 
ATOM     25  C   LIG    1       -7.884   3.339  -4.748  0.00  0.00    +0.000 A 
ATOM     26  C   LIG    1       -7.704   4.393  -5.623  0.00  0.00    +0.010 A 
ATOM     27  C   LIG    1       -6.615   4.405  -6.476  0.00  0.00    +0.010 A 
ATOM     28  C   LIG    1       -5.708   3.362  -6.453  0.00  0.00    +0.050 A 
ENDBRANCH  22  23
ENDBRANCH  19  22
ENDBRANCH   2  17
TORSDOF 4
