REMARK  Name = ZINCpk00000ebcF6.0
REMARK                            x       y       z     vdW  Elec       q    Type
REMARK                         _______ _______ _______ _____ _____    ______ ____
ROOT
ATOM      1  C   LIG    1        0.063   9.321  -0.525  0.00  0.00    +0.520 C 
ATOM      2  N   LIG    1       -0.171   8.006  -0.708  0.00  0.00    -0.720 N 
ATOM      3  H   LIG    1        0.347   7.507  -1.358  0.00  0.00    +0.410 HD
ATOM      4  O   LIG    1       -0.585   9.945   0.288  0.00  0.00    -0.510 OA
ENDROOT
BRANCH   1   5
ATOM      5  C   LIG    1        1.130  10.015  -1.331  0.00  0.00    +0.270 C 
BRANCH   5   6
ATOM      6  O   LIG    1        1.188  11.416  -0.953  0.00  0.00    -0.320 OA
BRANCH   6   7
ATOM      7  C   LIG    1        2.097  12.184  -1.585  0.00  0.00    +0.560 C 
ATOM      8  O   LIG    1        2.822  11.696  -2.430  0.00  0.00    -0.480 OA
BRANCH   7  15
ATOM      9  C   LIG    1        0.494  14.719  -2.971  0.00  0.00    +0.180 C 
ATOM     10  C   LIG    1        1.508  14.755  -1.857  0.00  0.00    +0.070 A 
ATOM     11  N   LIG    1        1.948  15.803  -1.225  0.00  0.00    -0.350 NA
ATOM     12  O   LIG    1        2.760  15.521  -0.379  0.00  0.00    +0.100 OA
ATOM     13  C   LIG    1        3.000  14.210  -0.298  0.00  0.00    +0.040 A 
ATOM     14  C   LIG    1        3.948  13.523   0.650  0.00  0.00    +0.200 C 
ATOM     15  C   LIG    1        2.213  13.614  -1.253  0.00  0.00    -0.250 A 
ENDBRANCH   7  15
ENDBRANCH   6   7
ENDBRANCH   5   6
ENDBRANCH   1   5
BRANCH   2  16
ATOM     16  C   LIG    1       -1.209   7.331   0.076  0.00  0.00    +0.320 C 
BRANCH  16  17
ATOM     17  C   LIG    1       -1.270   5.855  -0.323  0.00  0.00    +0.140 C 
ATOM     18  C   LIG    1       -2.417   5.164   0.426  0.00  0.00    +0.240 C 
ATOM     19  O   LIG    1       -2.438   3.785   0.040  0.00  0.00    -0.300 OA
ATOM     20  C   LIG    1       -1.241   3.136   0.030  0.00  0.00    +0.050 A 
ATOM     21  C   LIG    1       -1.220   1.750   0.017  0.00  0.00    +0.030 A 
ATOM     22  C   LIG    1       -0.013   1.076   0.008  0.00  0.00    +0.020 A 
ATOM     23  C   LIG    1        1.175   1.782   0.000  0.00  0.00    +0.020 A 
ATOM     24  C   LIG    1        1.161   3.164   0.009  0.00  0.00    +0.030 A 
ATOM     25  C   LIG    1       -0.046   3.846   0.024  0.00  0.00    +0.050 A 
ATOM     26  O   LIG    1       -0.045   5.207   0.037  0.00  0.00    -0.300 OA
ENDBRANCH  16  17
ENDBRANCH   2  16
TORSDOF 6
