REMARK  Name = ZINCnE00000hdaYF.0
REMARK                            x       y       z     vdW  Elec       q    Type
REMARK                         _______ _______ _______ _____ _____    ______ ____
ROOT
ATOM      1  C   LIG    1       -4.079   0.758   6.785  0.00  0.00    +0.460 C 
ATOM      2  O   LIG    1       -4.507   1.638   7.509  0.00  0.00    -0.470 OA
ENDROOT
BRANCH   1   3
ATOM      3  C   LIG    1       -4.274  -0.662   7.152  0.00  0.00    -0.110 A 
ATOM      4  C   LIG    1       -3.468  -1.251   8.127  0.00  0.00    +0.100 A 
ATOM      5  C   LIG    1       -3.660  -2.574   8.469  0.00  0.00    +0.020 A 
ATOM      6  C   LIG    1       -4.640  -3.320   7.838  0.00  0.00    +0.090 A 
ATOM      7  C   LIG    1       -5.439  -2.743   6.867  0.00  0.00    -0.050 A 
ATOM      8  C   LIG    1       -5.262  -1.420   6.520  0.00  0.00    +0.010 A 
ATOM      9  C   LIG    1       -6.132  -0.793   5.461  0.00  0.00    +0.140 C 
BRANCH   7  10
ATOM     10  N   LIG    1       -6.486  -3.548   6.198  0.00  0.00    +0.040 N 
ATOM     11  O   LIG    1       -7.110  -3.079   5.263  0.00  0.00    -0.160 OA
ATOM     12  O   LIG    1       -6.724  -4.678   6.583  0.00  0.00    -0.180 OA
ENDBRANCH   7  10
ENDBRANCH   1   3
BRANCH   1  14
ATOM     13  C   LIG    1       -3.228   2.445   5.183  0.00  0.00    +0.410 C 
ATOM     14  C   LIG    1       -3.372   1.104   5.554  0.00  0.00    -0.430 C 
ATOM     15  O   LIG    1       -3.743   3.420   5.963  0.00  0.00    -0.590 OA
BRANCH  13  20
ATOM     16  C   LIG    1       -0.523   2.684   0.570  0.00  0.00    +0.120 C 
ATOM     17  C   LIG    1       -1.289   2.891   1.851  0.00  0.00    -0.250 A 
ATOM     18  C   LIG    1       -1.639   4.088   2.342  0.00  0.00    -0.030 A 
ATOM     19  C   LIG    1       -2.339   4.053   3.522  0.00  0.00    +0.070 A 
ATOM     20  C   LIG    1       -2.544   2.780   3.991  0.00  0.00    -0.220 A 
ATOM     21  S   LIG    1       -1.821   1.632   2.873  0.00  0.00    +0.220 S 
ENDBRANCH  13  20
BRANCH  14  22
ATOM     22  C   LIG    1       -2.826   0.070   4.727  0.00  0.00    +0.290 C 
ATOM     23  N   LIG    1       -2.393  -0.751   4.071  0.00  0.00    -0.500 NA
ENDBRANCH  14  22
ENDBRANCH   1  14
TORSDOF 5
