REMARK  Name = ZINCqH00000517MO.0
REMARK                            x       y       z     vdW  Elec       q    Type
REMARK                         _______ _______ _______ _____ _____    ______ ____
ROOT
ATOM      1  O   LIG    1       -3.699  -6.085  -0.000  0.00  0.00    -0.500 OA
ATOM      2  C   LIG    1       -2.770  -6.858  -0.014  0.00  0.00    +0.460 C 
ENDROOT
BRANCH   2   3
ATOM      3  O   LIG    1       -2.998  -8.181  -0.020  0.00  0.00    -0.350 OA
BRANCH   3   4
ATOM      4  C   LIG    1       -4.385  -8.611  -0.010  0.00  0.00    +0.270 C 
BRANCH   4   5
ATOM      5  C   LIG    1       -4.444 -10.117  -0.019  0.00  0.00    -0.110 A 
ATOM      6  C   LIG    1       -4.488 -10.799  -1.222  0.00  0.00    +0.080 A 
ATOM      7  C   LIG    1       -4.537 -12.179  -1.234  0.00  0.00    +0.000 A 
ATOM      8  C   LIG    1       -4.553 -12.882  -0.036  0.00  0.00    +0.150 A 
ATOM      9  C   LIG    1       -4.514 -12.195   1.169  0.00  0.00    +0.000 A 
ATOM     10  C   LIG    1       -4.460 -10.814   1.175  0.00  0.00    +0.080 A 
BRANCH   8  11
ATOM     11  N   LIG    1       -4.609 -14.283  -0.045  0.00  0.00    -0.410 N 
ATOM     12  C   LIG    1       -4.657 -15.090  -1.152  0.00  0.00    +0.130 A 
ATOM     13  C   LIG    1       -4.698 -16.360  -0.708  0.00  0.00    +0.160 A 
ATOM     14  N   LIG    1       -4.684 -16.335   0.633  0.00  0.00    -0.480 NA
ATOM     15  C   LIG    1       -4.631 -15.097   1.042  0.00  0.00    +0.400 A 
ENDBRANCH   8  11
ENDBRANCH   4   5
ENDBRANCH   3   4
ENDBRANCH   2   3
BRANCH   2  16
ATOM     16  C   LIG    1       -1.356  -6.337  -0.024  0.00  0.00    +0.110 C 
BRANCH  16  17
ATOM     17  C   LIG    1       -1.377  -4.808  -0.014  0.00  0.00    +0.050 C 
BRANCH  17  18
ATOM     18  C   LIG    1        0.059  -4.278  -0.024  0.00  0.00    +0.080 C 
BRANCH  18  19
ATOM     19  C   LIG    1        0.039  -2.772  -0.014  0.00  0.00    -0.060 A 
ATOM     20  C   LIG    1        0.018  -2.074  -1.207  0.00  0.00    +0.030 A 
ATOM     21  C   LIG    1       -0.006  -0.692  -1.201  0.00  0.00    +0.030 A 
ATOM     22  C   LIG    1        0.002  -0.004   0.002  0.00  0.00    +0.070 A 
ATOM     23  C   LIG    1        0.023  -0.707   1.201  0.00  0.00    +0.080 A 
ATOM     24  F   LIG    1        0.025  -0.040   2.376  0.00  0.00    -0.130 F 
ATOM     25  C   LIG    1        0.041  -2.089   1.189  0.00  0.00    +0.000 A 
BRANCH  22  26
ATOM     26  O   LIG    1       -0.016   1.355   0.009  0.00  0.00    -0.490 OA
ATOM     27  H   LIG    1        0.862   1.761   0.003  0.00  0.00    +0.390 HD
ENDBRANCH  22  26
ENDBRANCH  18  19
ENDBRANCH  17  18
ENDBRANCH  16  17
ENDBRANCH   2  16
TORSDOF 9
