REMARK  Name = ZINCpk00001AZiXU.0
REMARK                            x       y       z     vdW  Elec       q    Type
REMARK                         _______ _______ _______ _____ _____    ______ ____
ROOT
ATOM      1  C   LIG    1        1.259   1.924  -0.017  0.00  0.00    +0.060 C 
ATOM      2  C   LIG    1        1.402   2.737  -1.341  0.00  0.00    +0.060 C 
ATOM      3  C   LIG    1        2.787   2.331  -1.942  0.00  0.00    +0.060 C 
ATOM      4  C   LIG    1        3.548   1.900  -0.704  0.00  0.00    -0.020 C 
ATOM      5  C   LIG    1        4.666   0.877  -0.727  0.00  0.00    +0.280 C 
ATOM      6  N   LIG    1        4.592   0.286   0.646  0.00  0.00    -0.620 N 
ATOM      7  C   LIG    1        3.193   0.454   1.142  0.00  0.00    +0.290 C 
ATOM      8  C   LIG    1        5.607  -0.294   1.316  0.00  0.00    +0.580 C 
ATOM      9  O   LIG    1        5.453  -0.643   2.470  0.00  0.00    -0.530 OA
ATOM     10  C   LIG    1        2.439   1.003  -0.029  0.00  0.00    -0.030 C 
ENDROOT
BRANCH   8  11
ATOM     11  C   LIG    1        6.907  -0.505   0.649  0.00  0.00    -0.110 A 
ATOM     12  C   LIG    1        6.968  -0.602  -0.738  0.00  0.00    +0.090 A 
ATOM     13  C   LIG    1        8.200  -0.796  -1.367  0.00  0.00    -0.190 A 
ATOM     14  C   LIG    1        9.369  -0.902  -0.594  0.00  0.00    +0.160 A 
ATOM     15  C   LIG    1        9.294  -0.809   0.795  0.00  0.00    +0.090 A 
ATOM     16  C   LIG    1        8.076  -0.612   1.412  0.00  0.00    +0.040 A 
BRANCH  15  17
ATOM     17  O   LIG    1       10.425  -0.913   1.543  0.00  0.00    -0.300 OA
ATOM     18  C   LIG    1       10.277  -0.809   2.961  0.00  0.00    +0.250 C 
ENDBRANCH  15  17
BRANCH  14  19
ATOM     19  O   LIG    1       10.567  -1.095  -1.198  0.00  0.00    -0.480 OA
ATOM     20  H   LIG    1       10.800  -2.026  -1.321  0.00  0.00    +0.400 HD
ENDBRANCH  14  19
BRANCH  13  21
ATOM     21  C   LIG    1        8.274  -0.893  -2.830  0.00  0.00    +0.510 C 
ATOM     22  O   LIG    1        7.263  -0.801  -3.495  0.00  0.00    -0.450 OA
ENDBRANCH  13  21
ENDBRANCH   8  11
BRANCH   1  23
ATOM     23  C   LIG    1       -0.026   1.137  -0.017  0.00  0.00    +0.460 C 
ATOM     24  O   LIG    1        0.005  -0.070  -0.025  0.00  0.00    -0.500 OA
BRANCH  23  26
ATOM     25  C   LIG    1       -2.402   0.956  -0.018  0.00  0.00    +0.250 C 
ATOM     26  O   LIG    1       -1.205   1.778  -0.012  0.00  0.00    -0.360 OA
ENDBRANCH  23  26
ENDBRANCH   1  23
TORSDOF 6
