REMARK  Name = ZINCkj000005iTid.2
REMARK                            x       y       z     vdW  Elec       q    Type
REMARK                         _______ _______ _______ _____ _____    ______ ____
ROOT
ATOM      1  N   LIG    1       -2.231   1.533   0.806  0.00  0.00    -0.390 N 
ATOM      2  C   LIG    1       -2.291   1.554  -0.667  0.00  0.00    +0.260 C 
ATOM      3  C   LIG    1       -0.838   1.637  -1.184  0.00  0.00    +0.090 C 
ATOM      4  C   LIG    1       -0.013   1.086   0.008  0.00  0.00    +0.070 C 
ATOM      5  C   LIG    1       -0.814   1.623   1.220  0.00  0.00    +0.270 C 
ATOM      6  H   LIG    1       -2.631   0.673   1.150  0.00  0.00    +0.430 HD
ENDROOT
BRANCH   4   7
ATOM      7  C   LIG    1        1.388   1.642  -0.002  0.00  0.00    -0.170 A 
ATOM      8  C   LIG    1        1.589   3.011  -0.017  0.00  0.00    +0.130 A 
ATOM      9  C   LIG    1        2.877   3.521  -0.023  0.00  0.00    +0.000 A 
ATOM     10  C   LIG    1        3.960   2.663  -0.023  0.00  0.00    +0.110 A 
ATOM     11  C   LIG    1        3.760   1.296  -0.013  0.00  0.00    +0.000 A 
ATOM     12  F   LIG    1        0.530   3.850  -0.023  0.00  0.00    -0.130 F 
ATOM     13  C   LIG    1        2.474   0.784  -0.003  0.00  0.00    +0.150 A 
ATOM     14  F   LIG    1        2.279  -0.553   0.006  0.00  0.00    -0.120 F 
ENDBRANCH   4   7
BRANCH   1  15
ATOM     15  C   LIG    1       -2.977   2.678   1.345  0.00  0.00    +0.260 C 
BRANCH  15  16
ATOM     16  C   LIG    1       -4.463   2.517   1.020  0.00  0.00    +0.280 C 
BRANCH  16  17
ATOM     17  N   LIG    1       -5.207   3.658   1.557  0.00  0.00    -1.120 NA
ATOM     18  H   LIG    1       -4.793   4.243   2.210  0.00  0.00    +0.430 HD
BRANCH  17  20
ATOM     19  C   LIG    1       -7.703   2.519   1.641  0.00  0.00    -0.270 C 
ATOM     20  S   LIG    1       -6.757   3.949   1.050  0.00  0.00    +2.610 S 
ATOM     21  O   LIG    1       -6.669   3.937  -0.368  0.00  0.00    -0.950 OA
ATOM     22  O   LIG    1       -7.140   5.125   1.750  0.00  0.00    -0.940 OA
ENDBRANCH  17  20
ENDBRANCH  16  17
ENDBRANCH  15  16
ENDBRANCH   1  15
TORSDOF 5
