REMARK  Name = ZINCkj000005iTid.1
REMARK                            x       y       z     vdW  Elec       q    Type
REMARK                         _______ _______ _______ _____ _____    ______ ____
ROOT
ATOM      1  N   LIG    1       -0.749   1.586  -1.173  0.00  0.00    -0.390 N 
ATOM      2  C   LIG    1       -1.460   2.808  -0.719  0.00  0.00    +0.270 C 
ATOM      3  C   LIG    1       -1.938   2.432   0.707  0.00  0.00    +0.080 C 
ATOM      4  C   LIG    1       -0.756   1.593   1.258  0.00  0.00    +0.070 C 
ATOM      5  C   LIG    1       -0.013   1.086   0.008  0.00  0.00    +0.270 C 
ATOM      6  H   LIG    1       -1.413   0.894  -1.488  0.00  0.00    +0.430 HD
ENDROOT
BRANCH   4   7
ATOM      7  C   LIG    1       -1.270   0.432   2.068  0.00  0.00    -0.180 A 
ATOM      8  C   LIG    1       -2.167  -0.461   1.507  0.00  0.00    +0.120 A 
ATOM      9  C   LIG    1       -2.634  -1.531   2.251  0.00  0.00    +0.000 A 
ATOM     10  C   LIG    1       -2.215  -1.702   3.557  0.00  0.00    +0.100 A 
ATOM     11  C   LIG    1       -1.324  -0.807   4.120  0.00  0.00    +0.000 A 
ATOM     12  F   LIG    1       -2.582  -0.291   0.233  0.00  0.00    -0.140 F 
ATOM     13  C   LIG    1       -0.851   0.260   3.376  0.00  0.00    +0.150 A 
ATOM     14  F   LIG    1        0.020   1.134   3.927  0.00  0.00    -0.120 F 
ENDBRANCH   4   7
BRANCH   1  15
ATOM     15  C   LIG    1        0.190   1.917  -2.253  0.00  0.00    +0.270 C 
BRANCH  15  16
ATOM     16  C   LIG    1       -0.593   2.313  -3.506  0.00  0.00    +0.280 C 
BRANCH  16  17
ATOM     17  N   LIG    1        0.344   2.643  -4.583  0.00  0.00    -1.120 NA
ATOM     18  H   LIG    1        1.279   2.802  -4.381  0.00  0.00    +0.430 HD
BRANCH  17  20
ATOM     19  C   LIG    1       -1.335   4.156  -6.140  0.00  0.00    -0.270 C 
ATOM     20  S   LIG    1       -0.194   2.746  -6.146  0.00  0.00    +2.610 S 
ATOM     21  O   LIG    1       -0.903   1.532  -6.353  0.00  0.00    -0.950 OA
ATOM     22  O   LIG    1        0.972   3.051  -6.899  0.00  0.00    -0.940 OA
ENDBRANCH  17  20
ENDBRANCH  16  17
ENDBRANCH  15  16
ENDBRANCH   1  15
TORSDOF 5
