REMARK  Name = ZINCqH0000050Hme.0
REMARK                            x       y       z     vdW  Elec       q    Type
REMARK                         _______ _______ _______ _____ _____    ______ ____
ROOT
ATOM      1  C   LIG    1       -2.568   5.055   1.492  0.00  0.00    +0.260 C 
ATOM      2  C   LIG    1       -1.343   5.968   1.408  0.00  0.00    +0.020 C 
ATOM      3  C   LIG    1       -0.071   5.116   1.373  0.00  0.00    +0.030 C 
ATOM      4  C   LIG    1       -0.095   4.222   0.135  0.00  0.00    +0.290 C 
ATOM      5  N   LIG    1       -1.342   3.445   0.129  0.00  0.00    -0.590 N 
ATOM      6  C   LIG    1       -1.314   2.102   0.020  0.00  0.00    +0.580 C 
ATOM      7  O   LIG    1       -2.353   1.471   0.016  0.00  0.00    -0.530 OA
ATOM      8  C   LIG    1       -2.620   4.160   0.250  0.00  0.00    +0.280 C 
ENDROOT
BRANCH   1  12
ATOM      9  C   LIG    1       -6.537   7.811   0.163  0.00  0.00    +0.110 C 
ATOM     10  C   LIG    1       -5.513   7.073   0.985  0.00  0.00    -0.240 A 
ATOM     11  C   LIG    1       -4.452   6.384   0.504  0.00  0.00    +0.220 A 
ATOM     12  N   LIG    1       -3.783   5.872   1.558  0.00  0.00    -0.370 N 
ATOM     13  N   LIG    1       -4.457   6.253   2.724  0.00  0.00    -0.290 NA
ATOM     14  C   LIG    1       -5.491   6.978   2.380  0.00  0.00    +0.230 A 
ENDBRANCH   1  12
BRANCH   6  15
ATOM     15  C   LIG    1       -0.017   1.395  -0.096  0.00  0.00    +0.090 A 
ATOM     16  C   LIG    1        0.066   0.050   0.245  0.00  0.00    +0.050 A 
ATOM     17  C   LIG    1        1.296  -0.604   0.125  0.00  0.00    +0.000 A 
ATOM     18  C   LIG    1        2.392   0.130  -0.336  0.00  0.00    +0.010 A 
ATOM     19  C   LIG    1        2.224   1.466  -0.655  0.00  0.00    +0.270 A 
ATOM     20  N   LIG    1        1.053   2.051  -0.530  0.00  0.00    -0.450 NA
BRANCH  17  21
ATOM     21  C   LIG    1        1.434  -2.038   0.477  0.00  0.00    -0.060 A 
ATOM     22  C   LIG    1        0.331  -2.753   0.942  0.00  0.00    +0.030 A 
ATOM     23  C   LIG    1        0.464  -4.089   1.263  0.00  0.00    +0.010 A 
ATOM     24  C   LIG    1        1.691  -4.715   1.136  0.00  0.00    +0.020 A 
ATOM     25  C   LIG    1        2.790  -4.009   0.681  0.00  0.00    +0.010 A 
ATOM     26  C   LIG    1        2.667  -2.674   0.351  0.00  0.00    +0.030 A 
ENDBRANCH  17  21
ENDBRANCH   6  15
TORSDOF 3
