REMARK  Name = ZINCrg00001JduQP.0
REMARK                            x       y       z     vdW  Elec       q    Type
REMARK                         _______ _______ _______ _____ _____    ______ ____
ROOT
ATOM      1  C   LIG    1       -7.214   3.010   5.034  0.00  0.00    +0.060 C 
ATOM      2  C   LIG    1       -7.074   1.490   5.138  0.00  0.00    +0.180 C 
ENDROOT
BRANCH   2   3
ATOM      3  N   LIG    1       -8.349   0.911   5.584  0.00  0.00    -0.510 NA
ATOM      4  C   LIG    1       -9.375   1.017   4.531  0.00  0.00    +0.190 C 
ATOM      5  C   LIG    1       -9.885  -0.411   4.245  0.00  0.00    +0.010 C 
ATOM      6  C   LIG    1       -9.530  -1.177   5.546  0.00  0.00    +0.160 C 
ATOM      7  C   LIG    1       -8.187  -0.514   5.942  0.00  0.00    +0.200 C 
BRANCH   6   8
ATOM      8  O   LIG    1       -9.357  -2.571   5.289  0.00  0.00    -0.290 OA
BRANCH   8   9
ATOM      9  C   LIG    1      -10.476  -3.343   5.294  0.00  0.00    +0.110 A 
ATOM     10  C   LIG    1      -11.724  -2.756   5.432  0.00  0.00    -0.040 A 
ATOM     11  C   LIG    1      -12.861  -3.542   5.437  0.00  0.00    +0.040 A 
ATOM     12  C   LIG    1      -12.755  -4.914   5.305  0.00  0.00    -0.010 A 
ATOM     13  C   LIG    1      -11.512  -5.504   5.168  0.00  0.00    +0.020 A 
ATOM     14  C   LIG    1      -10.372  -4.722   5.156  0.00  0.00    +0.060 A 
ATOM     15  F   LIG    1       -9.158  -5.298   5.016  0.00  0.00    -0.130 F 
ENDBRANCH   8   9
ENDBRANCH   6   8
ENDBRANCH   2   3
BRANCH   2  16
ATOM     16  C   LIG    1       -6.711   0.925   3.789  0.00  0.00    +0.510 C 
ATOM     17  N   LIG    1       -5.574   1.315   3.179  0.00  0.00    -1.120 NA
ATOM     18  O   LIG    1       -7.442   0.119   3.252  0.00  0.00    -0.610 OA
BRANCH  17  19
ATOM     19  S   LIG    1       -5.175   0.694   1.697  0.00  0.00    +2.550 S 
ATOM     20  O   LIG    1       -4.983  -0.693   1.938  0.00  0.00    -1.010 OA
ATOM     21  O   LIG    1       -6.208   1.152   0.835  0.00  0.00    -1.010 OA
BRANCH  19  22
ATOM     22  C   LIG    1       -3.599   1.491   1.282  0.00  0.00    -0.360 C 
BRANCH  22  23
ATOM     23  C   LIG    1       -3.120   0.994  -0.084  0.00  0.00    +0.050 C 
BRANCH  23  24
ATOM     24  C   LIG    1       -1.791   1.666  -0.434  0.00  0.00    +0.260 C 
BRANCH  24  25
ATOM     25  N   LIG    1       -1.331   1.188  -1.744  0.00  0.00    -0.390 N 
ATOM     26  C   LIG    1       -2.273   1.625  -2.783  0.00  0.00    +0.310 C 
ATOM     27  C   LIG    1        0.000   1.741  -2.027  0.00  0.00    +0.310 C 
ATOM     28  H   LIG    1       -1.282   0.180  -1.737  0.00  0.00    +0.430 HD
ENDBRANCH  24  25
ENDBRANCH  23  24
ENDBRANCH  22  23
ENDBRANCH  19  22
ENDBRANCH  17  19
ENDBRANCH   2  16
TORSDOF 9
