REMARK  Name = ZINCkj000005fbuq.1
REMARK                            x       y       z     vdW  Elec       q    Type
REMARK                         _______ _______ _______ _____ _____    ______ ____
ROOT
ATOM      1  N   LIG    1        0.836   1.213   4.939  0.00  0.00    -0.530 NA
ATOM      2  C   LIG    1       -0.245   2.172   4.671  0.00  0.00    +0.190 C 
ATOM      3  C   LIG    1       -1.198   1.583   3.625  0.00  0.00    +0.310 C 
ATOM      4  N   LIG    1       -0.411   1.188   2.447  0.00  0.00    -0.590 N 
ATOM      5  C   LIG    1        0.767   0.332   2.653  0.00  0.00    +0.290 C 
ATOM      6  C   LIG    1       -0.764   1.594   1.212  0.00  0.00    +0.510 C 
ATOM      7  O   LIG    1       -1.685   2.370   1.068  0.00  0.00    -0.520 OA
ATOM      8  C   LIG    1        1.646   0.974   3.737  0.00  0.00    +0.180 C 
ENDROOT
BRANCH   6   9
ATOM      9  C   LIG    1       -0.015   1.083   0.008  0.00  0.00    +0.160 C 
ATOM     10  C   LIG    1        1.242   1.942  -0.249  0.00  0.00    +0.080 C 
ATOM     11  C   LIG    1        1.356   2.037  -1.784  0.00  0.00    +0.080 C 
ATOM     12  C   LIG    1        0.159   1.227  -2.326  0.00  0.00    +0.280 C 
ATOM     13  N   LIG    1       -0.834   1.242  -1.221  0.00  0.00    -0.380 N 
ATOM     14  C   LIG    1       -1.774   0.122  -1.361  0.00  0.00    +0.330 C 
ATOM     15  H   LIG    1       -1.330   2.121  -1.204  0.00  0.00    +0.440 HD
ENDBRANCH   6   9
BRANCH   1  16
ATOM     16  C   LIG    1        1.674   1.663   6.059  0.00  0.00    +0.210 C 
BRANCH  16  17
ATOM     17  C   LIG    1        2.624   0.537   6.469  0.00  0.00    +0.080 C 
BRANCH  17  18
ATOM     18  S   LIG    1        3.659   1.093   7.852  0.00  0.00    -0.250 S 
BRANCH  18  20
ATOM     19  C   LIG    1        5.729  -0.001   9.265  0.00  0.00    +0.070 C 
ATOM     20  C   LIG    1        4.700  -0.354   8.190  0.00  0.00    +0.030 C 
ATOM     21  C   LIG    1        3.824  -1.509   8.681  0.00  0.00    +0.040 C 
ENDBRANCH  18  20
ENDBRANCH  17  18
ENDBRANCH  16  17
ENDBRANCH   1  16
TORSDOF 5
