REMARK  Name = ZINCkj000005fbuq.0
REMARK                            x       y       z     vdW  Elec       q    Type
REMARK                         _______ _______ _______ _____ _____    ______ ____
ROOT
ATOM      1  N   LIG    1        2.584  -1.356   4.277  0.00  0.00    -0.530 NA
ATOM      2  C   LIG    1        2.725   0.060   4.642  0.00  0.00    +0.190 C 
ATOM      3  C   LIG    1        1.336   0.700   4.740  0.00  0.00    +0.310 C 
ATOM      4  N   LIG    1        0.617   0.451   3.482  0.00  0.00    -0.590 N 
ATOM      5  C   LIG    1        0.546  -0.931   2.982  0.00  0.00    +0.290 C 
ATOM      6  C   LIG    1        0.034   1.461   2.807  0.00  0.00    +0.510 C 
ATOM      7  O   LIG    1        0.184   2.606   3.179  0.00  0.00    -0.510 OA
ATOM      8  C   LIG    1        1.971  -1.505   2.950  0.00  0.00    +0.180 C 
ENDROOT
BRANCH   6   9
ATOM      9  C   LIG    1       -0.805   1.169   1.590  0.00  0.00    +0.150 C 
ATOM     10  C   LIG    1       -0.120   1.741   0.330  0.00  0.00    +0.100 C 
ATOM     11  C   LIG    1       -1.311   2.280  -0.506  0.00  0.00    +0.080 C 
ATOM     12  C   LIG    1       -2.259   2.804   0.602  0.00  0.00    +0.270 C 
ATOM     13  N   LIG    1       -2.119   1.833   1.708  0.00  0.00    -0.380 N 
ATOM     14  C   LIG    1       -2.196   2.537   2.996  0.00  0.00    +0.320 C 
ATOM     15  H   LIG    1       -2.856   1.146   1.652  0.00  0.00    +0.430 HD
ENDBRANCH   6   9
BRANCH   1  16
ATOM     16  C   LIG    1        3.878  -2.048   4.340  0.00  0.00    +0.210 C 
BRANCH  16  17
ATOM     17  C   LIG    1        3.743  -3.440   3.720  0.00  0.00    +0.070 C 
BRANCH  17  18
ATOM     18  S   LIG    1        5.341  -4.294   3.798  0.00  0.00    -0.250 S 
BRANCH  18  20
ATOM     19  C   LIG    1        4.625  -5.689   1.557  0.00  0.00    +0.040 C 
ATOM     20  C   LIG    1        4.985  -5.898   3.029  0.00  0.00    +0.030 C 
ATOM     21  C   LIG    1        6.219  -6.797   3.130  0.00  0.00    +0.080 C 
ENDBRANCH  18  20
ENDBRANCH  17  18
ENDBRANCH  16  17
ENDBRANCH   1  16
TORSDOF 5
