REMARK  Name = ZINCpe00000MJMzr.0
REMARK                            x       y       z     vdW  Elec       q    Type
REMARK                         _______ _______ _______ _____ _____    ______ ____
ROOT
ATOM      1  C   LIG    1       -1.272  -4.378  -2.687  0.00  0.00    -0.020 C 
ATOM      2  C   LIG    1       -1.449  -5.714  -3.419  0.00  0.00    +0.040 C 
ATOM      3  C   LIG    1       -0.668  -6.790  -2.659  0.00  0.00    +0.070 C 
ATOM      4  C   LIG    1        0.725  -6.304  -2.374  0.00  0.00    +0.510 C 
ATOM      5  N   LIG    1        1.083  -5.021  -2.430  0.00  0.00    -0.600 N 
ATOM      6  C   LIG    1        2.463  -4.678  -2.080  0.00  0.00    +0.290 C 
ATOM      7  O   LIG    1        1.568  -7.123  -2.077  0.00  0.00    -0.550 OA
ATOM      8  C   LIG    1        0.187  -3.938  -2.817  0.00  0.00    +0.320 C 
ENDROOT
BRANCH   8   9
ATOM      9  C   LIG    1        0.430  -2.748  -1.925  0.00  0.00    -0.260 A 
ATOM     10  C   LIG    1        0.442  -1.452  -2.313  0.00  0.00    +0.260 A 
ATOM     11  N   LIG    1        0.697  -0.699  -1.223  0.00  0.00    -0.370 N 
ATOM     12  N   LIG    1        0.836  -1.560  -0.127  0.00  0.00    -0.290 NA
ATOM     13  C   LIG    1        0.803   0.762  -1.190  0.00  0.00    +0.360 C 
ATOM     14  C   LIG    1        0.676  -2.788  -0.549  0.00  0.00    +0.250 A 
ENDBRANCH   8   9
BRANCH   1  15
ATOM     15  C   LIG    1       -2.184  -3.324  -3.316  0.00  0.00    +0.290 C 
BRANCH  15  17
ATOM     16  C   LIG    1       -4.572  -2.900  -3.553  0.00  0.00    +0.570 C 
ATOM     17  N   LIG    1       -3.584  -3.689  -3.085  0.00  0.00    -0.720 N 
ATOM     18  H   LIG    1       -3.800  -4.498  -2.595  0.00  0.00    +0.400 HD
ATOM     19  O   LIG    1       -4.302  -1.887  -4.166  0.00  0.00    -0.510 OA
BRANCH  16  26
ATOM     20  C   LIG    1       -6.724  -1.085  -4.333  0.00  0.00    +0.160 C 
ATOM     21  C   LIG    1       -7.028  -2.412  -3.687  0.00  0.00    +0.130 A 
ATOM     22  N   LIG    1       -8.278  -2.770  -3.465  0.00  0.00    -0.240 NA
ATOM     23  N   LIG    1       -8.584  -3.889  -2.919  0.00  0.00    -0.220 NA
ATOM     24  C   LIG    1       -7.675  -4.765  -2.537  0.00  0.00    +0.210 A 
ATOM     25  C   LIG    1       -6.330  -4.492  -2.728  0.00  0.00    +0.070 A 
ATOM     26  C   LIG    1       -5.988  -3.269  -3.319  0.00  0.00    -0.140 A 
ENDBRANCH  16  26
ENDBRANCH  15  17
ENDBRANCH   1  15
TORSDOF 4
