REMARK  Name = ZINCnE000001QD2Y.1
REMARK                            x       y       z     vdW  Elec       q    Type
REMARK                         _______ _______ _______ _____ _____    ______ ____
ROOT
ATOM      1  C   LIG    1        0.002  -0.004   0.002  0.00  0.00    +0.190 A 
ATOM      2  N   LIG    1        1.077  -0.757  -0.018  0.00  0.00    -0.490 NA
ATOM      3  C   LIG    1        0.713  -2.051  -0.016  0.00  0.00    +0.150 A 
ATOM      4  C   LIG    1       -0.629  -2.112  -0.003  0.00  0.00    +0.110 A 
ATOM      5  N   LIG    1       -1.091  -0.815   0.008  0.00  0.00    -0.440 N 
ENDROOT
BRANCH   1   6
ATOM      6  S   LIG    1       -0.022   1.758   0.012  0.00  0.00    +0.030 S 
BRANCH   6   7
ATOM      7  C   LIG    1        1.756   2.096  -0.004  0.00  0.00    +0.130 C 
BRANCH   7   9
ATOM      8  N   LIG    1        3.240   4.076  -0.007  0.00  0.00    -0.650 NA
ATOM      9  C   LIG    1        1.984   3.586   0.002  0.00  0.00    +0.470 C 
ATOM     10  O   LIG    1        1.037   4.344   0.015  0.00  0.00    -0.600 OA
BRANCH   8  15
ATOM     11  C   LIG    1        5.905   8.143  -0.011  0.00  0.00    +0.110 C 
ATOM     12  C   LIG    1        4.628   7.343  -0.003  0.00  0.00    +0.100 A 
ATOM     13  C   LIG    1        3.421   7.912   0.012  0.00  0.00    -0.240 A 
ATOM     14  S   LIG    1        2.212   6.630   0.009  0.00  0.00    +0.030 S 
ATOM     15  C   LIG    1        3.450   5.450  -0.002  0.00  0.00    +0.350 A 
ATOM     16  N   LIG    1        4.612   6.023  -0.010  0.00  0.00    -0.560 NA
ENDBRANCH   8  15
ENDBRANCH   7   9
ENDBRANCH   6   7
ENDBRANCH   1   6
BRANCH   5  17
ATOM     17  C   LIG    1       -2.492  -0.389   0.023  0.00  0.00    +0.350 C 
BRANCH  17  18
ATOM     18  C   LIG    1       -2.950  -0.117  -1.387  0.00  0.00    -0.120 A 
ATOM     19  C   LIG    1       -2.817   1.149  -1.924  0.00  0.00    +0.040 A 
ATOM     20  C   LIG    1       -3.233   1.397  -3.219  0.00  0.00    +0.010 A 
ATOM     21  C   LIG    1       -3.791   0.382  -3.973  0.00  0.00    +0.010 A 
ATOM     22  C   LIG    1       -3.928  -0.884  -3.433  0.00  0.00    -0.010 A 
ATOM     23  C   LIG    1       -3.508  -1.133  -2.140  0.00  0.00    +0.020 A 
ENDBRANCH  17  18
ENDBRANCH   5  17
TORSDOF 6
