REMARK  Name = ZINCvU000000060L.0
REMARK                            x       y       z     vdW  Elec       q    Type
REMARK                         _______ _______ _______ _____ _____    ______ ____
ROOT
ATOM      1  C   LIG    1        0.721   9.509  -1.443  0.00  0.00    +0.210 C 
ENDROOT
BRANCH   1   4
ATOM      2  C   LIG    1        0.193   6.047  -0.446  0.00  0.00    +0.130 A 
ATOM      3  N   LIG    1        0.145   7.348  -0.396  0.00  0.00    -0.450 NA
ATOM      4  C   LIG    1        0.705   8.003  -1.388  0.00  0.00    +0.070 A 
ATOM      5  C   LIG    1        1.253   7.252  -2.347  0.00  0.00    -0.030 A 
ATOM      6  S   LIG    1        1.028   5.558  -1.918  0.00  0.00    +0.110 S 
BRANCH   2  10
ATOM      7  C   LIG    1       -1.428   3.410   2.470  0.00  0.00    +0.120 A 
ATOM      8  C   LIG    1       -1.536   4.783   2.639  0.00  0.00    -0.030 A 
ATOM      9  C   LIG    1       -1.012   5.641   1.695  0.00  0.00    +0.080 A 
ATOM     10  C   LIG    1       -0.370   5.129   0.567  0.00  0.00    -0.040 A 
ATOM     11  C   LIG    1       -0.255   3.747   0.399  0.00  0.00    -0.010 A 
ATOM     12  C   LIG    1       -0.787   2.893   1.346  0.00  0.00    +0.100 A 
BRANCH   7  14
ATOM     13  C   LIG    1       -2.589   3.167   4.531  0.00  0.00    +0.240 C 
ATOM     14  O   LIG    1       -1.946   2.569   3.403  0.00  0.00    -0.300 OA
ENDBRANCH   7  14
BRANCH  12  15
ATOM     15  O   LIG    1       -0.682   1.547   1.184  0.00  0.00    -0.300 OA
ATOM     16  C   LIG    1       -0.013   1.086   0.008  0.00  0.00    +0.250 C 
ENDBRANCH  12  15
ENDBRANCH   2  10
ENDBRANCH   1   4
BRANCH   1  17
ATOM     17  S   LIG    1       -0.763  10.098  -2.305  0.00  0.00    +0.030 S 
BRANCH  17  18
ATOM     18  C   LIG    1       -0.571  11.850  -2.272  0.00  0.00    +0.140 A 
ATOM     19  N   LIG    1        0.429  12.514  -1.736  0.00  0.00    -0.240 NA
ATOM     20  N   LIG    1        0.256  13.780  -1.888  0.00  0.00    -0.240 NA
ATOM     21  C   LIG    1       -0.874  14.000  -2.534  0.00  0.00    +0.210 A 
ATOM     22  C   LIG    1       -1.538  15.169  -2.959  0.00  0.00    +0.010 A 
ATOM     23  C   LIG    1       -2.721  15.059  -3.622  0.00  0.00    +0.120 A 
ATOM     24  C   LIG    1       -3.265  13.786  -3.874  0.00  0.00    -0.190 A 
ATOM     25  C   LIG    1       -2.623  12.674  -3.464  0.00  0.00    +0.340 A 
ATOM     26 CL   LIG    1       -0.853  16.733  -2.640  0.00  0.00    +0.010 Cl
ATOM     27  N   LIG    1       -1.430  12.767  -2.802  0.00  0.00    -0.380 N 
BRANCH  24  28
ATOM     28  C   LIG    1       -4.576  13.665  -4.608  0.00  0.00    +0.530 C 
ATOM     29  F   LIG    1       -4.646  12.416  -5.235  0.00  0.00    -0.170 F 
ATOM     30  F   LIG    1       -4.666  14.675  -5.572  0.00  0.00    -0.160 F 
ATOM     31  F   LIG    1       -5.632  13.790  -3.700  0.00  0.00    -0.160 F 
ENDBRANCH  24  28
ENDBRANCH  17  18
ENDBRANCH   1  17
TORSDOF 7
