REMARK  Name = ZINCpe000027pHu7.0
REMARK                            x       y       z     vdW  Elec       q    Type
REMARK                         _______ _______ _______ _____ _____    ______ ____
ROOT
ATOM      1  N   LIG    1        2.459   1.349   0.816  0.00  0.00    -0.600 N 
ATOM      2  C   LIG    1        1.491   1.676  -0.063  0.00  0.00    +0.490 C 
ATOM      3  O   LIG    1        1.785   2.141  -1.143  0.00  0.00    -0.520 OA
ENDROOT
BRANCH   1   4
ATOM      4  C   LIG    1        3.857   1.669   0.519  0.00  0.00    +0.380 C 
BRANCH   4   9
ATOM      5  C   LIG    1        4.361   6.688   0.969  0.00  0.00    +0.170 C 
ATOM      6  C   LIG    1        4.403   5.208   1.253  0.00  0.00    +0.210 A 
ATOM      7  N   LIG    1        4.868   4.655   2.340  0.00  0.00    -0.490 NA
ATOM      8  C   LIG    1        4.745   3.323   2.245  0.00  0.00    +0.160 A 
ATOM      9  C   LIG    1        4.183   3.039   1.055  0.00  0.00    -0.060 A 
ATOM     10  N   LIG    1        3.971   4.235   0.423  0.00  0.00    -0.450 N 
ATOM     11  C   LIG    1        3.382   4.423  -0.906  0.00  0.00    +0.320 C 
ENDBRANCH   4   9
ENDBRANCH   1   4
BRANCH   2  12
ATOM     12  C   LIG    1        0.043   1.464   0.297  0.00  0.00    +0.220 C 
BRANCH  12  13
ATOM     13  O   LIG    1       -0.774   1.720  -0.847  0.00  0.00    -0.510 OA
ATOM     14  H   LIG    1       -0.695   2.619  -1.193  0.00  0.00    +0.380 HD
ENDBRANCH  12  13
BRANCH  12  15
ATOM     15  C   LIG    1       -0.347   2.419   1.427  0.00  0.00    +0.320 C 
BRANCH  15  16
ATOM     16  N   LIG    1       -1.733   2.162   1.827  0.00  0.00    -0.380 N 
ATOM     17  C   LIG    1       -2.175   1.879   3.064  0.00  0.00    +0.470 A 
ATOM     18  N   LIG    1       -3.472   1.718   3.005  0.00  0.00    -0.540 NA
ATOM     19  C   LIG    1       -3.892   1.888   1.752  0.00  0.00    +0.420 A 
ATOM     20  N   LIG    1       -2.864   2.167   0.995  0.00  0.00    -0.290 NA
ENDBRANCH  15  16
ENDBRANCH  12  15
ENDBRANCH   2  12
BRANCH   1  21
ATOM     21  C   LIG    1        2.112   0.673   2.069  0.00  0.00    +0.280 C 
BRANCH  21  22
ATOM     22  C   LIG    1        2.293  -0.837   1.901  0.00  0.00    -0.100 C 
ATOM     23  C   LIG    1        1.119  -1.521   1.180  0.00  0.00    +0.010 C 
ATOM     24  C   LIG    1        1.277  -2.675   2.185  0.00  0.00    +0.010 C 
ATOM     25  C   LIG    1        3.664  -1.212   1.335  0.00  0.00    +0.040 C 
ATOM     26  C   LIG    1        1.897  -1.647   3.147  0.00  0.00    +0.020 C 
ENDBRANCH  21  22
ENDBRANCH   1  21
TORSDOF 8
