REMARK  Name = ZINCrH000004qk0f.0
REMARK                            x       y       z     vdW  Elec       q    Type
REMARK                         _______ _______ _______ _____ _____    ______ ____
ROOT
ATOM      1  N   LIG    1       -0.093   4.072   0.043  0.00  0.00    -0.510 NA
ATOM      2  C   LIG    1       -0.891   3.421   1.090  0.00  0.00    +0.190 C 
ATOM      3  C   LIG    1       -2.341   3.901   1.002  0.00  0.00    +0.040 C 
ATOM      4  C   LIG    1       -2.381   5.422   1.176  0.00  0.00    +0.020 C 
ATOM      5  C   LIG    1       -1.504   6.074   0.103  0.00  0.00    +0.050 C 
ATOM      6  C   LIG    1       -0.078   5.530   0.217  0.00  0.00    +0.240 C 
ENDROOT
BRANCH   6   7
ATOM      7  C   LIG    1        0.784   6.154  -0.850  0.00  0.00    +0.090 A 
ATOM      8  N   LIG    1        1.649   7.071  -0.631  0.00  0.00    -0.460 NA
ATOM      9  C   LIG    1        2.350   7.537  -1.682  0.00  0.00    +0.080 A 
ATOM     10  C   LIG    1        3.351   8.528  -1.728  0.00  0.00    +0.070 A 
ATOM     11  C   LIG    1        3.944   8.856  -2.910  0.00  0.00    +0.030 A 
ATOM     12  C   LIG    1        3.576   8.223  -4.088  0.00  0.00    +0.040 A 
ATOM     13  C   LIG    1        2.602   7.250  -4.074  0.00  0.00    +0.060 A 
ATOM     14  C   LIG    1        1.984   6.902  -2.874  0.00  0.00    -0.190 A 
ATOM     15  S   LIG    1        0.733   5.721  -2.500  0.00  0.00    +0.140 S 
ENDBRANCH   6   7
BRANCH   1  16
ATOM     16  C   LIG    1        1.272   3.532   0.008  0.00  0.00    +0.390 C 
BRANCH  16  23
ATOM     17  C   LIG    1        4.942   4.512   6.773  0.00  0.00    +0.160 C 
ATOM     18  C   LIG    1        3.966   4.520   5.624  0.00  0.00    +0.200 A 
ATOM     19  C   LIG    1        2.755   5.168   5.741  0.00  0.00    -0.120 A 
ATOM     20  C   LIG    1        1.869   5.161   4.662  0.00  0.00    +0.540 A 
ATOM     21  N   LIG    1        2.211   4.516   3.510  0.00  0.00    -0.370 N 
ATOM     22  N   LIG    1        1.459   4.406   2.346  0.00  0.00    -0.230 NA
ATOM     23  C   LIG    1        1.935   3.756   1.343  0.00  0.00    +0.080 A 
ATOM     24  S   LIG    1        3.530   3.178   1.854  0.00  0.00    +0.140 S 
ATOM     25  C   LIG    1        3.423   3.899   3.469  0.00  0.00    +0.310 A 
ATOM     26  O   LIG    1        0.792   5.730   4.750  0.00  0.00    -0.500 OA
ATOM     27  N   LIG    1        4.262   3.904   4.486  0.00  0.00    -0.490 NA
ENDBRANCH  16  23
ENDBRANCH   1  16
TORSDOF 3
