REMARK  Name = ZINCvU0000000DGv.0
REMARK                            x       y       z     vdW  Elec       q    Type
REMARK                         _______ _______ _______ _____ _____    ______ ____
ROOT
ATOM      1  C   LIG    1        1.149   3.595   0.010  0.00  0.00    +0.260 C 
ATOM      2  C   LIG    1        1.443   4.117   1.433  0.00  0.00    +0.050 C 
ATOM      3  C   LIG    1        2.327   5.364   1.170  0.00  0.00    +0.040 C 
ATOM      4  C   LIG    1        3.147   4.910  -0.064  0.00  0.00    +0.240 C 
ATOM      5  N   LIG    1        2.204   4.116  -0.872  0.00  0.00    -0.610 N 
ATOM      6  C   LIG    1        2.293   3.902  -2.200  0.00  0.00    +0.530 C 
ATOM      7  O   LIG    1        1.457   3.229  -2.763  0.00  0.00    -0.520 OA
ENDROOT
BRANCH   1  11
ATOM      8  C   LIG    1        1.218  -0.680  -0.013  0.00  0.00    +0.100 A 
ATOM      9  C   LIG    1        2.405   0.035  -0.021  0.00  0.00    -0.040 A 
ATOM     10  C   LIG    1        2.379   1.417  -0.013  0.00  0.00    +0.020 A 
ATOM     11  C   LIG    1        1.171   2.089   0.002  0.00  0.00    -0.080 A 
ATOM     12  C   LIG    1       -0.017   1.381   0.010  0.00  0.00    -0.030 A 
ATOM     13  C   LIG    1        0.002  -0.004   0.002  0.00  0.00    +0.100 A 
BRANCH   8  15
ATOM     14  C   LIG    1        2.526  -2.667  -0.037  0.00  0.00    +0.230 C 
ATOM     15  O   LIG    1        1.242  -2.040  -0.021  0.00  0.00    -0.310 OA
ENDBRANCH   8  15
BRANCH  13  16
ATOM     16  O   LIG    1       -1.165  -0.702   0.009  0.00  0.00    -0.310 OA
ATOM     17  C   LIG    1       -2.375   0.059   0.024  0.00  0.00    +0.240 C 
ENDBRANCH  13  16
ENDBRANCH   1  11
BRANCH   6  18
ATOM     18  C   LIG    1        3.433   4.500  -2.984  0.00  0.00    +0.070 C 
BRANCH  18  19
ATOM     19  C   LIG    1        3.300   4.108  -4.457  0.00  0.00    +0.210 C 
BRANCH  19  20
ATOM     20  C   LIG    1        4.440   4.705  -5.240  0.00  0.00    +0.200 A 
ATOM     21  N   LIG    1        5.594   4.137  -5.450  0.00  0.00    -0.470 NA
ATOM     22  C   LIG    1        6.356   4.959  -6.187  0.00  0.00    +0.180 A 
ATOM     23  C   LIG    1        5.631   6.081  -6.429  0.00  0.00    -0.010 A 
ATOM     24  O   LIG    1        4.432   5.909  -5.830  0.00  0.00    -0.190 OA
BRANCH  23  25
ATOM     25  C   LIG    1        6.069   7.265  -7.199  0.00  0.00    -0.010 A 
ATOM     26  C   LIG    1        5.206   8.349  -7.369  0.00  0.00    +0.050 A 
ATOM     27  C   LIG    1        5.623   9.452  -8.084  0.00  0.00    +0.030 A 
ATOM     28  C   LIG    1        6.890   9.482  -8.642  0.00  0.00    -0.030 A 
ATOM     29  C   LIG    1        7.748   8.407  -8.481  0.00  0.00    +0.040 A 
ATOM     30 CL   LIG    1        7.404  10.871  -9.547  0.00  0.00    -0.060 Cl
ATOM     31  C   LIG    1        7.345   7.300  -7.763  0.00  0.00    +0.060 A 
ENDBRANCH  23  25
ENDBRANCH  19  20
ENDBRANCH  18  19
ENDBRANCH   6  18
TORSDOF 7
