REMARK  Name = ZINCrH00000No4RG.0
REMARK                            x       y       z     vdW  Elec       q    Type
REMARK                         _______ _______ _______ _____ _____    ______ ____
ROOT
ATOM      1  N   LIG    1       -0.080   1.741  -0.850  0.00  0.00    -0.520 NA
ENDROOT
BRANCH   1   2
ATOM      2  C   LIG    1       -0.837   2.147  -2.042  0.00  0.00    +0.280 C 
BRANCH   2   7
ATOM      3  C   LIG    1       -5.540   3.314  -0.733  0.00  0.00    +0.330 C 
ATOM      4  N   LIG    1       -4.355   2.577  -1.182  0.00  0.00    -0.460 N 
ATOM      5  C   LIG    1       -4.310   1.277  -1.543  0.00  0.00    +0.380 A 
ATOM      6  N   LIG    1       -3.086   0.981  -1.886  0.00  0.00    -0.490 NA
ATOM      7  C   LIG    1       -2.313   2.068  -1.750  0.00  0.00    +0.000 A 
ATOM      8  C   LIG    1       -3.089   3.079  -1.314  0.00  0.00    +0.140 A 
ENDBRANCH   2   7
ENDBRANCH   1   2
BRANCH   1   9
ATOM      9  C   LIG    1        1.359   1.971  -1.036  0.00  0.00    +0.210 C 
BRANCH   9  10
ATOM     10  C   LIG    1        1.613   3.464  -1.249  0.00  0.00    +0.010 C 
ATOM     11  C   LIG    1        2.780   3.860  -2.156  0.00  0.00    -0.110 C 
ATOM     12  C   LIG    1        3.603   2.732  -2.781  0.00  0.00    +0.080 C 
ATOM     13  C   LIG    1        3.562   5.123  -1.790  0.00  0.00    +0.090 C 
ATOM     14  C   LIG    1        1.340   4.036  -2.641  0.00  0.00    +0.190 C 
ATOM     15  F   LIG    1        0.839   5.340  -2.717  0.00  0.00    -0.160 F 
ATOM     16  F   LIG    1        0.877   3.154  -3.623  0.00  0.00    -0.160 F 
ENDBRANCH   9  10
ENDBRANCH   1   9
BRANCH   1  17
ATOM     17  C   LIG    1       -0.349   0.338  -0.508  0.00  0.00    +0.280 C 
BRANCH  17  18
ATOM     18  C   LIG    1       -0.019   0.102   0.943  0.00  0.00    +0.100 A 
ATOM     19  C   LIG    1       -0.885   0.175   1.980  0.00  0.00    -0.100 A 
ATOM     20  C   LIG    1       -0.178  -0.114   3.152  0.00  0.00    +0.090 A 
ATOM     21  N   LIG    1        1.067  -0.351   2.830  0.00  0.00    -0.290 NA
ATOM     22  N   LIG    1        1.192  -0.226   1.440  0.00  0.00    -0.380 N 
ATOM     23  C   LIG    1        2.420  -0.415   0.664  0.00  0.00    +0.340 C 
BRANCH  20  24
ATOM     24  C   LIG    1       -0.752  -0.146   4.545  0.00  0.00    +0.010 C 
ATOM     25  C   LIG    1       -1.647   1.077   4.756  0.00  0.00    +0.040 C 
ATOM     26  C   LIG    1        0.386  -0.127   5.567  0.00  0.00    +0.040 C 
ATOM     27  C   LIG    1       -1.579  -1.420   4.726  0.00  0.00    +0.040 C 
ENDBRANCH  20  24
ENDBRANCH  17  18
ENDBRANCH   1  17
TORSDOF 7
