REMARK  Name = ZINCrg000000qN3N.0
REMARK                            x       y       z     vdW  Elec       q    Type
REMARK                         _______ _______ _______ _____ _____    ______ ____
ROOT
ATOM      1  C   LIG    1       -4.831   1.637  -0.790  0.00  0.00    +0.580 C 
ATOM      2  N   LIG    1       -3.558   1.413  -0.405  0.00  0.00    -0.610 N 
ATOM      3  C   LIG    1       -2.394   1.335  -1.300  0.00  0.00    +0.250 C 
ATOM      4  C   LIG    1       -1.152   1.094  -0.416  0.00  0.00    +0.050 C 
ATOM      5  C   LIG    1       -1.604   1.615   0.974  0.00  0.00    +0.060 C 
ATOM      6  C   LIG    1       -3.103   1.208   0.982  0.00  0.00    +0.220 C 
ATOM      7  O   LIG    1       -5.730   1.591   0.028  0.00  0.00    -0.490 OA
ENDROOT
BRANCH   6   8
ATOM      8  C   LIG    1       -3.881   2.089   1.925  0.00  0.00    +0.520 C 
ATOM      9  N   LIG    1       -4.088   1.696   3.197  0.00  0.00    -0.610 N 
ATOM     10  C   LIG    1       -3.473   0.466   3.718  0.00  0.00    +0.280 C 
ATOM     11  C   LIG    1       -2.753   0.806   5.033  0.00  0.00    +0.170 C 
ATOM     12  N   LIG    1       -3.698   1.461   5.947  0.00  0.00    -0.530 NA
ATOM     13  C   LIG    1       -4.169   2.740   5.399  0.00  0.00    +0.170 C 
ATOM     14  C   LIG    1       -4.942   2.483   4.101  0.00  0.00    +0.290 C 
ATOM     15  O   LIG    1       -4.320   3.151   1.539  0.00  0.00    -0.520 OA
BRANCH  12  16
ATOM     16  C   LIG    1       -3.103   1.646   7.277  0.00  0.00    +0.180 C 
BRANCH  16  17
ATOM     17  C   LIG    1       -4.207   1.940   8.294  0.00  0.00    +0.180 C 
BRANCH  17  18
ATOM     18  O   LIG    1       -5.047   0.792   8.430  0.00  0.00    -0.560 OA
ATOM     19  H   LIG    1       -5.771   0.907   9.061  0.00  0.00    +0.380 HD
ENDBRANCH  17  18
ENDBRANCH  16  17
ENDBRANCH  12  16
ENDBRANCH   6   8
BRANCH   1  26
ATOM     20  C   LIG    1       -6.425   2.327  -2.579  0.00  0.00    +0.190 A 
ATOM     21  C   LIG    1       -6.698   2.607  -3.909  0.00  0.00    -0.060 A 
ATOM     22  C   LIG    1       -5.701   2.500  -4.859  0.00  0.00    +0.100 A 
ATOM     23  C   LIG    1       -4.422   2.114  -4.491  0.00  0.00    -0.090 A 
ATOM     24  C   LIG    1       -4.131   1.838  -3.171  0.00  0.00    +0.090 A 
ATOM     25 CL   LIG    1       -3.178   1.985  -5.695  0.00  0.00    -0.060 Cl
ATOM     26  C   LIG    1       -5.133   1.936  -2.202  0.00  0.00    -0.150 A 
BRANCH  20  28
ATOM     27  C   LIG    1       -8.696   2.835  -2.104  0.00  0.00    +0.250 C 
ATOM     28  O   LIG    1       -7.404   2.432  -1.646  0.00  0.00    -0.280 OA
ENDBRANCH  20  28
ENDBRANCH   1  26
TORSDOF 6
