REMARK  Name = ZINCrg000000sQ34.0
REMARK                            x       y       z     vdW  Elec       q    Type
REMARK                         _______ _______ _______ _____ _____    ______ ____
ROOT
ATOM      1  C   LIG    1       -1.221   1.748   0.017  0.00  0.00    -0.120 A 
ATOM      2  C   LIG    1       -0.012   1.076   0.010  0.00  0.00    +0.060 A 
ATOM      3  C   LIG    1        1.178   1.782   0.002  0.00  0.00    +0.000 A 
ATOM      4  C   LIG    1        1.166   3.161   0.007  0.00  0.00    +0.050 A 
ATOM      5  C   LIG    1       -0.051   3.845   0.020  0.00  0.00    -0.140 A 
ATOM      6  C   LIG    1       -1.248   3.127   0.028  0.00  0.00    +0.100 A 
ENDROOT
BRANCH   5   7
ATOM      7  C   LIG    1       -0.072   5.323   0.026  0.00  0.00    +0.560 C 
ATOM      8  N   LIG    1        1.085   6.014   0.018  0.00  0.00    -0.720 N 
ATOM      9  H   LIG    1        1.932   5.541   0.009  0.00  0.00    +0.400 HD
ATOM     10  O   LIG    1       -1.133   5.916   0.037  0.00  0.00    -0.530 OA
BRANCH   8  11
ATOM     11  C   LIG    1        1.065   7.479   0.024  0.00  0.00    +0.280 C 
BRANCH  11  12
ATOM     12  C   LIG    1        2.500   8.009   0.014  0.00  0.00    +0.140 C 
ATOM     13  C   LIG    1        2.489   9.550   0.019  0.00  0.00    +0.010 C 
ATOM     14  C   LIG    1        3.280   9.930   1.295  0.00  0.00    +0.000 C 
ATOM     15  C   LIG    1        4.098   8.642   1.566  0.00  0.00    +0.210 C 
ATOM     16  O   LIG    1        3.187   7.582   1.202  0.00  0.00    -0.370 OA
ENDBRANCH  11  12
ENDBRANCH   8  11
ENDBRANCH   5   7
BRANCH   1  17
ATOM     17  C   LIG    1       -2.513   0.971   0.020  0.00  0.00    +0.340 C 
BRANCH  17  24
ATOM     18  C   LIG    1       -3.241  -1.027   4.939  0.00  0.00    +0.290 C 
ATOM     19  C   LIG    1       -3.577   0.172   4.052  0.00  0.00    +0.280 C 
ATOM     20  N   LIG    1       -4.387  -0.296   2.916  0.00  0.00    -0.630 N 
ATOM     21  C   LIG    1       -5.561  -1.134   3.204  0.00  0.00    +0.280 C 
ATOM     22  C   LIG    1       -5.126  -2.275   4.131  0.00  0.00    +0.240 C 
ATOM     23  C   LIG    1       -4.060   0.030   1.650  0.00  0.00    +0.710 C 
ATOM     24  N   LIG    1       -2.925   0.714   1.402  0.00  0.00    -0.740 N 
ATOM     25  H   LIG    1       -2.382   1.036   2.138  0.00  0.00    +0.400 HD
ATOM     26  O   LIG    1       -4.788  -0.294   0.732  0.00  0.00    -0.580 OA
ATOM     27  O   LIG    1       -4.445  -1.727   5.263  0.00  0.00    -0.370 OA
BRANCH  18  29
ATOM     28  N   LIG    1       -2.097  -0.201   7.132  0.00  0.00    -0.390 NA
ATOM     29  C   LIG    1       -2.596  -0.561   6.177  0.00  0.00    +0.210 C 
ENDBRANCH  18  29
ENDBRANCH  17  24
ENDBRANCH   1  17
TORSDOF 6
