REMARK  Name = ZINCpk00000kWE5t.0
REMARK                            x       y       z     vdW  Elec       q    Type
REMARK                         _______ _______ _______ _____ _____    ______ ____
ROOT
ATOM      1  C   LIG    1       -1.293  -0.775   0.010  0.00  0.00    +0.250 C 
ENDROOT
BRANCH   1   7
ATOM      2  C   LIG    1       -0.062   3.966  -1.048  0.00  0.00    -0.010 C 
ATOM      3  C   LIG    1        1.199   3.107  -1.161  0.00  0.00    +0.050 C 
ATOM      4  C   LIG    1        1.238   2.109   0.002  0.00  0.00    +0.280 C 
ATOM      5  N   LIG    1       -0.016   1.344   0.009  0.00  0.00    -0.610 N 
ATOM      6  C   LIG    1       -1.290   2.075   0.019  0.00  0.00    +0.270 C 
ATOM      7  C   LIG    1        0.002  -0.004   0.002  0.00  0.00    +0.520 C 
ATOM      8  O   LIG    1        1.060  -0.596  -0.011  0.00  0.00    -0.510 OA
ATOM      9  C   LIG    1       -1.301   3.072  -1.137  0.00  0.00    +0.040 C 
BRANCH   2  13
ATOM     10  N   LIG    1       -1.110   5.841  -2.275  0.00  0.00    -0.860 N 
ATOM     11  H   LIG    1       -1.126   6.488  -2.997  0.00  0.00    +0.400 HD
ATOM     12  H   LIG    1       -1.832   5.821  -1.627  0.00  0.00    +0.400 HD
ATOM     13  C   LIG    1       -0.086   4.971  -2.171  0.00  0.00    +0.520 C 
ATOM     14  O   LIG    1        0.816   4.997  -2.981  0.00  0.00    -0.540 OA
ENDBRANCH   2  13
ENDBRANCH   1   7
BRANCH   1  15
ATOM     15  O   LIG    1       -1.008  -2.199  -0.000  0.00  0.00    -0.330 OA
BRANCH  15  16
ATOM     16  C   LIG    1       -2.061  -3.031   0.005  0.00  0.00    +0.470 C 
ATOM     17  O   LIG    1       -3.184  -2.584   0.019  0.00  0.00    -0.500 OA
BRANCH  16  18
ATOM     18  C   LIG    1       -1.844  -4.522  -0.005  0.00  0.00    -0.040 C 
ATOM     19  C   LIG    1       -1.068  -4.916  -1.264  0.00  0.00    +0.050 C 
ATOM     20  C   LIG    1       -0.847  -6.430  -1.274  0.00  0.00    +0.000 C 
ATOM     21  C   LIG    1       -0.048  -6.837  -0.034  0.00  0.00    +0.030 C 
ATOM     22  C   LIG    1       -0.823  -6.443   1.225  0.00  0.00    +0.000 C 
ATOM     23  C   LIG    1       -2.177  -7.156   1.234  0.00  0.00    +0.020 C 
ATOM     24  C   LIG    1       -2.976  -6.749  -0.006  0.00  0.00    -0.010 C 
ATOM     25  C   LIG    1       -2.201  -7.143  -1.265  0.00  0.00    +0.020 C 
ATOM     26  C   LIG    1       -1.044  -4.929   1.235  0.00  0.00    +0.050 C 
ATOM     27  C   LIG    1       -3.197  -5.235   0.004  0.00  0.00    +0.050 C 
ENDBRANCH  16  18
ENDBRANCH  15  16
ENDBRANCH   1  15
TORSDOF 5
