REMARK  Name = ZINCvU00000006kU.0
REMARK                            x       y       z     vdW  Elec       q    Type
REMARK                         _______ _______ _______ _____ _____    ______ ____
ROOT
ATOM      1  C   LIG    1       -0.105  -1.799  -0.670  0.00  0.00    +0.290 A 
ATOM      2  N   LIG    1        1.142  -1.636  -0.976  0.00  0.00    -0.420 NA
ATOM      3  C   LIG    1        1.609  -0.387  -0.871  0.00  0.00    +0.080 A 
ATOM      4  C   LIG    1        0.686   0.531  -0.453  0.00  0.00    -0.080 A 
ATOM      5  S   LIG    1       -0.809  -0.258  -0.196  0.00  0.00    +0.180 S 
ENDROOT
BRANCH   3   6
ATOM      6  C   LIG    1        2.951  -0.043  -1.169  0.00  0.00    +0.260 C 
ATOM      7  C   LIG    1        3.989  -0.808  -0.667  0.00  0.00    -0.060 C 
ATOM      8  N   LIG    1        5.316  -0.698  -0.966  0.00  0.00    -0.440 NA
ATOM      9  C   LIG    1        5.980  -1.594  -0.290  0.00  0.00    +0.330 C 
ATOM     10  O   LIG    1        5.162  -2.344   0.473  0.00  0.00    -0.290 OA
ATOM     11  C   LIG    1        3.893  -1.916   0.295  0.00  0.00    +0.480 C 
ATOM     12  O   LIG    1        2.886  -2.354   0.820  0.00  0.00    -0.390 OA
BRANCH   9  13
ATOM     13  C   LIG    1        7.445  -1.768  -0.358  0.00  0.00    -0.020 A 
ATOM     14  C   LIG    1        8.069  -2.757   0.404  0.00  0.00    +0.070 A 
ATOM     15  C   LIG    1        9.438  -2.919   0.332  0.00  0.00    +0.030 A 
ATOM     16  C   LIG    1       10.193  -2.096  -0.485  0.00  0.00    +0.060 A 
ATOM     17  C   LIG    1        9.582  -1.110  -1.239  0.00  0.00    +0.040 A 
ATOM     18  C   LIG    1        8.213  -0.941  -1.181  0.00  0.00    -0.050 A 
ATOM     19 BR   LIG    1        7.380   0.408  -2.213  0.00  0.00    +0.000 Br
ENDBRANCH   9  13
ENDBRANCH   3   6
BRANCH   1  22
ATOM     20  C   LIG    1       -0.936  -5.403  -1.317  0.00  0.00    +0.120 C 
ATOM     21  C   LIG    1       -0.166  -4.117  -1.165  0.00  0.00    +0.510 C 
ATOM     22  N   LIG    1       -0.786  -3.009  -0.711  0.00  0.00    -0.480 N 
ATOM     23  O   LIG    1        1.012  -4.077  -1.452  0.00  0.00    -0.460 OA
BRANCH  22  24
ATOM     24  C   LIG    1       -2.117  -3.079  -0.279  0.00  0.00    +0.100 A 
ATOM     25  C   LIG    1       -2.413  -3.020   1.076  0.00  0.00    +0.020 A 
ATOM     26  C   LIG    1       -3.726  -3.088   1.498  0.00  0.00    +0.030 A 
ATOM     27  C   LIG    1       -4.746  -3.216   0.573  0.00  0.00    -0.070 A 
ATOM     28  C   LIG    1       -4.454  -3.276  -0.778  0.00  0.00    -0.070 A 
ATOM     29  C   LIG    1       -5.568  -3.415  -1.783  0.00  0.00    +0.110 C 
ATOM     30  C   LIG    1       -6.178  -3.291   1.037  0.00  0.00    +0.110 C 
ATOM     31  C   LIG    1       -3.143  -3.202  -1.207  0.00  0.00    +0.030 A 
ENDBRANCH  22  24
ENDBRANCH   1  22
TORSDOF 4
