REMARK  Name = ZINCqH0000038uZr.0
REMARK                            x       y       z     vdW  Elec       q    Type
REMARK                         _______ _______ _______ _____ _____    ______ ____
ROOT
ATOM      1  N   LIG    1        4.197  -3.072   3.223  0.00  0.00    -0.500 N 
ATOM      2  C   LIG    1        3.136  -3.987   2.780  0.00  0.00    +0.190 C 
ATOM      3  C   LIG    1        2.713  -3.622   1.355  0.00  0.00    +0.180 C 
ATOM      4  N   LIG    1        2.248  -2.228   1.326  0.00  0.00    -0.530 NA
ATOM      5  C   LIG    1        3.309  -1.313   1.769  0.00  0.00    +0.180 C 
ATOM      6  C   LIG    1        3.732  -1.678   3.194  0.00  0.00    +0.190 C 
ENDROOT
BRANCH   1  13
ATOM      7  C   LIG    1        6.920  -3.950   3.509  0.00  0.00    +0.100 C 
ATOM      8  C   LIG    1        5.972  -3.850   4.676  0.00  0.00    -0.020 A 
ATOM      9  C   LIG    1        6.386  -4.178   5.956  0.00  0.00    -0.030 A 
ATOM     10  C   LIG    1        5.486  -4.080   7.002  0.00  0.00    +0.260 A 
ATOM     11  N   LIG    1        4.249  -3.675   6.796  0.00  0.00    -0.480 NA
ATOM     12  C   LIG    1        3.816  -3.348   5.595  0.00  0.00    +0.230 A 
ATOM     13  C   LIG    1        4.659  -3.420   4.494  0.00  0.00    +0.030 A 
ENDBRANCH   1  13
BRANCH   4  14
ATOM     14  C   LIG    1        1.762  -1.863  -0.011  0.00  0.00    +0.260 C 
BRANCH  14  15
ATOM     15  C   LIG    1        0.950  -0.597   0.079  0.00  0.00    -0.230 A 
ATOM     16  C   LIG    1        1.339   0.631  -0.336  0.00  0.00    +0.230 A 
ATOM     17  N   LIG    1        0.332   1.491  -0.081  0.00  0.00    -0.370 N 
ATOM     18  N   LIG    1       -0.712   0.768   0.511  0.00  0.00    -0.300 NA
ATOM     19  C   LIG    1       -0.341  -0.483   0.606  0.00  0.00    +0.100 A 
ATOM     20  C   LIG    1       -1.162  -1.607   1.184  0.00  0.00    +0.150 C 
BRANCH  17  21
ATOM     21  C   LIG    1        0.332   2.928  -0.366  0.00  0.00    +0.260 C 
ATOM     22  C   LIG    1        1.106   3.191  -1.659  0.00  0.00    +0.010 C 
ATOM     23  C   LIG    1        1.106   4.692  -1.957  0.00  0.00    +0.020 C 
ATOM     24  C   LIG    1        1.773   5.441  -0.802  0.00  0.00    +0.010 C 
ATOM     25  C   LIG    1        0.998   5.178   0.491  0.00  0.00    +0.020 C 
ATOM     26  C   LIG    1        0.998   3.677   0.789  0.00  0.00    +0.010 C 
ENDBRANCH  17  21
ENDBRANCH  14  15
ENDBRANCH   4  14
TORSDOF 4
