REMARK  Name = ZINCrg00001JduVR.0
REMARK                            x       y       z     vdW  Elec       q    Type
REMARK                         _______ _______ _______ _____ _____    ______ ____
ROOT
ATOM      1  C   LIG    1       -0.197  -0.522   1.383  0.00  0.00    +0.510 C 
ATOM      2  N   LIG    1       -0.215  -1.849   1.615  0.00  0.00    -0.530 N 
ATOM      3  H   LIG    1       -0.107  -2.471   0.879  0.00  0.00    +0.430 HD
ATOM      4  O   LIG    1       -0.334   0.256   2.304  0.00  0.00    -0.520 OA
ENDROOT
BRANCH   2   5
ATOM      5  N   LIG    1       -0.392  -2.330   2.919  0.00  0.00    -0.520 N 
ATOM      6  H   LIG    1       -0.501  -1.708   3.655  0.00  0.00    +0.440 HD
ATOM      7  C   LIG    1       -0.410  -3.658   3.151  0.00  0.00    +0.510 C 
ATOM      8  O   LIG    1       -0.274  -4.436   2.230  0.00  0.00    -0.530 OA
BRANCH   7   9
ATOM      9  C   LIG    1       -0.599  -4.176   4.553  0.00  0.00    +0.350 C 
BRANCH   9  10
ATOM     10  N   LIG    1       -0.582  -5.641   4.540  0.00  0.00    -0.700 N 
ATOM     11  H   LIG    1       -0.461  -6.116   3.703  0.00  0.00    +0.420 HD
ATOM     12  C   LIG    1       -0.735  -6.327   5.689  0.00  0.00    +0.660 C 
ATOM     13  O   LIG    1       -0.887  -5.731   6.737  0.00  0.00    -0.570 OA
BRANCH  12  14
ATOM     14  O   LIG    1       -0.719  -7.673   5.677  0.00  0.00    -0.360 OA
BRANCH  14  15
ATOM     15  C   LIG    1       -0.889  -8.346   6.952  0.00  0.00    +0.140 C 
ATOM     16  C   LIG    1        0.236  -7.931   7.902  0.00  0.00    +0.040 C 
ATOM     17  C   LIG    1       -0.843  -9.861   6.740  0.00  0.00    +0.080 C 
ATOM     18  C   LIG    1       -2.239  -7.957   7.558  0.00  0.00    +0.040 C 
ENDBRANCH  14  15
ENDBRANCH  12  14
ENDBRANCH   9  10
ENDBRANCH   7   9
ENDBRANCH   2   5
BRANCH   1  19
ATOM     19  C   LIG    1       -0.008  -0.004  -0.019  0.00  0.00    +0.130 C 
BRANCH  19  23
ATOM     20  C   LIG    1       -0.058   4.269   0.019  0.00  0.00    +0.150 A 
ATOM     21  C   LIG    1        1.140   3.586   0.179  0.00  0.00    -0.010 A 
ATOM     22  C   LIG    1        1.153   2.205   0.166  0.00  0.00    +0.050 A 
ATOM     23  C   LIG    1       -0.026   1.503  -0.005  0.00  0.00    -0.090 A 
ATOM     24  C   LIG    1       -1.220   2.180  -0.170  0.00  0.00    +0.050 A 
ATOM     25  C   LIG    1       -1.241   3.561  -0.153  0.00  0.00    +0.010 A 
BRANCH  20  27
ATOM     26  C   LIG    1       -1.137   6.325   0.538  0.00  0.00    +0.540 C 
ATOM     27  N   LIG    1       -0.075   5.668   0.031  0.00  0.00    -0.670 N 
ATOM     28  H   LIG    1        0.678   6.165  -0.325  0.00  0.00    +0.410 HD
ATOM     29  O   LIG    1       -2.038   5.705   1.071  0.00  0.00    -0.520 OA
BRANCH  26  31
ATOM     30  C   LIG    1       -2.255   8.439   0.946  0.00  0.00    +0.160 C 
ATOM     31  C   LIG    1       -1.207   7.791   0.446  0.00  0.00    -0.090 C 
ENDBRANCH  26  31
ENDBRANCH  20  27
ENDBRANCH  19  23
ENDBRANCH   1  19
TORSDOF 9
