REMARK  Name = ZINCqH0000050zmN.0
REMARK                            x       y       z     vdW  Elec       q    Type
REMARK                         _______ _______ _______ _____ _____    ______ ____
ROOT
ATOM      1  N   LIG    1        4.703   4.184  -0.218  0.00  0.00    -0.730 N 
ATOM      2  H   LIG    1        5.552   3.715  -0.229  0.00  0.00    +0.400 HD
ATOM      3  C   LIG    1        3.552   3.493  -0.111  0.00  0.00    +0.710 C 
ATOM      4  N   LIG    1        3.579   2.148  -0.018  0.00  0.00    -0.690 N 
ATOM      5  H   LIG    1        4.428   1.684   0.050  0.00  0.00    +0.410 HD
ATOM      6  O   LIG    1        2.488   4.081  -0.098  0.00  0.00    -0.570 OA
ENDROOT
BRANCH   4   7
ATOM      7  C   LIG    1        2.381   1.421  -0.018  0.00  0.00    +0.190 A 
ATOM      8  C   LIG    1        1.296   1.876  -0.764  0.00  0.00    +0.050 A 
ATOM      9  C   LIG    1        0.117   1.167  -0.767  0.00  0.00    +0.090 A 
ATOM     10  C   LIG    1        0.004  -0.008  -0.027  0.00  0.00    -0.200 A 
ATOM     11  S   LIG    1       -1.335  -1.133   0.183  0.00  0.00    +0.100 S 
ATOM     12  C   LIG    1       -0.388  -2.105   1.217  0.00  0.00    +0.280 A 
ATOM     13  N   LIG    1        0.787  -1.623   1.370  0.00  0.00    -0.470 NA
ATOM     14  C   LIG    1        1.086  -0.479   0.726  0.00  0.00    +0.100 A 
ATOM     15  C   LIG    1        2.285   0.261   0.718  0.00  0.00    +0.040 A 
ENDBRANCH   4   7
BRANCH   1  19
ATOM     16  N   LIG    1        5.791   8.081  -1.396  0.00  0.00    -0.480 N 
ATOM     17  C   LIG    1        5.986   7.742   0.019  0.00  0.00    +0.210 C 
ATOM     18  C   LIG    1        6.000   6.221   0.184  0.00  0.00    +0.030 C 
ATOM     19  C   LIG    1        4.673   5.646  -0.320  0.00  0.00    +0.250 C 
ATOM     20  C   LIG    1        4.472   6.053  -1.782  0.00  0.00    +0.030 C 
ATOM     21  C   LIG    1        4.502   7.580  -1.889  0.00  0.00    +0.200 C 
BRANCH  16  27
ATOM     22  C   LIG    1        6.560  12.420   0.474  0.00  0.00    +0.130 C 
ATOM     23  C   LIG    1        6.272  11.555  -0.726  0.00  0.00    +0.150 A 
ATOM     24  C   LIG    1        6.131  12.139  -1.969  0.00  0.00    -0.070 A 
ATOM     25  C   LIG    1        5.865  11.337  -3.071  0.00  0.00    +0.090 A 
ATOM     26  C   LIG    1        5.756   9.971  -2.883  0.00  0.00    -0.050 A 
ATOM     27  C   LIG    1        5.904   9.451  -1.601  0.00  0.00    +0.320 A 
ATOM     28  N   LIG    1        6.157  10.249  -0.575  0.00  0.00    -0.520 NA
ENDBRANCH  16  27
ENDBRANCH   1  19
TORSDOF 3
