REMARK  Name = ZINCrD000000CO7a.0
REMARK                            x       y       z     vdW  Elec       q    Type
REMARK                         _______ _______ _______ _____ _____    ______ ____
ROOT
ATOM      1  S   LIG    1       -2.732   0.847   0.019  0.00  0.00    +2.700 S 
ATOM      2  O   LIG    1       -2.438  -0.429  -0.533  0.00  0.00    -0.960 OA
ATOM      3  O   LIG    1       -3.720   1.717  -0.515  0.00  0.00    -0.950 OA
ENDROOT
BRANCH   1  10
ATOM      4  O   LIG    1        4.538   3.920  -0.368  0.00  0.00    -0.510 OA
ATOM      5  C   LIG    1        3.501   3.290  -0.382  0.00  0.00    +0.520 C 
ATOM      6  C   LIG    1        3.510   1.852  -0.825  0.00  0.00    +0.090 C 
ATOM      7  C   LIG    1        2.490   1.050  -0.015  0.00  0.00    +0.110 C 
ATOM      8  C   LIG    1        1.174   1.782   0.000  0.00  0.00    -0.150 A 
ATOM      9  C   LIG    1       -0.013   1.076   0.008  0.00  0.00    +0.170 A 
ATOM     10  C   LIG    1       -1.220   1.751   0.017  0.00  0.00    -0.700 A 
ATOM     11  C   LIG    1       -1.242   3.133   0.030  0.00  0.00    +0.160 A 
ATOM     12  C   LIG    1       -0.059   3.845   0.023  0.00  0.00    -0.030 A 
ATOM     13  C   LIG    1        1.154   3.171   0.008  0.00  0.00    +0.220 A 
ATOM     14  N   LIG    1        2.356   3.885  -0.000  0.00  0.00    -0.670 N 
ATOM     15  H   LIG    1        2.365   4.816   0.271  0.00  0.00    +0.420 HD
ENDBRANCH   1  10
BRANCH   1  16
ATOM     16  N   LIG    1       -3.146   0.587   1.602  0.00  0.00    -1.120 NA
ATOM     17  H   LIG    1       -3.168  -0.316   1.955  0.00  0.00    +0.420 HD
BRANCH  16  18
ATOM     18  C   LIG    1       -3.478   1.720   2.468  0.00  0.00    +0.270 C 
BRANCH  18  19
ATOM     19  C   LIG    1       -4.172   1.210   3.733  0.00  0.00    +0.040 C 
BRANCH  19  20
ATOM     20  C   LIG    1       -4.519   2.394   4.637  0.00  0.00    +0.040 C 
BRANCH  20  21
ATOM     21  C   LIG    1       -5.212   1.884   5.902  0.00  0.00    +0.200 C 
BRANCH  21  22
ATOM     22  O   LIG    1       -5.537   2.990   6.747  0.00  0.00    -0.310 OA
BRANCH  22  23
ATOM     23  C   LIG    1       -6.162   2.707   7.920  0.00  0.00    +0.140 A 
ATOM     24  C   LIG    1       -6.462   1.393   8.248  0.00  0.00    -0.060 A 
ATOM     25  C   LIG    1       -7.093   1.108   9.444  0.00  0.00    +0.070 A 
ATOM     26  C   LIG    1       -7.435   2.132  10.308  0.00  0.00    -0.070 A 
ATOM     27  C   LIG    1       -7.141   3.444   9.980  0.00  0.00    +0.070 A 
ATOM     28 CL   LIG    1       -8.234   1.772  11.807  0.00  0.00    -0.070 Cl
ATOM     29  C   LIG    1       -6.505   3.733   8.789  0.00  0.00    +0.000 A 
ENDBRANCH  22  23
ENDBRANCH  21  22
ENDBRANCH  20  21
ENDBRANCH  19  20
ENDBRANCH  18  19
ENDBRANCH  16  18
ENDBRANCH   1  16
TORSDOF 8
