REMARK  Name = ZINCrg00000fSj7A.0
REMARK                            x       y       z     vdW  Elec       q    Type
REMARK                         _______ _______ _______ _____ _____    ______ ____
ROOT
ATOM      1  N   LIG    1       -1.947   1.538  -6.285  0.00  0.00    -1.000 NA
ATOM      2  C   LIG    1       -0.761   2.370  -6.040  0.00  0.00    +0.300 C 
ATOM      3  C   LIG    1       -0.025   1.829  -4.810  0.00  0.00    +0.030 C 
ATOM      4  C   LIG    1       -0.997   1.758  -3.630  0.00  0.00    +0.250 C 
ATOM      5  C   LIG    1       -2.142   0.800  -3.967  0.00  0.00    +0.000 C 
ATOM      6  C   LIG    1       -2.902   1.329  -5.188  0.00  0.00    +0.300 C 
ENDROOT
BRANCH   4   7
ATOM      7  N   LIG    1       -0.288   1.272  -2.443  0.00  0.00    -0.720 N 
ATOM      8  H   LIG    1        0.507   0.726  -2.543  0.00  0.00    +0.400 HD
ATOM      9  C   LIG    1       -0.742   1.585  -1.213  0.00  0.00    +0.510 C 
ATOM     10  O   LIG    1       -1.736   2.268  -1.088  0.00  0.00    -0.530 OA
BRANCH   9  11
ATOM     11  C   LIG    1       -0.013   1.086   0.008  0.00  0.00    +0.300 C 
BRANCH  11  12
ATOM     12  N   LIG    1       -0.698   1.558   1.213  0.00  0.00    -0.720 N 
ATOM     13  H   LIG    1       -1.495   2.106   1.135  0.00  0.00    +0.410 HD
ATOM     14  C   LIG    1       -0.222   1.232   2.431  0.00  0.00    +0.550 C 
ATOM     15  O   LIG    1        0.774   0.548   2.529  0.00  0.00    -0.530 OA
BRANCH  14  16
ATOM     16  C   LIG    1       -0.927   1.718   3.671  0.00  0.00    -0.080 C 
ATOM     17  C   LIG    1       -0.207   2.758   4.532  0.00  0.00    +0.060 C 
ATOM     18  C   LIG    1       -0.337   1.315   5.024  0.00  0.00    -0.010 C 
ATOM     19  C   LIG    1        0.924   0.448   5.014  0.00  0.00    +0.070 C 
ENDBRANCH  14  16
ENDBRANCH  11  12
ENDBRANCH   9  11
ENDBRANCH   4   7
BRANCH   1  20
ATOM     20  S   LIG    1       -2.203   0.849  -7.769  0.00  0.00    +2.690 S 
ATOM     21  O   LIG    1       -1.484   1.638  -8.707  0.00  0.00    -0.950 OA
ATOM     22  O   LIG    1       -3.601   0.610  -7.864  0.00  0.00    -0.950 OA
BRANCH  20  27
ATOM     23  C   LIG    1        0.454  -4.567  -7.708  0.00  0.00    +0.090 C 
ATOM     24  C   LIG    1       -0.210  -3.215  -7.723  0.00  0.00    -0.030 A 
ATOM     25  C   LIG    1       -1.528  -3.087  -7.326  0.00  0.00    -0.010 A 
ATOM     26  C   LIG    1       -2.136  -1.846  -7.340  0.00  0.00    +0.120 A 
ATOM     27  C   LIG    1       -1.427  -0.732  -7.751  0.00  0.00    -0.680 A 
ATOM     28  C   LIG    1       -0.111  -0.861  -8.152  0.00  0.00    +0.120 A 
ATOM     29  C   LIG    1        0.500  -2.101  -8.133  0.00  0.00    -0.010 A 
ENDBRANCH  20  27
ENDBRANCH   1  20
TORSDOF 6
