REMARK  Name = ZINCpk00000l2XiY.0
REMARK                            x       y       z     vdW  Elec       q    Type
REMARK                         _______ _______ _______ _____ _____    ______ ____
ROOT
ATOM      1  O   LIG    1       -2.296   4.754  -4.784  0.00  0.00    -0.520 OA
ATOM      2  C   LIG    1       -1.732   5.481  -3.993  0.00  0.00    +0.510 C 
ATOM      3  N   LIG    1       -1.531   6.779  -4.296  0.00  0.00    -0.700 N 
ATOM      4  H   LIG    1       -1.080   7.360  -3.664  0.00  0.00    +0.410 HD
ENDROOT
BRANCH   2   5
ATOM      5  C   LIG    1       -1.261   4.937  -2.683  0.00  0.00    +0.510 C 
ATOM      6  N   LIG    1       -1.462   3.640  -2.380  0.00  0.00    -0.700 N 
ATOM      7  H   LIG    1       -1.913   3.058  -3.013  0.00  0.00    +0.410 HD
ATOM      8  O   LIG    1       -0.697   5.665  -1.892  0.00  0.00    -0.520 OA
BRANCH   6   9
ATOM      9  C   LIG    1       -1.000   3.107  -1.096  0.00  0.00    +0.250 C 
ATOM     10  C   LIG    1       -0.767   1.600  -1.225  0.00  0.00    +0.030 C 
ATOM     11  C   LIG    1       -0.013   1.086   0.008  0.00  0.00    +0.120 C 
ATOM     12  C   LIG    1       -0.731   1.578   1.240  0.00  0.00    -0.240 A 
ATOM     13  C   LIG    1       -0.619   1.136   2.505  0.00  0.00    +0.250 A 
ATOM     14  N   LIG    1       -1.455   1.871   3.272  0.00  0.00    -0.480 N 
ATOM     15  H   LIG    1       -1.585   1.774   4.229  0.00  0.00    +0.440 HD
ATOM     16  N   LIG    1       -2.103   2.798   2.442  0.00  0.00    -0.280 NA
ATOM     17  C   LIG    1       -1.670   2.624   1.227  0.00  0.00    +0.090 A 
ATOM     18  C   LIG    1       -2.061   3.377  -0.022  0.00  0.00    +0.130 C 
ENDBRANCH   6   9
ENDBRANCH   2   5
BRANCH   3  19
ATOM     19  C   LIG    1       -1.993   7.311  -5.580  0.00  0.00    +0.290 C 
BRANCH  19  20
ATOM     20  C   LIG    1       -1.642   8.798  -5.672  0.00  0.00    -0.020 C 
ATOM     21  C   LIG    1       -2.696   9.720  -5.033  0.00  0.00    +0.070 C 
ATOM     22  C   LIG    1       -2.473  10.659  -6.226  0.00  0.00    -0.140 C 
ATOM     23  C   LIG    1       -1.883  12.067  -6.223  0.00  0.00    +0.080 C 
ATOM     24  C   LIG    1       -3.319  11.834  -6.687  0.00  0.00    -0.140 C 
ATOM     25  C   LIG    1       -4.615  12.384  -6.080  0.00  0.00    +0.050 C 
ATOM     26  C   LIG    1       -4.793  13.175  -7.389  0.00  0.00    +0.010 C 
ATOM     27  C   LIG    1       -3.927  12.100  -8.069  0.00  0.00    +0.050 C 
ATOM     28  C   LIG    1       -2.009   9.435  -7.023  0.00  0.00    +0.070 C 
ENDBRANCH  19  20
ENDBRANCH   3  19
TORSDOF 4
