REMARK  Name = ZINCkj000005jQhT.0
REMARK                            x       y       z     vdW  Elec       q    Type
REMARK                         _______ _______ _______ _____ _____    ______ ____
ROOT
ATOM      1  C   LIG    1       -1.004   0.626   0.988  0.00  0.00    +0.050 C 
ATOM      2  C   LIG    1       -1.085   1.335   2.341  0.00  0.00    -0.040 C 
ATOM      3  C   LIG    1       -2.427   1.017   3.005  0.00  0.00    +0.040 C 
ATOM      4  C   LIG    1       -2.522   1.752   4.344  0.00  0.00    +0.020 C 
ATOM      5  C   LIG    1       -1.398   1.272   5.268  0.00  0.00    +0.320 C 
ATOM      6  N   LIG    1       -0.113   1.441   4.577  0.00  0.00    -1.000 NA
ATOM      7  C   LIG    1        0.055   0.850   3.242  0.00  0.00    +0.270 C 
ENDROOT
BRANCH   6   8
ATOM      8  S   LIG    1        1.123   2.283   5.288  0.00  0.00    +2.670 S 
ATOM      9  O   LIG    1        2.245   2.153   4.426  0.00  0.00    -0.980 OA
ATOM     10  O   LIG    1        1.142   1.890   6.654  0.00  0.00    -0.900 OA
BRANCH   8  11
ATOM     11  C   LIG    1        0.674   3.986   5.267  0.00  0.00    -0.680 A 
ATOM     12  C   LIG    1        1.171   4.817   4.278  0.00  0.00    +0.050 A 
ATOM     13  C   LIG    1        0.819   6.151   4.252  0.00  0.00    +0.090 A 
ATOM     14  C   LIG    1       -0.030   6.665   5.234  0.00  0.00    +0.060 A 
ATOM     15  C   LIG    1       -0.523   5.822   6.232  0.00  0.00    +0.090 A 
ATOM     16  C   LIG    1       -0.168   4.489   6.243  0.00  0.00    +0.160 A 
BRANCH  14  17
ATOM     17  C   LIG    1       -0.395   8.049   5.217  0.00  0.00    +0.220 C 
ATOM     18  N   LIG    1       -0.684   9.148   5.203  0.00  0.00    -0.350 NA
ENDBRANCH  14  17
ENDBRANCH   8  11
ENDBRANCH   6   8
BRANCH   7  19
ATOM     19  C   LIG    1        1.397   1.288   2.652  0.00  0.00    +0.300 C 
BRANCH  19  20
ATOM     20  N   LIG    1        1.419   2.751   2.518  0.00  0.00    -0.630 N 
ATOM     21  H   LIG    1        0.953   3.017   1.663  0.00  0.00    +0.420 HD
ATOM     22  H   LIG    1        2.375   3.072   2.493  0.00  0.00    +0.450 HD
ATOM     23  H   LIG    1        0.944   3.168   3.304  0.00  0.00    +0.400 HD
ENDBRANCH  19  20
ENDBRANCH   7  19
TORSDOF 5
