REMARK  Name = ZINCqH00000519T9.0
REMARK                            x       y       z     vdW  Elec       q    Type
REMARK                         _______ _______ _______ _____ _____    ______ ____
ROOT
ATOM      1  O   LIG    1       -1.052  -4.727  -0.013  0.00  0.00    -0.530 OA
ATOM      2  C   LIG    1       -2.202  -4.341   0.001  0.00  0.00    +0.510 C 
ATOM      3  N   LIG    1       -3.212  -5.233   0.006  0.00  0.00    -0.720 N 
ATOM      4  H   LIG    1       -4.132  -4.925   0.017  0.00  0.00    +0.410 HD
ENDROOT
BRANCH   3   5
ATOM      5  C   LIG    1       -2.921  -6.669  -0.005  0.00  0.00    +0.400 C 
BRANCH   5   6
ATOM      6  C   LIG    1       -4.214  -7.444   0.004  0.00  0.00    -0.030 A 
ATOM      7  C   LIG    1       -4.899  -7.841  -1.086  0.00  0.00    -0.010 A 
ATOM      8  C   LIG    1       -6.040  -8.530  -0.628  0.00  0.00    -0.030 A 
ATOM      9  C   LIG    1       -5.988  -8.514   0.730  0.00  0.00    +0.040 A 
ATOM     10  O   LIG    1       -4.872  -7.857   1.100  0.00  0.00    -0.160 OA
BRANCH   9  11
ATOM     11  C   LIG    1       -6.980  -9.120   1.643  0.00  0.00    -0.000 A 
ATOM     12  C   LIG    1       -8.098  -9.777   1.127  0.00  0.00    +0.050 A 
ATOM     13  C   LIG    1       -9.019 -10.344   1.984  0.00  0.00    +0.050 A 
ATOM     14  C   LIG    1       -8.840 -10.253   3.354  0.00  0.00    -0.080 A 
ATOM     15  C   LIG    1       -7.736  -9.597   3.872  0.00  0.00    +0.050 A 
ATOM     16 BR   LIG    1      -10.110 -11.027   4.522  0.00  0.00    -0.040 Br
ATOM     17  C   LIG    1       -6.806  -9.031   3.026  0.00  0.00    +0.050 A 
ENDBRANCH   9  11
ENDBRANCH   5   6
ENDBRANCH   3   5
BRANCH   2  18
ATOM     18  C   LIG    1       -2.501  -2.864   0.011  0.00  0.00    +0.300 C 
BRANCH  18  19
ATOM     19  N   LIG    1       -1.244  -2.111   0.003  0.00  0.00    -0.720 N 
ATOM     20  H   LIG    1       -0.397  -2.583  -0.008  0.00  0.00    +0.410 HD
ATOM     21  C   LIG    1       -1.266  -0.764   0.011  0.00  0.00    +0.560 C 
ATOM     22  O   LIG    1       -2.329  -0.173   0.024  0.00  0.00    -0.530 OA
BRANCH  21  23
ATOM     23  C   LIG    1        0.002  -0.004   0.002  0.00  0.00    -0.140 A 
ATOM     24  C   LIG    1       -0.017   1.391   0.010  0.00  0.00    +0.080 A 
ATOM     25  C   LIG    1        1.170   2.095   0.002  0.00  0.00    +0.000 A 
ATOM     26  C   LIG    1        2.378   1.419  -0.013  0.00  0.00    +0.040 A 
ATOM     27  C   LIG    1        2.403   0.036  -0.021  0.00  0.00    +0.000 A 
ATOM     28  C   LIG    1        1.224  -0.679  -0.013  0.00  0.00    +0.050 A 
ENDBRANCH  21  23
ENDBRANCH  18  19
ENDBRANCH   2  18
TORSDOF 6
