REMARK  Name = ZINCnE000001I7HP.0
REMARK                            x       y       z     vdW  Elec       q    Type
REMARK                         _______ _______ _______ _____ _____    ______ ____
ROOT
ATOM      1  C   LIG    1        1.237  -2.157  -0.026  0.00  0.00    +0.560 C 
ATOM      2  N   LIG    1        2.412  -2.807  -0.135  0.00  0.00    -0.540 N 
ATOM      3  C   LIG    1        2.445  -4.261  -0.347  0.00  0.00    +0.260 C 
ATOM      4  C   LIG    1        3.485  -4.548  -1.443  0.00  0.00    +0.060 C 
ATOM      5  C   LIG    1        4.862  -4.119  -0.937  0.00  0.00    -0.040 C 
ATOM      6  C   LIG    1        4.817  -2.704  -0.423  0.00  0.00    -0.070 A 
ATOM      7  C   LIG    1        5.998  -1.988  -0.326  0.00  0.00    +0.070 A 
ATOM      8  C   LIG    1        5.990  -0.691   0.149  0.00  0.00    -0.040 A 
ATOM      9  C   LIG    1        4.801  -0.098   0.531  0.00  0.00    -0.010 A 
ATOM     10  C   LIG    1        3.618  -0.804   0.436  0.00  0.00    +0.000 A 
ATOM     11  C   LIG    1        3.624  -2.109  -0.043  0.00  0.00    +0.140 A 
ATOM     12  O   LIG    1        1.218  -0.943   0.038  0.00  0.00    -0.520 OA
ENDROOT
BRANCH   1  18
ATOM     13  C   LIG    1       -1.097  -2.550  -0.802  0.00  0.00    -0.030 A 
ATOM     14  C   LIG    1       -2.275  -3.266  -0.759  0.00  0.00    +0.000 A 
ATOM     15  C   LIG    1       -2.399  -4.349   0.093  0.00  0.00    +0.030 A 
ATOM     16  C   LIG    1       -1.344  -4.722   0.906  0.00  0.00    +0.000 A 
ATOM     17  C   LIG    1       -0.160  -4.014   0.873  0.00  0.00    +0.050 A 
ATOM     18  C   LIG    1       -0.029  -2.920   0.016  0.00  0.00    -0.120 A 
BRANCH  13  20
ATOM     19  C   LIG    1       -0.202  -1.794  -2.988  0.00  0.00    +0.020 C 
ATOM     20  C   LIG    1       -0.965  -1.370  -1.731  0.00  0.00    +0.070 C 
ENDBRANCH  13  20
ENDBRANCH   1  18
BRANCH   5  21
ATOM     21  C   LIG    1        5.853  -4.205  -2.070  0.00  0.00    +0.510 C 
ATOM     22  O   LIG    1        5.484  -4.560  -3.176  0.00  0.00    -0.690 OA
ATOM     23  O   LIG    1        7.023  -3.922  -1.879  0.00  0.00    -0.690 OA
ENDBRANCH   5  21
TORSDOF 3
