REMARK  Name = ZINCrD00000fNAtj.0
REMARK                            x       y       z     vdW  Elec       q    Type
REMARK                         _______ _______ _______ _____ _____    ______ ____
ROOT
ATOM      1  N   LIG    1        5.745  -1.136   1.250  0.00  0.00    -0.700 N 
ATOM      2  H   LIG    1        5.927  -1.783   0.551  0.00  0.00    +0.420 HD
ENDROOT
BRANCH   1   3
ATOM      3  C   LIG    1        6.643  -0.971   2.293  0.00  0.00    +0.450 A 
ATOM      4  N   LIG    1        6.403  -0.089   3.244  0.00  0.00    -0.540 NA
ATOM      5  C   LIG    1        7.255   0.079   4.261  0.00  0.00    +0.260 A 
ATOM      6  C   LIG    1        8.395  -0.633   4.350  0.00  0.00    +0.160 A 
ATOM      7  N   LIG    1        8.699  -1.561   3.386  0.00  0.00    -0.240 N 
ATOM      8  N   LIG    1        9.771  -2.436   3.197  0.00  0.00    -0.290 NA
ATOM      9  C   LIG    1        9.569  -3.123   2.093  0.00  0.00    +0.100 A 
ATOM     10  C   LIG    1        8.368  -2.724   1.527  0.00  0.00    -0.070 A 
ATOM     11  C   LIG    1        7.827  -1.744   2.343  0.00  0.00    +0.020 A 
BRANCH   9  12
ATOM     12  C   LIG    1       10.494  -4.174   1.534  0.00  0.00    +0.070 C 
ATOM     13  C   LIG    1       10.181  -4.558   0.078  0.00  0.00    +0.030 C 
ATOM     14  C   LIG    1       10.478  -6.013   0.483  0.00  0.00    +0.010 C 
ATOM     15  C   LIG    1       10.098  -5.609   1.918  0.00  0.00    +0.020 C 
ENDBRANCH   9  12
ENDBRANCH   1   3
BRANCH   1  16
ATOM     16  C   LIG    1        4.521  -0.333   1.205  0.00  0.00    +0.310 C 
BRANCH  16  17
ATOM     17  C   LIG    1        3.711  -0.707  -0.038  0.00  0.00    +0.150 C 
BRANCH  17  21
ATOM     18  C   LIG    1       -0.017   1.378   0.010  0.00  0.00    +0.020 A 
ATOM     19  C   LIG    1        1.171   2.086   0.002  0.00  0.00    +0.020 A 
ATOM     20  C   LIG    1        2.377   1.411  -0.015  0.00  0.00    -0.010 A 
ATOM     21  C   LIG    1        2.396   0.029  -0.022  0.00  0.00    -0.090 A 
ATOM     22  C   LIG    1        1.208  -0.679  -0.013  0.00  0.00    +0.030 A 
ATOM     23  C   LIG    1        0.002  -0.004   0.002  0.00  0.00    +0.020 A 
ENDBRANCH  17  21
BRANCH  17  24
ATOM     24  C   LIG    1        4.484  -0.327  -1.275  0.00  0.00    +0.180 A 
ATOM     25  N   LIG    1        5.268  -1.107  -1.967  0.00  0.00    -0.290 NA
ATOM     26  N   LIG    1        5.761  -0.454  -2.960  0.00  0.00    -0.290 NA
ATOM     27  C   LIG    1        5.321   0.774  -2.940  0.00  0.00    +0.380 A 
ATOM     28  N   LIG    1        4.498   0.891  -1.870  0.00  0.00    -0.580 N 
ATOM     29  H   LIG    1        4.017   1.684  -1.587  0.00  0.00    +0.430 HD
ENDBRANCH  17  24
ENDBRANCH  16  17
ENDBRANCH   1  16
TORSDOF 6
