REMARK  Name = ZINCvU0000000DFp.0
REMARK                            x       y       z     vdW  Elec       q    Type
REMARK                         _______ _______ _______ _____ _____    ______ ____
ROOT
ATOM      1  C   LIG    1        3.627   6.002  -0.217  0.00  0.00    +0.190 C 
ATOM      2  C   LIG    1        4.308   5.645  -1.540  0.00  0.00    +0.070 C 
ENDROOT
BRANCH   1   3
ATOM      3  C   LIG    1        2.335   5.236  -0.095  0.00  0.00    +0.520 C 
ATOM      4  N   LIG    1        2.355   3.891  -0.001  0.00  0.00    -0.670 N 
ATOM      5  H   LIG    1        3.202   3.422   0.055  0.00  0.00    +0.420 HD
ATOM      6  O   LIG    1        1.277   5.829  -0.082  0.00  0.00    -0.490 OA
BRANCH   4   7
ATOM      7  C   LIG    1        1.154   3.173   0.018  0.00  0.00    +0.160 A 
ATOM      8  C   LIG    1        0.033   3.709   0.637  0.00  0.00    +0.100 A 
ATOM      9  C   LIG    1       -1.151   2.997   0.654  0.00  0.00    -0.160 A 
ATOM     10  C   LIG    1       -1.222   1.755   0.051  0.00  0.00    +0.080 A 
ATOM     11  C   LIG    1       -0.106   1.216  -0.562  0.00  0.00    +0.060 A 
ATOM     12  C   LIG    1        1.081   1.922  -0.582  0.00  0.00    -0.030 A 
ATOM     13 CL   LIG    1        2.481   1.247  -1.358  0.00  0.00    -0.050 Cl
BRANCH   9  14
ATOM     14  C   LIG    1       -2.369   3.579   1.326  0.00  0.00    +0.510 C 
ATOM     15  F   LIG    1       -1.969   4.408   2.379  0.00  0.00    -0.170 F 
ATOM     16  F   LIG    1       -3.166   2.542   1.824  0.00  0.00    -0.170 F 
ATOM     17  F   LIG    1       -3.102   4.325   0.397  0.00  0.00    -0.170 F 
ENDBRANCH   9  14
ENDBRANCH   4   7
ENDBRANCH   1   3
BRANCH   1  18
ATOM     18  O   LIG    1        3.349   7.427  -0.185  0.00  0.00    -0.330 OA
BRANCH  18  19
ATOM     19  C   LIG    1        4.303   8.222   0.327  0.00  0.00    +0.460 C 
ATOM     20  O   LIG    1        5.335   7.743   0.734  0.00  0.00    -0.490 OA
BRANCH  19  21
ATOM     21  C   LIG    1        4.085   9.711   0.394  0.00  0.00    +0.200 C 
BRANCH  21  26
ATOM     22  C   LIG    1        9.017  11.755  -0.370  0.00  0.00    +0.160 A 
ATOM     23  C   LIG    1        8.194  11.199  -1.345  0.00  0.00    -0.070 A 
ATOM     24  C   LIG    1        6.959  10.715  -1.014  0.00  0.00    +0.100 A 
ATOM     25  C   LIG    1        6.525  10.773   0.310  0.00  0.00    -0.150 A 
ATOM     26  C   LIG    1        5.296  10.369   1.005  0.00  0.00    -0.170 A 
ATOM     27  C   LIG    1        5.470  10.696   2.292  0.00  0.00    +0.240 A 
ATOM     28  O   LIG    1        6.676  11.266   2.467  0.00  0.00    -0.190 OA
ATOM     29  C   LIG    1        7.347  11.338   1.300  0.00  0.00    +0.090 A 
ATOM     30  C   LIG    1        8.598  11.825   0.947  0.00  0.00    -0.010 A 
BRANCH  22  32
ATOM     31  C   LIG    1       10.614  12.131  -2.090  0.00  0.00    +0.250 C 
ATOM     32  O   LIG    1       10.242  12.233  -0.715  0.00  0.00    -0.310 OA
ENDBRANCH  22  32
ENDBRANCH  21  26
ENDBRANCH  19  21
ENDBRANCH  18  19
ENDBRANCH   1  18
TORSDOF 8
