REMARK  Name = ZINCvU00000008Dh.0
REMARK                            x       y       z     vdW  Elec       q    Type
REMARK                         _______ _______ _______ _____ _____    ______ ____
ROOT
ATOM      1  C   LIG    1       -5.128   4.789   6.566  0.00  0.00    +0.140 A 
ATOM      2  N   LIG    1       -4.205   4.299   7.360  0.00  0.00    -0.280 NA
ATOM      3  N   LIG    1       -4.503   4.540   8.586  0.00  0.00    -0.270 NA
ATOM      4  C   LIG    1       -5.641   5.192   8.652  0.00  0.00    +0.280 A 
ATOM      5  N   LIG    1       -6.078   5.372   7.360  0.00  0.00    -0.440 N 
ENDROOT
BRANCH   4   6
ATOM      6  C   LIG    1       -6.324   5.646   9.880  0.00  0.00    -0.110 A 
ATOM      7  C   LIG    1       -7.537   6.251   9.958  0.00  0.00    +0.250 A 
ATOM      8  N   LIG    1       -7.835   6.521  11.262  0.00  0.00    -0.580 N 
ATOM      9  H   LIG    1       -8.650   6.948  11.569  0.00  0.00    +0.420 HD
ATOM     10  C   LIG    1       -6.808   6.101  12.081  0.00  0.00    +0.100 A 
ATOM     11  C   LIG    1       -6.611   6.143  13.458  0.00  0.00    -0.010 A 
ATOM     12  C   LIG    1       -5.452   5.632  14.001  0.00  0.00    +0.040 A 
ATOM     13  C   LIG    1       -4.475   5.075  13.189  0.00  0.00    -0.010 A 
ATOM     14  C   LIG    1       -4.651   5.025  11.823  0.00  0.00    +0.080 A 
ATOM     15  C   LIG    1       -5.818   5.537  11.259  0.00  0.00    -0.070 A 
ENDBRANCH   4   6
BRANCH   5  16
ATOM     16  C   LIG    1       -7.303   6.046   6.925  0.00  0.00    +0.190 C 
ATOM     17  C   LIG    1       -7.617   6.045   5.427  0.00  0.00    +0.070 C 
ATOM     18  C   LIG    1       -7.151   7.333   6.111  0.00  0.00    +0.060 C 
ENDBRANCH   5  16
BRANCH   1  19
ATOM     19  S   LIG    1       -5.146   4.704   4.806  0.00  0.00    +0.070 S 
BRANCH  19  20
ATOM     20  C   LIG    1       -3.599   3.808   4.519  0.00  0.00    +0.080 C 
BRANCH  20  21
ATOM     21  C   LIG    1       -3.398   3.614   3.038  0.00  0.00    +0.450 C 
ATOM     22  O   LIG    1       -4.220   4.040   2.254  0.00  0.00    -0.460 OA
BRANCH  21  26
ATOM     23  C   LIG    1        1.024   1.089   2.852  0.00  0.00    +0.130 C 
ATOM     24  C   LIG    1       -0.255   1.796   2.482  0.00  0.00    +0.010 A 
ATOM     25  C   LIG    1       -1.125   2.338   3.352  0.00  0.00    +0.000 A 
ATOM     26  C   LIG    1       -2.211   2.912   2.546  0.00  0.00    -0.270 A 
ATOM     27  C   LIG    1       -1.879   2.659   1.229  0.00  0.00    +0.120 A 
ATOM     28  C   LIG    1       -2.686   3.061   0.021  0.00  0.00    +0.150 C 
ATOM     29  N   LIG    1       -0.714   1.988   1.211  0.00  0.00    -0.430 N 
BRANCH  29  30
ATOM     30  C   LIG    1       -0.029   1.533  -0.002  0.00  0.00    +0.220 C 
ATOM     31  C   LIG    1        1.411   2.049   0.001  0.00  0.00    +0.050 C 
ATOM     32  C   LIG    1       -0.023   0.004  -0.040  0.00  0.00    +0.050 C 
ENDBRANCH  29  30
ENDBRANCH  21  26
ENDBRANCH  20  21
ENDBRANCH  19  20
ENDBRANCH   1  19
TORSDOF 7
