REMARK  Name = ZINCnE000001Fphe.0
REMARK                            x       y       z     vdW  Elec       q    Type
REMARK                         _______ _______ _______ _____ _____    ______ ____
ROOT
ATOM      1  C   LIG    1        2.971   6.717  -6.045  0.00  0.00    +0.540 C 
ATOM      2  N   LIG    1        4.143   7.380  -6.000  0.00  0.00    -0.550 N 
ATOM      3  C   LIG    1        5.116   7.106  -4.933  0.00  0.00    +0.280 C 
ATOM      4  C   LIG    1        5.638   8.454  -4.418  0.00  0.00    +0.020 C 
ATOM      5  C   LIG    1        6.376   9.164  -5.553  0.00  0.00    +0.080 C 
ATOM      6  C   LIG    1        5.517   9.215  -6.789  0.00  0.00    -0.120 A 
ATOM      7  C   LIG    1        5.800  10.159  -7.763  0.00  0.00    +0.020 A 
ATOM      8  C   LIG    1        5.032  10.229  -8.909  0.00  0.00    -0.020 A 
ATOM      9  C   LIG    1        3.975   9.356  -9.092  0.00  0.00    +0.020 A 
ATOM     10  C   LIG    1        3.686   8.414  -8.126  0.00  0.00    +0.020 A 
ATOM     11  C   LIG    1        4.458   8.338  -6.974  0.00  0.00    +0.160 A 
ATOM     12  O   LIG    1        2.204   6.903  -6.967  0.00  0.00    -0.500 OA
ENDROOT
BRANCH   1  13
ATOM     13  C   LIG    1        2.612   5.745  -4.951  0.00  0.00    +0.100 C 
BRANCH  13  14
ATOM     14  S   LIG    1        0.925   5.132  -5.216  0.00  0.00    +0.030 S 
BRANCH  14  19
ATOM     15  N   LIG    1       -0.661   1.468  -1.243  0.00  0.00    -0.640 NA
ATOM     16  C   LIG    1       -0.085   2.331  -2.046  0.00  0.00    +0.340 A 
ATOM     17  N   LIG    1        1.170   2.857  -1.945  0.00  0.00    -0.510 NA
ATOM     18  N   LIG    1        1.538   3.750  -2.926  0.00  0.00    -0.250 NA
ATOM     19  C   LIG    1        0.688   4.029  -3.863  0.00  0.00    -0.080 A 
ATOM     20  S   LIG    1       -0.760   3.069  -3.511  0.00  0.00    -0.100 S 
BRANCH  15  21
ATOM     21  C   LIG    1        0.062   0.960  -0.075  0.00  0.00    +0.180 C 
BRANCH  21  23
ATOM     22  C   LIG    1        0.114   0.895   2.422  0.00  0.00    +0.000 C 
ATOM     23  C   LIG    1       -0.641   1.427   1.202  0.00  0.00    -0.010 C 
ENDBRANCH  21  23
ENDBRANCH  15  21
ENDBRANCH  14  19
ENDBRANCH  13  14
ENDBRANCH   1  13
TORSDOF 5
