REMARK  Name = ZINCvU0000000G8P.0
REMARK                            x       y       z     vdW  Elec       q    Type
REMARK                         _______ _______ _______ _____ _____    ______ ____
ROOT
ATOM      1  N   LIG    1       -0.681   1.543   1.230  0.00  0.00    -0.450 N 
ATOM      2  C   LIG    1       -0.393   2.662   1.958  0.00  0.00    +0.150 A 
ATOM      3  N   LIG    1       -1.274   2.731   2.930  0.00  0.00    -0.290 NA
ATOM      4  N   LIG    1       -2.083   1.734   2.865  0.00  0.00    -0.250 NA
ATOM      5  C   LIG    1       -1.771   0.971   1.844  0.00  0.00    +0.220 A 
ENDROOT
BRANCH   5   6
ATOM      6  C   LIG    1       -2.461  -0.270   1.432  0.00  0.00    -0.010 A 
ATOM      7  C   LIG    1       -1.724  -1.422   1.152  0.00  0.00    +0.040 A 
ATOM      8  C   LIG    1       -2.374  -2.578   0.773  0.00  0.00    +0.030 A 
ATOM      9  C   LIG    1       -3.753  -2.595   0.659  0.00  0.00    +0.050 A 
ATOM     10  C   LIG    1       -4.490  -1.456   0.930  0.00  0.00    +0.030 A 
ATOM     11  C   LIG    1       -3.852  -0.294   1.315  0.00  0.00    -0.000 A 
ATOM     12 CL   LIG    1       -4.778   1.135   1.655  0.00  0.00    -0.040 Cl
ENDBRANCH   5   6
BRANCH   1  13
ATOM     13  C   LIG    1        0.027   1.052   0.045  0.00  0.00    +0.310 C 
BRANCH  13  14
ATOM     14  C   LIG    1       -0.684   1.547  -1.216  0.00  0.00    +0.030 C 
BRANCH  14  15
ATOM     15  C   LIG    1        0.055   1.034  -2.454  0.00  0.00    +0.180 C 
BRANCH  15  17
ATOM     16  C   LIG    1        0.004   1.071  -4.850  0.00  0.00    +0.200 C 
ATOM     17  O   LIG    1       -0.609   1.496  -3.631  0.00  0.00    -0.390 OA
ENDBRANCH  15  17
ENDBRANCH  14  15
ENDBRANCH  13  14
ENDBRANCH   1  13
BRANCH   2  18
ATOM     18  S   LIG    1        0.914   3.803   1.649  0.00  0.00    +0.080 S 
BRANCH  18  19
ATOM     19  C   LIG    1        0.640   4.970   3.005  0.00  0.00    +0.110 C 
BRANCH  19  20
ATOM     20  C   LIG    1        1.672   6.066   2.940  0.00  0.00    +0.540 C 
ATOM     21  N   LIG    1        1.663   7.055   3.856  0.00  0.00    -0.600 N 
ATOM     22  C   LIG    1        0.650   7.064   4.915  0.00  0.00    +0.300 C 
ATOM     23  O   LIG    1        2.511   6.059   2.064  0.00  0.00    -0.520 OA
BRANCH  21  24
ATOM     24  C   LIG    1        2.667   8.120   3.794  0.00  0.00    +0.350 C 
BRANCH  24  25
ATOM     25  C   LIG    1        2.148   9.249   2.940  0.00  0.00    -0.100 A 
ATOM     26  C   LIG    1        2.398   9.258   1.581  0.00  0.00    +0.050 A 
ATOM     27  C   LIG    1        1.918  10.290   0.796  0.00  0.00    +0.020 A 
ATOM     28  C   LIG    1        1.198  11.319   1.373  0.00  0.00    +0.030 A 
ATOM     29  C   LIG    1        0.953  11.314   2.735  0.00  0.00    -0.040 A 
ATOM     30 CL   LIG    1        0.048  12.606   3.459  0.00  0.00    -0.070 Cl
ATOM     31  C   LIG    1        1.428  10.278   3.518  0.00  0.00    +0.030 A 
ENDBRANCH  24  25
ENDBRANCH  21  24
ENDBRANCH  19  20
ENDBRANCH  18  19
ENDBRANCH   2  18
TORSDOF 10
