REMARK  Name = ZINCnE000001SoiV.0
REMARK                            x       y       z     vdW  Elec       q    Type
REMARK                         _______ _______ _______ _____ _____    ______ ____
ROOT
ATOM      1  S   LIG    1        1.342   3.756   0.009  0.00  0.00    +0.010 S 
ENDROOT
BRANCH   1   2
ATOM      2  C   LIG    1        1.111   2.010   0.002  0.00  0.00    -0.070 A 
ATOM      3  N   LIG    1       -0.017   1.373   0.010  0.00  0.00    -0.250 NA
ATOM      4  N   LIG    1        0.002  -0.004   0.002  0.00  0.00    -0.500 NA
ATOM      5  C   LIG    1        1.234  -0.591  -0.013  0.00  0.00    +0.340 A 
ATOM      6  N   LIG    1        1.512  -1.873  -0.023  0.00  0.00    -0.630 NA
ATOM      7  S   LIG    1        2.375   0.767  -0.017  0.00  0.00    -0.090 S 
BRANCH   6   8
ATOM      8  C   LIG    1        0.427  -2.858  -0.018  0.00  0.00    +0.300 C 
BRANCH   8   9
ATOM      9  C   LIG    1        0.446  -3.633  -1.310  0.00  0.00    +0.030 A 
ATOM     10  C   LIG    1        1.130  -4.769  -1.536  0.00  0.00    -0.080 A 
ATOM     11  C   LIG    1        0.861  -5.150  -2.870  0.00  0.00    -0.080 A 
ATOM     12  C   LIG    1        0.036  -4.219  -3.383  0.00  0.00    +0.120 A 
ATOM     13  O   LIG    1       -0.211  -3.303  -2.433  0.00  0.00    -0.170 OA
ENDBRANCH   8   9
ENDBRANCH   6   8
ENDBRANCH   1   2
BRANCH   1  14
ATOM     14  C   LIG    1       -0.356   4.393   0.030  0.00  0.00    +0.080 C 
BRANCH  14  16
ATOM     15  O   LIG    1        0.733   6.486   0.030  0.00  0.00    -0.430 OA
ATOM     16  C   LIG    1       -0.329   5.899   0.038  0.00  0.00    +0.420 C 
BRANCH  16  17
ATOM     17  C   LIG    1       -1.587   6.657   0.054  0.00  0.00    -0.170 A 
ATOM     18  C   LIG    1       -2.813   5.982   0.057  0.00  0.00    +0.090 A 
ATOM     19  C   LIG    1       -3.985   6.694   0.078  0.00  0.00    -0.020 A 
ATOM     20  C   LIG    1       -3.957   8.084   0.085  0.00  0.00    +0.140 A 
ATOM     21  C   LIG    1       -2.741   8.760   0.077  0.00  0.00    -0.030 A 
ATOM     22  C   LIG    1       -1.563   8.057   0.062  0.00  0.00    +0.100 A 
BRANCH  20  23
ATOM     23  O   LIG    1       -5.119   8.784   0.100  0.00  0.00    -0.500 OA
ATOM     24  H   LIG    1       -5.464   8.992  -0.779  0.00  0.00    +0.400 HD
ENDBRANCH  20  23
ENDBRANCH  16  17
ENDBRANCH  14  16
ENDBRANCH   1  14
TORSDOF 7
