REMARK  Name = ZINCrH000004mouW.0
REMARK                            x       y       z     vdW  Elec       q    Type
REMARK                         _______ _______ _______ _____ _____    ______ ____
ROOT
ATOM      1  C   LIG    1        1.280   2.188  -0.003  0.00  0.00    +0.120 A 
ATOM      2  C   LIG    1       -0.002   1.784   0.046  0.00  0.00    -0.250 A 
ATOM      3  S   LIG    1       -0.025   0.022   0.030  0.00  0.00    +0.210 S 
ATOM      4  C   LIG    1        1.734  -0.001  -0.043  0.00  0.00    +0.260 A 
ATOM      5  C   LIG    1       -1.210   2.683   0.099  0.00  0.00    +0.160 C 
ATOM      6  N   LIG    1        2.181   1.216  -0.050  0.00  0.00    -0.490 NA
ENDROOT
BRANCH   1  10
ATOM      7  C   LIG    1        2.370   6.300  -0.008  0.00  0.00    +0.140 A 
ATOM      8  C   LIG    1        1.381   5.847   0.854  0.00  0.00    -0.010 A 
ATOM      9  C   LIG    1        1.025   4.514   0.858  0.00  0.00    +0.070 A 
ATOM     10  C   LIG    1        1.660   3.622  -0.005  0.00  0.00    -0.060 A 
ATOM     11  C   LIG    1        2.657   4.079  -0.866  0.00  0.00    +0.080 A 
ATOM     12  C   LIG    1        3.004   5.414  -0.869  0.00  0.00    -0.080 A 
BRANCH   7  14
ATOM     13  C   LIG    1        3.743   8.012  -0.922  0.00  0.00    +0.250 C 
ATOM     14  O   LIG    1        2.718   7.614  -0.010  0.00  0.00    -0.320 OA
ENDBRANCH   7  14
ENDBRANCH   1  10
BRANCH   4  15
ATOM     15  N   LIG    1        2.520  -1.145  -0.087  0.00  0.00    -0.610 N 
ATOM     16  H   LIG    1        3.487  -1.068  -0.126  0.00  0.00    +0.430 HD
ATOM     17  C   LIG    1        1.941  -2.361  -0.075  0.00  0.00    +0.580 C 
ATOM     18  O   LIG    1        0.730  -2.458  -0.026  0.00  0.00    -0.500 OA
BRANCH  17  19
ATOM     19  C   LIG    1        2.777  -3.577  -0.121  0.00  0.00    -0.160 A 
ATOM     20  C   LIG    1        2.190  -4.809  -0.103  0.00  0.00    +0.350 A 
ATOM     21  N   LIG    1        2.951  -5.933  -0.151  0.00  0.00    -0.400 N 
ATOM     22  C   LIG    1        2.660  -7.264  -0.152  0.00  0.00    +0.160 A 
ATOM     23  N   LIG    1        3.794  -7.914  -0.205  0.00  0.00    -0.240 NA
ATOM     24  N   LIG    1        4.781  -7.089  -0.237  0.00  0.00    -0.270 NA
ATOM     25  C   LIG    1        1.284  -7.876  -0.101  0.00  0.00    +0.200 C 
ATOM     26  C   LIG    1        4.322  -5.849  -0.207  0.00  0.00    +0.200 A 
ATOM     27  C   LIG    1        4.950  -4.586  -0.220  0.00  0.00    +0.110 A 
ATOM     28  C   LIG    1        4.190  -3.464  -0.178  0.00  0.00    +0.070 A 
ENDBRANCH  17  19
ENDBRANCH   4  15
TORSDOF 4
