REMARK  Name = ZINCrH00000tj18a.0
REMARK                            x       y       z     vdW  Elec       q    Type
REMARK                         _______ _______ _______ _____ _____    ______ ____
ROOT
ATOM      1  N   LIG    1       -1.248   3.279  -0.862  0.00  0.00    -0.680 N 
ATOM      2  H   LIG    1       -0.387   3.684  -1.049  0.00  0.00    +0.400 HD
ENDROOT
BRANCH   1   3
ATOM      3  C   LIG    1       -1.333   2.113   0.020  0.00  0.00    +0.310 C 
ATOM      4  C   LIG    1       -1.649   2.572   1.444  0.00  0.00    +0.050 C 
BRANCH   3   8
ATOM      5  C   LIG    1        2.405   0.035  -0.021  0.00  0.00    +0.110 A 
ATOM      6  C   LIG    1        2.379   1.420  -0.013  0.00  0.00    -0.030 A 
ATOM      7  C   LIG    1        1.169   2.089   0.002  0.00  0.00    +0.010 A 
ATOM      8  C   LIG    1       -0.017   1.379   0.010  0.00  0.00    -0.090 A 
ATOM      9  C   LIG    1        0.002  -0.004   0.002  0.00  0.00    -0.020 A 
ATOM     10  C   LIG    1        1.211  -0.680  -0.013  0.00  0.00    +0.110 A 
BRANCH   5  11
ATOM     11  O   LIG    1        3.594  -0.624  -0.035  0.00  0.00    -0.300 OA
BRANCH  11  13
ATOM     12  C   LIG    1        6.008  -0.736  -0.059  0.00  0.00    +0.070 C 
ATOM     13  C   LIG    1        4.779   0.175  -0.042  0.00  0.00    +0.170 C 
ENDBRANCH  11  13
ENDBRANCH   5  11
BRANCH  10  14
ATOM     14  O   LIG    1        1.231  -2.040  -0.020  0.00  0.00    -0.300 OA
BRANCH  14  15
ATOM     15  C   LIG    1       -0.032  -2.708  -0.011  0.00  0.00    +0.170 C 
ATOM     16  C   LIG    1        0.191  -4.221  -0.021  0.00  0.00    +0.070 C 
ENDBRANCH  14  15
ENDBRANCH  10  14
ENDBRANCH   3   8
ENDBRANCH   1   3
BRANCH   1  17
ATOM     17  C   LIG    1       -2.367   3.790  -1.414  0.00  0.00    +0.560 C 
ATOM     18  S   LIG    1       -3.887   3.075  -1.084  0.00  0.00    -0.640 S 
BRANCH  17  19
ATOM     19  N   LIG    1       -2.289   4.863  -2.225  0.00  0.00    -0.690 N 
ATOM     20  H   LIG    1       -1.428   5.268  -2.412  0.00  0.00    +0.400 HD
BRANCH  19  21
ATOM     21  C   LIG    1       -3.505   5.418  -2.825  0.00  0.00    +0.300 C 
BRANCH  21  22
ATOM     22  C   LIG    1       -3.141   6.622  -3.695  0.00  0.00    +0.010 C 
BRANCH  22  23
ATOM     23  C   LIG    1       -4.411   7.202  -4.321  0.00  0.00    +0.020 C 
BRANCH  23  24
ATOM     24  C   LIG    1       -4.047   8.406  -5.192  0.00  0.00    +0.030 C 
BRANCH  24  25
ATOM     25  C   LIG    1       -5.317   8.986  -5.818  0.00  0.00    +0.110 C 
BRANCH  25  26
ATOM     26  C   LIG    1       -4.958  10.172  -6.675  0.00  0.00    +0.460 C 
ATOM     27  O   LIG    1       -3.805  10.518  -6.776  0.00  0.00    -0.510 OA
BRANCH  26  28
ATOM     28  O   LIG    1       -5.920  10.844  -7.328  0.00  0.00    -0.360 OA
ATOM     29  C   LIG    1       -5.501  11.975  -8.135  0.00  0.00    +0.250 C 
ENDBRANCH  26  28
ENDBRANCH  25  26
ENDBRANCH  24  25
ENDBRANCH  23  24
ENDBRANCH  22  23
ENDBRANCH  21  22
ENDBRANCH  19  21
ENDBRANCH  17  19
ENDBRANCH   1  17
TORSDOF 15
