REMARK  Name = ZINCtV00000L6k7g.0
REMARK                            x       y       z     vdW  Elec       q    Type
REMARK                         _______ _______ _______ _____ _____    ______ ____
ROOT
ATOM      1  P   LIG    1        2.310   2.438   4.489  0.00  0.00    +2.750 P 
ATOM      2  N   LIG    1        3.627   2.377   3.668  0.00  0.00    -1.210 NA
ENDROOT
BRANCH   1   9
ATOM      3  C   LIG    1       -0.965   2.879   5.089  0.00  0.00    +0.170 C 
ATOM      4  C   LIG    1       -0.450   2.554   3.710  0.00  0.00    +0.140 A 
ATOM      5  N   LIG    1       -1.178   2.412   2.632  0.00  0.00    -0.280 NA
ATOM      6  N   LIG    1       -0.324   2.121   1.561  0.00  0.00    -0.310 N 
ATOM      7  C   LIG    1        0.942   2.085   2.037  0.00  0.00    +0.220 A 
ATOM      8  C   LIG    1        2.185   1.804   1.234  0.00  0.00    +0.160 C 
ATOM      9  C   LIG    1        0.891   2.353   3.362  0.00  0.00    -0.900 A 
BRANCH   6  10
ATOM     10  C   LIG    1       -0.712   1.903   0.232  0.00  0.00    +0.140 A 
ATOM     11  C   LIG    1       -1.760   2.631  -0.315  0.00  0.00    +0.020 A 
ATOM     12  C   LIG    1       -2.136   2.419  -1.627  0.00  0.00    +0.040 A 
ATOM     13  C   LIG    1       -1.478   1.474  -2.392  0.00  0.00    +0.020 A 
ATOM     14  C   LIG    1       -0.437   0.744  -1.849  0.00  0.00    +0.040 A 
ATOM     15  C   LIG    1       -0.052   0.956  -0.539  0.00  0.00    +0.000 A 
ENDBRANCH   6  10
ENDBRANCH   1   9
BRANCH   2  16
ATOM     16  C   LIG    1        3.927   3.354   2.824  0.00  0.00    +0.300 A 
ATOM     17  C   LIG    1        2.911   4.210   2.329  0.00  0.00    -0.180 A 
ATOM     18  C   LIG    1        3.237   5.213   1.466  0.00  0.00    +0.050 A 
ATOM     19  C   LIG    1        4.554   5.394   1.061  0.00  0.00    -0.080 A 
ATOM     20  C   LIG    1        5.561   4.562   1.532  0.00  0.00    +0.060 A 
ATOM     21  C   LIG    1        5.269   3.551   2.402  0.00  0.00    -0.110 A 
ATOM     22 CL   LIG    1        6.530   2.513   2.990  0.00  0.00    -0.080 Cl
ENDBRANCH   2  16
BRANCH   1  23
ATOM     23  C   LIG    1        2.249   4.000   5.427  0.00  0.00    -0.690 C 
ATOM     24  C   LIG    1        3.164   5.030   4.762  0.00  0.00    +0.070 C 
ATOM     25  C   LIG    1        2.719   3.752   6.862  0.00  0.00    +0.060 C 
ATOM     26  C   LIG    1        0.814   4.529   5.444  0.00  0.00    +0.050 C 
ENDBRANCH   1  23
BRANCH   1  27
ATOM     27  N   LIG    1        2.255   1.139   5.558  0.00  0.00    -0.930 NA
ATOM     28  C   LIG    1        3.512   1.022   6.309  0.00  0.00    +0.250 C 
ATOM     29  C   LIG    1        1.946  -0.112   4.852  0.00  0.00    +0.240 C 
ENDBRANCH   1  27
TORSDOF 5
