REMARK  Name = ZINCqH0000000w3E.0
REMARK                            x       y       z     vdW  Elec       q    Type
REMARK                         _______ _______ _______ _____ _____    ______ ____
ROOT
ATOM      1  C   LIG    1       -0.538   3.910  -2.109  0.00  0.00    +0.520 C 
ATOM      2  N   LIG    1       -0.903   3.081  -1.111  0.00  0.00    -0.620 N 
ATOM      3  C   LIG    1       -0.721   1.627  -1.232  0.00  0.00    +0.300 C 
ATOM      4  C   LIG    1        0.018   1.123   0.012  0.00  0.00    +0.190 C 
ATOM      5  N   LIG    1       -0.701   1.560   1.216  0.00  0.00    -0.480 N 
ATOM      6  C   LIG    1       -0.724   3.025   1.320  0.00  0.00    +0.190 C 
ATOM      7  C   LIG    1       -1.494   3.607   0.129  0.00  0.00    +0.290 C 
ATOM      8  O   LIG    1       -0.052   3.459  -3.124  0.00  0.00    -0.540 OA
ENDROOT
BRANCH   5   9
ATOM      9  C   LIG    1       -0.151   0.985   2.365  0.00  0.00    +0.110 A 
ATOM     10  C   LIG    1        0.495   1.780   3.300  0.00  0.00    -0.030 A 
ATOM     11  C   LIG    1        1.032   1.209   4.438  0.00  0.00    +0.040 A 
ATOM     12  C   LIG    1        0.937  -0.155   4.639  0.00  0.00    +0.000 A 
ATOM     13  C   LIG    1        0.299  -0.953   3.707  0.00  0.00    +0.050 A 
ATOM     14  C   LIG    1       -0.246  -0.387   2.570  0.00  0.00    -0.050 A 
ATOM     15 CL   LIG    1       -1.047  -1.388   1.400  0.00  0.00    -0.060 Cl
ENDBRANCH   5   9
BRANCH   1  16
ATOM     16  C   LIG    1       -0.733   5.397  -1.963  0.00  0.00    +0.060 C 
BRANCH  16  17
ATOM     17  C   LIG    1       -0.240   6.103  -3.228  0.00  0.00    +0.180 C 
BRANCH  17  21
ATOM     18  C   LIG    1       -0.166   9.774  -2.631  0.00  0.00    -0.280 A 
ATOM     19  C   LIG    1       -1.399   9.572  -3.187  0.00  0.00    +0.090 A 
ATOM     20  O   LIG    1       -1.532   8.270  -3.451  0.00  0.00    -0.170 OA
ATOM     21  C   LIG    1       -0.435   7.590  -3.082  0.00  0.00    -0.010 A 
ATOM     22  C   LIG    1       -2.429  10.637  -3.461  0.00  0.00    +0.190 C 
ATOM     23  C   LIG    1        0.462   8.444  -2.568  0.00  0.00    -0.010 A 
BRANCH  18  25
ATOM     24  C   LIG    1        1.795  11.083  -1.595  0.00  0.00    +0.080 C 
ATOM     25  C   LIG    1        0.410  11.048  -2.190  0.00  0.00    +0.420 C 
ATOM     26  O   LIG    1       -0.227  12.074  -2.304  0.00  0.00    -0.470 OA
ENDBRANCH  18  25
ENDBRANCH  17  21
ENDBRANCH  16  17
ENDBRANCH   1  16
TORSDOF 5
