REMARK  Name = ZINCvU0000000EiD.0
REMARK                            x       y       z     vdW  Elec       q    Type
REMARK                         _______ _______ _______ _____ _____    ______ ____
ROOT
ATOM      1  C   LIG    1       -4.551  -3.362   0.096  0.00  0.00    +0.120 A 
ATOM      2  N   LIG    1       -3.565  -2.523  -0.046  0.00  0.00    -0.460 NA
ATOM      3  C   LIG    1       -2.352  -2.971   0.226  0.00  0.00    +0.120 A 
ATOM      4  C   LIG    1       -2.286  -4.262   0.617  0.00  0.00    -0.030 A 
ATOM      5  S   LIG    1       -3.922  -4.916   0.636  0.00  0.00    +0.130 S 
ENDROOT
BRANCH   3   6
ATOM      6  C   LIG    1       -1.147  -2.118   0.104  0.00  0.00    -0.150 A 
ATOM      7  C   LIG    1       -1.236  -0.807  -0.300  0.00  0.00    +0.180 A 
ATOM      8  C   LIG    1        0.014  -0.047  -0.388  0.00  0.00    -0.150 A 
ATOM      9  C   LIG    1       -0.001   1.346  -0.524  0.00  0.00    +0.090 A 
ATOM     10  C   LIG    1        1.179   2.032  -0.599  0.00  0.00    +0.000 A 
ATOM     11  C   LIG    1        2.391   1.359  -0.540  0.00  0.00    +0.070 A 
ATOM     12  C   LIG    1        2.427  -0.015  -0.408  0.00  0.00    +0.020 A 
ATOM     13  C   LIG    1        1.242  -0.732  -0.333  0.00  0.00    +0.130 A 
ATOM     14  O   LIG    1        1.257  -2.080  -0.211  0.00  0.00    -0.270 OA
ATOM     15  C   LIG    1        0.196  -2.638   0.413  0.00  0.00    +0.530 A 
ATOM     16  O   LIG    1        0.346  -3.546   1.209  0.00  0.00    -0.430 OA
ENDBRANCH   3   6
BRANCH   1  18
ATOM     17  C   LIG    1       -6.919  -4.024   0.029  0.00  0.00    +0.190 C 
ATOM     18  C   LIG    1       -5.971  -3.058  -0.155  0.00  0.00    -0.020 C 
BRANCH  17  22
ATOM     19  C   LIG    1      -11.022  -3.045  -0.273  0.00  0.00    +0.250 A 
ATOM     20  C   LIG    1      -10.588  -4.326  -0.603  0.00  0.00    -0.080 A 
ATOM     21  C   LIG    1       -9.264  -4.647  -0.508  0.00  0.00    +0.100 A 
ATOM     22  C   LIG    1       -8.341  -3.684  -0.076  0.00  0.00    -0.170 A 
ATOM     23  C   LIG    1       -8.783  -2.398   0.261  0.00  0.00    +0.080 A 
ATOM     24  C   LIG    1      -10.109  -2.085   0.156  0.00  0.00    -0.070 A 
BRANCH  19  25
ATOM     25  N   LIG    1      -12.372  -2.723  -0.372  0.00  0.00    -0.620 N 
BRANCH  25  27
ATOM     26  C   LIG    1      -12.791  -0.487  -1.270  0.00  0.00    +0.020 C 
ATOM     27  C   LIG    1      -12.831  -1.376  -0.025  0.00  0.00    +0.270 C 
ENDBRANCH  25  27
BRANCH  25  28
ATOM     28  C   LIG    1      -13.334  -3.731  -0.823  0.00  0.00    +0.270 C 
ATOM     29  C   LIG    1      -13.870  -4.502   0.385  0.00  0.00    +0.020 C 
ENDBRANCH  25  28
ENDBRANCH  19  25
ENDBRANCH  17  22
BRANCH  18  30
ATOM     30  C   LIG    1       -6.357  -1.751  -0.594  0.00  0.00    +0.270 C 
ATOM     31  N   LIG    1       -6.663  -0.714  -0.941  0.00  0.00    -0.410 NA
ENDBRANCH  18  30
ENDBRANCH   1  18
TORSDOF 7
