REMARK  Name = ZINCqH00000053Eu.0
REMARK                            x       y       z     vdW  Elec       q    Type
REMARK                         _______ _______ _______ _____ _____    ______ ____
ROOT
ATOM      1  C   LIG    1        6.499   1.790  -0.432  0.00  0.00    +0.070 A 
ATOM      2  N   LIG    1        6.242   2.157   0.789  0.00  0.00    -0.250 NA
ATOM      3  N   LIG    1        4.993   2.795   0.796  0.00  0.00    -0.510 NA
ATOM      4  C   LIG    1        4.534   2.769  -0.495  0.00  0.00    +0.440 A 
ATOM      5  N   LIG    1        3.401   3.256  -0.926  0.00  0.00    -0.650 NA
ATOM      6  O   LIG    1        5.474   2.150  -1.237  0.00  0.00    -0.290 OA
ENDROOT
BRANCH   5   7
ATOM      7  C   LIG    1        2.478   3.904   0.010  0.00  0.00    +0.220 C 
ATOM      8  C   LIG    1        2.257   5.357  -0.417  0.00  0.00    +0.000 C 
ATOM      9  C   LIG    1        1.078   5.921   0.386  0.00  0.00    +0.220 C 
ATOM     10  O   LIG    1       -0.101   5.203   0.020  0.00  0.00    -0.320 OA
ATOM     11  C   LIG    1       -0.043   3.846   0.019  0.00  0.00    +0.130 A 
ATOM     12  C   LIG    1       -1.236   3.131   0.029  0.00  0.00    -0.030 A 
ATOM     13  C   LIG    1       -1.219   1.751   0.017  0.00  0.00    +0.020 A 
ATOM     14  C   LIG    1       -0.013   1.076   0.008  0.00  0.00    -0.040 A 
ATOM     15  C   LIG    1        1.174   1.783   0.000  0.00  0.00    +0.060 A 
ATOM     16  C   LIG    1        1.163   3.167   0.008  0.00  0.00    -0.130 A 
ENDBRANCH   5   7
BRANCH   1  20
ATOM     17  C   LIG    1       10.014  -0.232  -1.696  0.00  0.00    -0.200 A 
ATOM     18  C   LIG    1        9.856   0.108  -0.364  0.00  0.00    +0.040 A 
ATOM     19  C   LIG    1        8.717   0.764   0.053  0.00  0.00    +0.040 A 
ATOM     20  C   LIG    1        7.723   1.086  -0.872  0.00  0.00    +0.090 A 
ATOM     21  C   LIG    1        7.886   0.735  -2.213  0.00  0.00    +0.030 A 
ATOM     22  C   LIG    1        9.033   0.084  -2.618  0.00  0.00    +0.050 A 
BRANCH  17  23
ATOM     23  C   LIG    1       11.262  -0.949  -2.144  0.00  0.00    +0.310 C 
BRANCH  23  25
ATOM     24  C   LIG    1       12.222  -3.099  -2.601  0.00  0.00    +0.310 C 
ATOM     25  N   LIG    1       11.052  -2.400  -2.052  0.00  0.00    -0.390 N 
ATOM     26  C   LIG    1       10.870  -2.780  -0.645  0.00  0.00    +0.320 C 
ATOM     27  H   LIG    1       10.230  -2.655  -2.579  0.00  0.00    +0.430 HD
ENDBRANCH  23  25
ENDBRANCH  17  23
ENDBRANCH   1  20
TORSDOF 4
