REMARK  Name = ZINCkj000005grFY.2
REMARK                            x       y       z     vdW  Elec       q    Type
REMARK                         _______ _______ _______ _____ _____    ______ ____
ROOT
ATOM      1  N   LIG    1        6.922  -4.074   3.540  0.00  0.00    -0.390 N 
ATOM      2  C   LIG    1        7.172  -3.882   2.105  0.00  0.00    +0.280 C 
ATOM      3  C   LIG    1        6.499  -2.590   1.638  0.00  0.00    +0.220 C 
ATOM      4  N   LIG    1        5.054  -2.674   1.894  0.00  0.00    -0.540 NA
ATOM      5  C   LIG    1        4.789  -2.891   3.323  0.00  0.00    +0.200 C 
ATOM      6  C   LIG    1        5.476  -4.181   3.776  0.00  0.00    +0.270 C 
ATOM      7  H   LIG    1        7.290  -3.287   4.053  0.00  0.00    +0.420 HD
ENDROOT
BRANCH   1   8
ATOM      8  C   LIG    1        7.584  -5.306   3.991  0.00  0.00    +0.250 C 
BRANCH   8   9
ATOM      9  C   LIG    1        7.429  -5.441   5.508  0.00  0.00    -0.030 C 
ATOM     10  C   LIG    1        8.178  -4.301   6.201  0.00  0.00    +0.040 C 
BRANCH   9  12
ATOM     11  C   LIG    1        7.742  -6.973   7.456  0.00  0.00    +0.030 C 
ATOM     12  C   LIG    1        8.008  -6.782   5.962  0.00  0.00    +0.020 C 
ENDBRANCH   9  12
ENDBRANCH   8   9
ENDBRANCH   1   8
BRANCH   4  13
ATOM     13  C   LIG    1        4.363  -1.473   1.407  0.00  0.00    +0.200 C 
BRANCH  13  14
ATOM     14  C   LIG    1        2.850  -1.698   1.460  0.00  0.00    +0.180 C 
BRANCH  14  15
ATOM     15  N   LIG    1        2.159  -0.496   0.973  0.00  0.00    -0.540 NA
ATOM     16  C   LIG    1        0.743  -0.579   1.224  0.00  0.00    +0.170 C 
ATOM     17  C   LIG    1        0.002  -0.004   0.002  0.00  0.00    +0.010 C 
ATOM     18  C   LIG    1       -0.018   1.459   0.010  0.00  0.00    +0.200 C 
ATOM     19  O   LIG    1        1.321   2.003   0.000  0.00  0.00    -0.360 OA
ATOM     20  C   LIG    1        1.926   1.984   1.262  0.00  0.00    +0.200 C 
ATOM     21  C   LIG    1        2.800   0.736   1.499  0.00  0.00    +0.150 C 
ENDBRANCH  14  15
ENDBRANCH  13  14
ENDBRANCH   4  13
TORSDOF 6
