REMARK  Name = ZINCrH000004s8xh.0
REMARK                            x       y       z     vdW  Elec       q    Type
REMARK                         _______ _______ _______ _____ _____    ______ ____
ROOT
ATOM      1  C   LIG    1        1.174   1.771   0.009  0.00  0.00    +0.130 A 
ATOM      2  C   LIG    1       -0.007   1.050   0.143  0.00  0.00    +0.010 A 
ATOM      3  C   LIG    1       -1.218   1.706   0.162  0.00  0.00    +0.060 A 
ATOM      4  C   LIG    1       -1.258   3.098   0.054  0.00  0.00    -0.140 A 
ATOM      5  C   LIG    1       -0.069   3.820  -0.082  0.00  0.00    +0.110 A 
ATOM      6  C   LIG    1        1.138   3.156  -0.103  0.00  0.00    +0.020 A 
ENDROOT
BRANCH   4   7
ATOM      7  C   LIG    1       -2.553   3.805   0.078  0.00  0.00    +0.560 C 
ATOM      8  N   LIG    1       -3.699   3.108   0.209  0.00  0.00    -0.720 N 
ATOM      9  H   LIG    1       -3.673   2.142   0.287  0.00  0.00    +0.400 HD
ATOM     10  O   LIG    1       -2.587   5.017  -0.020  0.00  0.00    -0.530 OA
BRANCH   8  11
ATOM     11  C   LIG    1       -4.985   3.810   0.233  0.00  0.00    +0.370 C 
BRANCH  11  12
ATOM     12  C   LIG    1       -6.101   2.809   0.387  0.00  0.00    +0.060 A 
ATOM     13  C   LIG    1       -6.682   2.435   1.550  0.00  0.00    -0.090 A 
ATOM     14  C   LIG    1       -7.671   1.492   1.253  0.00  0.00    +0.100 A 
ATOM     15  N   LIG    1       -7.678   1.300  -0.041  0.00  0.00    -0.280 NA
ATOM     16  N   LIG    1       -6.695   2.120  -0.610  0.00  0.00    -0.360 N 
ATOM     17  C   LIG    1       -6.371   2.214  -2.035  0.00  0.00    +0.360 C 
BRANCH  14  18
ATOM     18  C   LIG    1       -8.570   0.810   2.252  0.00  0.00    +0.040 C 
ATOM     19  C   LIG    1       -8.166   0.875   3.726  0.00  0.00    +0.040 C 
ATOM     20  C   LIG    1       -8.030  -0.439   2.952  0.00  0.00    +0.030 C 
ENDBRANCH  14  18
ENDBRANCH  11  12
ENDBRANCH   8  11
ENDBRANCH   4   7
BRANCH   1  21
ATOM     21  O   LIG    1        2.365   1.121  -0.014  0.00  0.00    -0.250 OA
BRANCH  21  28
ATOM     22  C   LIG    1        4.733  -0.422   0.080  0.00  0.00    +0.100 C 
ATOM     23  C   LIG    1        3.813  -0.405  -1.114  0.00  0.00    -0.140 A 
ATOM     24  C   LIG    1        4.105  -1.164  -2.234  0.00  0.00    +0.090 A 
ATOM     25  C   LIG    1        3.230  -1.117  -3.311  0.00  0.00    -0.060 A 
ATOM     26  C   LIG    1        2.104  -0.322  -3.233  0.00  0.00    +0.290 A 
ATOM     27  N   LIG    1        1.850   0.386  -2.150  0.00  0.00    -0.520 NA
ATOM     28  C   LIG    1        2.662   0.373  -1.106  0.00  0.00    +0.310 A 
ENDBRANCH  21  28
ENDBRANCH   1  21
TORSDOF 6
