REMARK  Name = ZINCqH0000000ntJ.0
REMARK                            x       y       z     vdW  Elec       q    Type
REMARK                         _______ _______ _______ _____ _____    ______ ____
ROOT
ATOM      1  C   LIG    1       -2.496   4.111  -0.042  0.00  0.00    +0.520 C 
ATOM      2  N   LIG    1       -1.309   3.477   0.039  0.00  0.00    -0.650 N 
ATOM      3  H   LIG    1       -0.488   3.990   0.096  0.00  0.00    +0.420 HD
ATOM      4  O   LIG    1       -3.527   3.472  -0.031  0.00  0.00    -0.490 OA
ENDROOT
BRANCH   2   5
ATOM      5  C   LIG    1       -1.262   2.081   0.042  0.00  0.00    +0.160 A 
ATOM      6  C   LIG    1       -2.260   1.354   0.652  0.00  0.00    +0.040 A 
ATOM      7  C   LIG    1       -2.224  -0.038   0.662  0.00  0.00    +0.040 A 
ATOM      8  C   LIG    1       -1.206  -0.717   0.066  0.00  0.00    +0.020 A 
ATOM      9  C   LIG    1       -0.172  -0.012  -0.571  0.00  0.00    -0.090 A 
ATOM     10  C   LIG    1        0.895  -0.684  -1.197  0.00  0.00    +0.090 A 
ATOM     11  C   LIG    1        1.866   0.065  -1.797  0.00  0.00    -0.030 A 
ATOM     12  C   LIG    1        1.782   1.455  -1.778  0.00  0.00    +0.290 A 
ATOM     13  N   LIG    1        0.787   2.078  -1.194  0.00  0.00    -0.480 NA
ATOM     14  C   LIG    1       -0.195   1.404  -0.590  0.00  0.00    +0.110 A 
ENDBRANCH   2   5
BRANCH   1  15
ATOM     15  C   LIG    1       -2.542   5.613  -0.147  0.00  0.00    +0.250 C 
BRANCH  15  16
ATOM     16  O   LIG    1       -3.902   6.044  -0.220  0.00  0.00    -0.290 OA
BRANCH  16  20
ATOM     17  C   LIG    1       -4.568  10.104  -0.521  0.00  0.00    -0.120 A 
ATOM     18  C   LIG    1       -5.638   9.230  -0.495  0.00  0.00    +0.060 A 
ATOM     19  C   LIG    1       -5.418   7.870  -0.394  0.00  0.00    -0.010 A 
ATOM     20  C   LIG    1       -4.122   7.382  -0.319  0.00  0.00    +0.120 A 
ATOM     21  C   LIG    1       -3.049   8.262  -0.340  0.00  0.00    -0.080 A 
ATOM     22  C   LIG    1       -3.275   9.621  -0.446  0.00  0.00    +0.050 A 
BRANCH  17  23
ATOM     23  C   LIG    1       -4.811  11.588  -0.631  0.00  0.00    +0.090 C 
BRANCH  23  24
ATOM     24  C   LIG    1       -4.939  12.189   0.770  0.00  0.00    +0.030 C 
BRANCH  24  26
ATOM     25  C   LIG    1       -5.344  14.503   1.907  0.00  0.00    +0.050 C 
ATOM     26  C   LIG    1       -5.182  13.672   0.660  0.00  0.00    +0.350 C 
ATOM     27  O   LIG    1       -5.246  14.194  -0.426  0.00  0.00    -0.460 OA
ENDBRANCH  24  26
ENDBRANCH  23  24
ENDBRANCH  17  23
ENDBRANCH  16  20
ENDBRANCH  15  16
ENDBRANCH   1  15
TORSDOF 7
