REMARK  Name = ZINCrD00000hQ7dh.0
REMARK                            x       y       z     vdW  Elec       q    Type
REMARK                         _______ _______ _______ _____ _____    ______ ____
ROOT
ATOM      1  C   LIG    1        2.422   1.186  -0.015  0.00  0.00    +0.280 C 
ENDROOT
BRANCH   1   2
ATOM      2  N   LIG    1        1.143   1.901   0.001  0.00  0.00    -0.720 N 
ATOM      3  H   LIG    1        1.130   2.871   0.007  0.00  0.00    +0.410 HD
ATOM      4  C   LIG    1       -0.014   1.212   0.009  0.00  0.00    +0.600 C 
ATOM      5  O   LIG    1        0.002  -0.004   0.002  0.00  0.00    -0.510 OA
BRANCH   4   6
ATOM      6  C   LIG    1       -1.304   1.933   0.019  0.00  0.00    +0.030 A 
ATOM      7  N   LIG    1       -1.471   3.240   0.026  0.00  0.00    -0.250 NA
ATOM      8  N   LIG    1       -2.724   3.524   0.033  0.00  0.00    -0.280 N 
ATOM      9  C   LIG    1       -3.459   2.392   0.031  0.00  0.00    +0.260 A 
ATOM     10  C   LIG    1       -3.275   4.881   0.042  0.00  0.00    +0.370 C 
ATOM     11  C   LIG    1       -2.594   1.351   0.016  0.00  0.00    -0.260 A 
BRANCH  11  12
ATOM     12  C   LIG    1       -2.932  -0.117   0.002  0.00  0.00    +0.550 C 
ATOM     13  F   LIG    1       -2.392  -0.731   1.137  0.00  0.00    -0.170 F 
ATOM     14  F   LIG    1       -2.397  -0.708  -1.147  0.00  0.00    -0.170 F 
ATOM     15  F   LIG    1       -4.322  -0.275   0.004  0.00  0.00    -0.180 F 
ENDBRANCH  11  12
ENDBRANCH   4   6
ENDBRANCH   1   2
BRANCH   1  16
ATOM     16  C   LIG    1        3.571   2.196  -0.020  0.00  0.00    +0.130 C 
BRANCH  16  19
ATOM     17  C   LIG    1        6.481   0.116   0.508  0.00  0.00    +0.240 A 
ATOM     18  N   LIG    1        5.283   0.531   0.846  0.00  0.00    -0.470 NA
ATOM     19  C   LIG    1        4.886   1.460  -0.037  0.00  0.00    -0.010 A 
ATOM     20  C   LIG    1        5.874   1.623  -0.936  0.00  0.00    +0.160 A 
ATOM     21  O   LIG    1        6.869   0.781  -0.594  0.00  0.00    -0.190 OA
BRANCH  17  26
ATOM     22  C   LIG    1        9.563  -3.870   3.287  0.00  0.00    +0.100 C 
ATOM     23  C   LIG    1        8.756  -2.826   2.559  0.00  0.00    -0.060 A 
ATOM     24  C   LIG    1        9.276  -2.216   1.432  0.00  0.00    +0.010 A 
ATOM     25  C   LIG    1        8.542  -1.260   0.761  0.00  0.00    +0.050 A 
ATOM     26  C   LIG    1        7.273  -0.909   1.222  0.00  0.00    -0.030 A 
ATOM     27  C   LIG    1        6.756  -1.524   2.363  0.00  0.00    +0.080 A 
ATOM     28  C   LIG    1        7.498  -2.482   3.022  0.00  0.00    +0.010 A 
ENDBRANCH  17  26
ENDBRANCH  16  19
ENDBRANCH   1  16
TORSDOF 6
