REMARK  Name = ZINCAx0000000hb5.0
REMARK                            x       y       z     vdW  Elec       q    Type
REMARK                         _______ _______ _______ _____ _____    ______ ____
ROOT
ATOM      1  C   LIG    1        1.419  -0.630  -0.142  0.00  0.00    -0.130 A 
ATOM      2  C   LIG    1        2.566   0.161  -0.248  0.00  0.00    +0.160 A 
ATOM      3  C   LIG    1        3.802  -0.434  -0.371  0.00  0.00    -0.690 A 
ATOM      4  C   LIG    1        3.916  -1.815  -0.392  0.00  0.00    +0.170 A 
ATOM      5  C   LIG    1        2.793  -2.610  -0.288  0.00  0.00    -0.040 A 
ATOM      6  C   LIG    1        1.538  -2.028  -0.157  0.00  0.00    +0.210 A 
ENDROOT
BRANCH   6   7
ATOM      7  N   LIG    1        0.407  -2.827  -0.047  0.00  0.00    -0.490 N 
ATOM      8  C   LIG    1        0.448  -3.631   1.183  0.00  0.00    +0.170 C 
ATOM      9  C   LIG    1       -0.842  -4.449   1.295  0.00  0.00    +0.240 C 
ATOM     10  O   LIG    1       -0.991  -5.257   0.124  0.00  0.00    -0.380 OA
ATOM     11  C   LIG    1       -1.035  -4.506  -1.092  0.00  0.00    +0.240 C 
ATOM     12  C   LIG    1        0.253  -3.688  -1.228  0.00  0.00    +0.160 C 
ENDBRANCH   6   7
BRANCH   1  14
ATOM     13  O   LIG    1       -0.903  -0.692   0.082  0.00  0.00    -0.470 OA
ATOM     14  C   LIG    1        0.093   0.000  -0.010  0.00  0.00    +0.560 C 
ATOM     15  N   LIG    1       -0.016   1.344   0.009  0.00  0.00    -0.660 N 
ATOM     16  H   LIG    1        0.782   1.895   0.015  0.00  0.00    +0.410 HD
BRANCH  15  17
ATOM     17  C   LIG    1       -1.282   1.944   0.016  0.00  0.00    +0.180 A 
ATOM     18  C   LIG    1       -2.376   1.265  -0.500  0.00  0.00    +0.020 A 
ATOM     19  C   LIG    1       -3.624   1.859  -0.493  0.00  0.00    +0.030 A 
ATOM     20  C   LIG    1       -3.787   3.129   0.029  0.00  0.00    -0.010 A 
ATOM     21  C   LIG    1       -2.702   3.813   0.546  0.00  0.00    +0.000 A 
ATOM     22  C   LIG    1       -1.447   3.223   0.546  0.00  0.00    +0.050 A 
BRANCH  22  23
ATOM     23  N   LIG    1       -0.349   3.911   1.074  0.00  0.00    -0.500 N 
ATOM     24  C   LIG    1       -0.522   4.155   2.513  0.00  0.00    +0.160 C 
ATOM     25  C   LIG    1        0.725   4.854   3.060  0.00  0.00    +0.220 C 
ATOM     26  O   LIG    1        0.946   6.064   2.329  0.00  0.00    -0.380 OA
ATOM     27  C   LIG    1        1.119   5.863   0.924  0.00  0.00    +0.220 C 
ATOM     28  C   LIG    1       -0.123   5.174   0.355  0.00  0.00    +0.160 C 
ENDBRANCH  22  23
ENDBRANCH  15  17
ENDBRANCH   1  14
BRANCH   3  29
ATOM     29  S   LIG    1        5.247   0.567  -0.504  0.00  0.00    +2.690 S 
ATOM     30  O   LIG    1        4.818   1.827  -1.002  0.00  0.00    -0.950 OA
ATOM     31  O   LIG    1        6.229  -0.231  -1.152  0.00  0.00    -0.950 OA
BRANCH  29  32
ATOM     32  N   LIG    1        5.801   0.835   1.033  0.00  0.00    -0.990 NA
ATOM     33  C   LIG    1        5.342   2.000   1.802  0.00  0.00    +0.290 C 
ATOM     34  C   LIG    1        4.797   1.510   3.152  0.00  0.00    +0.010 C 
ATOM     35  C   LIG    1        5.869   0.676   3.856  0.00  0.00    +0.020 C 
ATOM     36  C   LIG    1        6.208  -0.548   3.002  0.00  0.00    +0.010 C 
ATOM     37  C   LIG    1        6.765  -0.085   1.652  0.00  0.00    +0.290 C 
ENDBRANCH  29  32
ENDBRANCH   3  29
TORSDOF 6
