REMARK  Name = ZINCqH0000033swz.0
REMARK                            x       y       z     vdW  Elec       q    Type
REMARK                         _______ _______ _______ _____ _____    ______ ____
ROOT
ATOM      1  C   LIG    1        5.512   0.720  -2.475  0.00  0.00    +0.560 C 
ATOM      2  N   LIG    1        5.165   0.149  -1.304  0.00  0.00    -0.610 N 
ATOM      3  C   LIG    1        4.812  -1.272  -1.257  0.00  0.00    +0.300 C 
ATOM      4  O   LIG    1        5.728   1.915  -2.529  0.00  0.00    -0.530 OA
ENDROOT
BRANCH   1   8
ATOM      5  C   LIG    1        5.851  -1.659  -5.977  0.00  0.00    +0.180 A 
ATOM      6  C   LIG    1        4.791  -1.864  -5.099  0.00  0.00    +0.010 A 
ATOM      7  C   LIG    1        4.679  -1.095  -3.962  0.00  0.00    +0.070 A 
ATOM      8  C   LIG    1        5.630  -0.107  -3.692  0.00  0.00    -0.150 A 
ATOM      9  C   LIG    1        6.690   0.099  -4.579  0.00  0.00    +0.100 A 
ATOM     10  C   LIG    1        6.800  -0.677  -5.711  0.00  0.00    -0.010 A 
BRANCH   5  12
ATOM     11  C   LIG    1        4.852  -2.861  -7.765  0.00  0.00    +0.650 C 
ATOM     12  N   LIG    1        5.962  -2.439  -7.127  0.00  0.00    -0.650 N 
ATOM     13  H   LIG    1        6.838  -2.679  -7.468  0.00  0.00    +0.420 HD
ATOM     14  O   LIG    1        3.757  -2.491  -7.389  0.00  0.00    -0.550 OA
BRANCH  11  15
ATOM     15  O   LIG    1        4.956  -3.693  -8.818  0.00  0.00    -0.370 OA
BRANCH  15  17
ATOM     16  C   LIG    1        4.035  -5.043 -10.624  0.00  0.00    +0.080 C 
ATOM     17  C   LIG    1        3.719  -4.107  -9.457  0.00  0.00    +0.220 C 
ENDBRANCH  15  17
ENDBRANCH  11  15
ENDBRANCH   5  12
ENDBRANCH   1   8
BRANCH   2  18
ATOM     18  C   LIG    1        5.141   0.951  -0.078  0.00  0.00    +0.320 C 
BRANCH  18  19
ATOM     19  C   LIG    1        3.751   1.565   0.102  0.00  0.00    +0.180 C 
BRANCH  19  20
ATOM     20  O   LIG    1        2.794   0.524   0.312  0.00  0.00    -0.310 OA
BRANCH  20  21
ATOM     21  C   LIG    1        1.501   0.902   0.491  0.00  0.00    +0.120 A 
ATOM     22  C   LIG    1        0.519  -0.056   0.699  0.00  0.00    -0.020 A 
ATOM     23  C   LIG    1       -0.795   0.330   0.875  0.00  0.00    +0.050 A 
ATOM     24  C   LIG    1       -1.132   1.671   0.854  0.00  0.00    -0.130 A 
ATOM     25  C   LIG    1       -0.155   2.628   0.647  0.00  0.00    +0.040 A 
ATOM     26  C   LIG    1       -2.566   2.090   1.051  0.00  0.00    +0.090 C 
ATOM     27  C   LIG    1        1.160   2.247   0.465  0.00  0.00    -0.070 A 
ENDBRANCH  20  21
ENDBRANCH  19  20
ENDBRANCH  18  19
ENDBRANCH   2  18
TORSDOF 8
