REMARK  Name = ZINCpe000000UpXG.0
REMARK                            x       y       z     vdW  Elec       q    Type
REMARK                         _______ _______ _______ _____ _____    ______ ____
ROOT
ATOM      1  N   LIG    1       -0.433  -0.351  -5.288  0.00  0.00    -0.740 N 
ATOM      2  H   LIG    1        0.334  -0.944  -5.325  0.00  0.00    +0.400 HD
ATOM      3  C   LIG    1       -0.528   0.568  -4.307  0.00  0.00    +0.710 C 
ATOM      4  N   LIG    1        0.443   0.662  -3.377  0.00  0.00    -0.730 N 
ATOM      5  H   LIG    1        1.210   0.070  -3.414  0.00  0.00    +0.400 HD
ATOM      6  O   LIG    1       -1.489   1.311  -4.260  0.00  0.00    -0.590 OA
ENDROOT
BRANCH   4   7
ATOM      7  C   LIG    1        0.340   1.661  -2.309  0.00  0.00    +0.260 C 
ATOM      8  C   LIG    1        1.149   1.200  -1.094  0.00  0.00    +0.040 C 
ATOM      9  C   LIG    1        0.612   1.830   0.178  0.00  0.00    +0.020 C 
ATOM     10  C   LIG    1        0.809   3.333   0.247  0.00  0.00    +0.010 C 
ATOM     11  C   LIG    1       -0.041   4.043  -0.808  0.00  0.00    +0.270 C 
ATOM     12  N   LIG    1        0.717   4.091  -2.069  0.00  0.00    -0.720 N 
ATOM     13  H   LIG    1        1.084   4.934  -2.379  0.00  0.00    +0.400 HD
ATOM     14  C   LIG    1        0.903   2.983  -2.788  0.00  0.00    +0.510 C 
ATOM     15  O   LIG    1        1.524   3.034  -3.828  0.00  0.00    -0.540 OA
ENDBRANCH   4   7
BRANCH   1  16
ATOM     16  C   LIG    1       -1.489  -0.454  -6.299  0.00  0.00    +0.280 C 
BRANCH  16  17
ATOM     17  C   LIG    1       -1.139  -1.567  -7.290  0.00  0.00    +0.070 C 
BRANCH  17  22
ATOM     18  C   LIG    1       -4.303  -2.611  -9.085  0.00  0.00    -0.130 A 
ATOM     19  C   LIG    1       -4.213  -1.856 -10.255  0.00  0.00    +0.040 A 
ATOM     20  C   LIG    1       -3.134  -1.019 -10.452  0.00  0.00    +0.010 A 
ATOM     21  C   LIG    1       -2.142  -0.928  -9.493  0.00  0.00    +0.040 A 
ATOM     22  C   LIG    1       -2.225  -1.673  -8.329  0.00  0.00    -0.090 A 
ATOM     23  C   LIG    1       -3.296  -2.517  -8.122  0.00  0.00    +0.070 A 
BRANCH  18  26
ATOM     24  C   LIG    1       -7.849  -3.964  -8.930  0.00  0.00    +0.290 C 
ATOM     25  N   LIG    1       -6.692  -3.122  -9.241  0.00  0.00    -0.620 N 
ATOM     26  C   LIG    1       -5.457  -3.509  -8.867  0.00  0.00    +0.560 C 
ATOM     27  O   LIG    1       -5.291  -4.597  -8.351  0.00  0.00    -0.530 OA
ATOM     28  C   LIG    1       -6.878  -1.858  -9.958  0.00  0.00    +0.290 C 
ENDBRANCH  18  26
ENDBRANCH  17  22
ENDBRANCH  16  17
ENDBRANCH   1  16
TORSDOF 5
