REMARK  Name = ZINCqH0000007Q75.0
REMARK                            x       y       z     vdW  Elec       q    Type
REMARK                         _______ _______ _______ _____ _____    ______ ____
ROOT
ATOM      1  N   LIG    1        3.580  -0.813   0.092  0.00  0.00    -0.490 N 
ATOM      2  C   LIG    1        4.421  -0.285   1.176  0.00  0.00    +0.190 C 
ATOM      3  C   LIG    1        5.744  -1.054   1.212  0.00  0.00    +0.190 C 
ATOM      4  N   LIG    1        6.420  -0.922  -0.087  0.00  0.00    -0.520 NA
ATOM      5  C   LIG    1        5.579  -1.450  -1.171  0.00  0.00    +0.190 C 
ATOM      6  C   LIG    1        4.256  -0.682  -1.206  0.00  0.00    +0.200 C 
ENDROOT
BRANCH   1  12
ATOM      7  C   LIG    1        1.173  -0.918   0.318  0.00  0.00    +0.150 A 
ATOM      8  C   LIG    1       -0.060  -0.289   0.298  0.00  0.00    -0.080 A 
ATOM      9  C   LIG    1       -0.141   1.067   0.038  0.00  0.00    +0.050 A 
ATOM     10  C   LIG    1        1.007   1.798  -0.204  0.00  0.00    -0.030 A 
ATOM     11  C   LIG    1        2.242   1.177  -0.186  0.00  0.00    +0.020 A 
ATOM     12  C   LIG    1        2.331  -0.182   0.074  0.00  0.00    +0.050 A 
BRANCH   7  14
ATOM     13  C   LIG    1        0.026  -2.941   0.816  0.00  0.00    +0.220 C 
ATOM     14  O   LIG    1        1.254  -2.251   0.575  0.00  0.00    -0.300 OA
ENDBRANCH   7  14
ENDBRANCH   1  12
BRANCH   4  15
ATOM     15  C   LIG    1        7.731  -1.585  -0.068  0.00  0.00    +0.220 C 
BRANCH  15  16
ATOM     16  C   LIG    1        8.499  -1.213  -1.310  0.00  0.00    +0.520 C 
ATOM     17  N   LIG    1        9.681  -1.805  -1.574  0.00  0.00    -0.670 N 
ATOM     18  H   LIG    1       10.007  -2.514  -0.998  0.00  0.00    +0.420 HD
ATOM     19  O   LIG    1        8.054  -0.382  -2.073  0.00  0.00    -0.490 OA
BRANCH  17  20
ATOM     20  C   LIG    1       10.438  -1.396  -2.678  0.00  0.00    +0.170 A 
ATOM     21  C   LIG    1        9.803  -0.965  -3.835  0.00  0.00    +0.050 A 
ATOM     22  C   LIG    1       10.553  -0.558  -4.923  0.00  0.00    -0.010 A 
ATOM     23  C   LIG    1       11.935  -0.589  -4.862  0.00  0.00    +0.040 A 
ATOM     24  C   LIG    1       12.570  -1.023  -3.713  0.00  0.00    +0.070 A 
ATOM     25 CL   LIG    1        9.760  -0.013  -6.368  0.00  0.00    -0.050 Cl
ATOM     26  C   LIG    1       11.826  -1.427  -2.621  0.00  0.00    -0.060 A 
ATOM     27 CL   LIG    1       12.624  -1.972  -1.179  0.00  0.00    -0.050 Cl
ENDBRANCH  17  20
ENDBRANCH  15  16
ENDBRANCH   4  15
TORSDOF 5
