REMARK  Name = ZINCtV00000L6kWC.0
REMARK                            x       y       z     vdW  Elec       q    Type
REMARK                         _______ _______ _______ _____ _____    ______ ____
ROOT
ATOM      1  C   LIG    1        3.715  -0.701  -0.038  0.00  0.00    +0.080 C 
ATOM      2  S   LIG    1        4.575  -0.362   1.509  0.00  0.00    -0.080 S 
ATOM      3  C   LIG    1        5.920  -1.494   1.546  0.00  0.00    -0.160 A 
ATOM      4  C   LIG    1        6.218  -2.073   2.785  0.00  0.00    +0.060 A 
ATOM      5  C   LIG    1        7.027  -3.186   2.861  0.00  0.00    +0.000 A 
ATOM      6  C   LIG    1        7.559  -3.736   1.706  0.00  0.00    +0.040 A 
ATOM      7  C   LIG    1        7.363  -3.109   0.498  0.00  0.00    +0.010 A 
ATOM      8  C   LIG    1        6.610  -1.924   0.423  0.00  0.00    +0.190 A 
ATOM      9  N   LIG    1        6.650  -1.222  -0.713  0.00  0.00    -0.560 NA
ATOM     10  C   LIG    1        5.903  -0.495  -1.425  0.00  0.00    +0.330 C 
ATOM     11  C   LIG    1        6.508   0.187  -2.608  0.00  0.00    -0.070 A 
ATOM     12  C   LIG    1        7.892   0.328  -2.687  0.00  0.00    +0.070 A 
ATOM     13  C   LIG    1        8.452   0.924  -3.800  0.00  0.00    +0.000 A 
ATOM     14  C   LIG    1        7.636   1.377  -4.821  0.00  0.00    +0.030 A 
ATOM     15  C   LIG    1        6.262   1.245  -4.738  0.00  0.00    +0.000 A 
ATOM     16  C   LIG    1        5.680   0.654  -3.628  0.00  0.00    -0.050 A 
ATOM     17  C   LIG    1        4.181   0.544  -3.573  0.00  0.00    +0.100 C 
ATOM     18  C   LIG    1        3.723  -0.521  -2.576  0.00  0.00    +0.070 C 
ATOM     19  C   LIG    1        4.453  -0.308  -1.258  0.00  0.00    -0.040 C 
ENDROOT
BRANCH   1  23
ATOM     20  C   LIG    1       -0.017   1.388   0.010  0.00  0.00    +0.110 A 
ATOM     21  C   LIG    1        1.175   2.094   0.002  0.00  0.00    -0.030 A 
ATOM     22  C   LIG    1        2.380   1.415  -0.013  0.00  0.00    +0.030 A 
ATOM     23  C   LIG    1        2.399   0.034  -0.021  0.00  0.00    -0.070 A 
ATOM     24  C   LIG    1        1.213  -0.677  -0.013  0.00  0.00    -0.010 A 
ATOM     25  C   LIG    1        0.002  -0.004   0.002  0.00  0.00    +0.100 A 
BRANCH  20  27
ATOM     26  C   LIG    1       -1.146   3.481   0.026  0.00  0.00    +0.240 C 
ATOM     27  O   LIG    1       -1.203   2.053   0.019  0.00  0.00    -0.300 OA
ENDBRANCH  20  27
BRANCH  25  28
ATOM     28  O   LIG    1       -1.165  -0.702   0.010  0.00  0.00    -0.300 OA
ATOM     29  C   LIG    1       -1.069  -2.127   0.001  0.00  0.00    +0.240 C 
ENDBRANCH  25  28
ENDBRANCH   1  23
TORSDOF 3
