REMARK  Name = ZINCrH000004k0Au.0
REMARK                            x       y       z     vdW  Elec       q    Type
REMARK                         _______ _______ _______ _____ _____    ______ ____
ROOT
ATOM      1  C   LIG    1        7.579  -6.384  -0.130  0.00  0.00    -0.170 A 
ATOM      2  C   LIG    1        7.997  -5.167   0.416  0.00  0.00    +0.120 A 
ATOM      3  C   LIG    1        7.148  -4.083   0.406  0.00  0.00    -0.020 A 
ATOM      4  C   LIG    1        5.877  -4.198  -0.146  0.00  0.00    +0.160 A 
ATOM      5  C   LIG    1        5.456  -5.408  -0.685  0.00  0.00    -0.080 A 
ATOM      6  C   LIG    1        6.301  -6.495  -0.684  0.00  0.00    +0.090 A 
ENDROOT
BRANCH   1   9
ATOM      7  C   LIG    1        6.531  -8.999  -0.002  0.00  0.00    +0.290 C 
ATOM      8  N   LIG    1        7.981  -8.794  -0.014  0.00  0.00    -0.610 N 
ATOM      9  C   LIG    1        8.486  -7.549  -0.120  0.00  0.00    +0.560 C 
ATOM     10  O   LIG    1        9.687  -7.385  -0.209  0.00  0.00    -0.520 OA
BRANCH   8  11
ATOM     11  C   LIG    1        8.884  -9.943   0.091  0.00  0.00    +0.400 C 
BRANCH  11  12
ATOM     12  C   LIG    1        9.187 -10.214   1.542  0.00  0.00    -0.030 A 
ATOM     13  C   LIG    1        8.483 -11.021   2.356  0.00  0.00    -0.050 A 
ATOM     14  C   LIG    1        9.116 -10.982   3.619  0.00  0.00    -0.070 A 
ATOM     15  C   LIG    1       10.165 -10.148   3.505  0.00  0.00    +0.170 A 
ATOM     16  O   LIG    1       10.203  -9.685   2.244  0.00  0.00    -0.170 OA
ENDBRANCH  11  12
ENDBRANCH   8  11
ENDBRANCH   1   9
BRANCH   4  17
ATOM     17  O   LIG    1        5.044  -3.127  -0.153  0.00  0.00    -0.310 OA
BRANCH  17  18
ATOM     18  C   LIG    1        3.752  -3.314  -0.736  0.00  0.00    +0.330 C 
BRANCH  18  19
ATOM     19  C   LIG    1        2.973  -2.027  -0.655  0.00  0.00    +0.050 A 
ATOM     20  C   LIG    1        3.416  -0.870  -0.117  0.00  0.00    +0.120 A 
ATOM     21  N   LIG    1        2.408   0.047  -0.242  0.00  0.00    -0.360 N 
ATOM     22  C   LIG    1        2.302   1.358   0.121  0.00  0.00    +0.230 A 
ATOM     23  C   LIG    1        1.169   2.050  -0.125  0.00  0.00    +0.010 A 
ATOM     24  C   LIG    1        0.082   1.427  -0.759  0.00  0.00    +0.050 A 
ATOM     25  C   LIG    1        0.174   0.120  -1.126  0.00  0.00    +0.070 A 
ATOM     26  C   LIG    1        1.364  -0.589  -0.863  0.00  0.00    +0.230 A 
ATOM     27  N   LIG    1        1.729  -1.840  -1.102  0.00  0.00    -0.480 NA
ENDBRANCH  18  19
ENDBRANCH  17  18
ENDBRANCH   4  17
TORSDOF 6
