REMARK  Name = ZINCvU0000000H2i.0
REMARK                            x       y       z     vdW  Elec       q    Type
REMARK                         _______ _______ _______ _____ _____    ______ ____
ROOT
ATOM      1  N   LIG    1        1.347   2.737  -0.705  0.00  0.00    -0.610 N 
ATOM      2  C   LIG    1        0.195   3.417  -0.535  0.00  0.00    +0.570 C 
ATOM      3  C   LIG    1       -0.883   2.822   0.273  0.00  0.00    -0.200 A 
ATOM      4  C   LIG    1       -2.014   3.550   0.634  0.00  0.00    +0.110 A 
ATOM      5  C   LIG    1       -2.993   2.952   1.400  0.00  0.00    -0.040 A 
ATOM      6  C   LIG    1       -2.862   1.633   1.805  0.00  0.00    +0.080 A 
ATOM      7  C   LIG    1       -1.753   0.894   1.441  0.00  0.00    -0.060 A 
ATOM      8  C   LIG    1       -0.765   1.478   0.664  0.00  0.00    +0.240 A 
ATOM      9  N   LIG    1        0.361   0.769   0.262  0.00  0.00    -0.750 N 
ATOM     10  H   LIG    1        0.320  -0.192   0.132  0.00  0.00    +0.410 HD
ATOM     11  O   LIG    1        0.048   4.511  -1.045  0.00  0.00    -0.520 OA
ATOM     12  C   LIG    1        1.612   1.501   0.031  0.00  0.00    +0.580 C 
ENDROOT
BRANCH  12  13
ATOM     13  C   LIG    1        2.246   1.836   1.357  0.00  0.00    -0.280 A 
ATOM     14  C   LIG    1        2.074   1.158   2.515  0.00  0.00    +0.260 A 
ATOM     15  N   LIG    1        2.809   1.774   3.465  0.00  0.00    -0.360 N 
ATOM     16  N   LIG    1        3.454   2.866   2.870  0.00  0.00    -0.280 NA
ATOM     17  C   LIG    1        3.121   2.898   1.605  0.00  0.00    +0.250 A 
BRANCH  15  18
ATOM     18  C   LIG    1        2.914   1.371   4.869  0.00  0.00    +0.370 C 
BRANCH  18  19
ATOM     19  C   LIG    1        4.365   1.176   5.229  0.00  0.00    -0.110 A 
ATOM     20  C   LIG    1        4.955  -0.064   5.075  0.00  0.00    +0.020 A 
ATOM     21  C   LIG    1        6.287  -0.241   5.400  0.00  0.00    +0.000 A 
ATOM     22  C   LIG    1        7.026   0.820   5.889  0.00  0.00    +0.010 A 
ATOM     23  C   LIG    1        6.434   2.059   6.048  0.00  0.00    +0.010 A 
ATOM     24  C   LIG    1        5.104   2.237   5.718  0.00  0.00    +0.040 A 
ENDBRANCH  18  19
ENDBRANCH  15  18
ENDBRANCH  12  13
BRANCH   1  26
ATOM     25  C   LIG    1        1.929   4.629  -2.143  0.00  0.00    +0.070 C 
ATOM     26  C   LIG    1        2.351   3.245  -1.644  0.00  0.00    +0.270 C 
BRANCH  26  27
ATOM     27  C   LIG    1        2.466   2.303  -2.815  0.00  0.00    -0.100 A 
ATOM     28  C   LIG    1        1.331   1.719  -3.346  0.00  0.00    +0.020 A 
ATOM     29  C   LIG    1        1.437   0.859  -4.423  0.00  0.00    +0.000 A 
ATOM     30  C   LIG    1        2.677   0.574  -4.962  0.00  0.00    +0.000 A 
ATOM     31  C   LIG    1        3.812   1.154  -4.427  0.00  0.00    +0.000 A 
ATOM     32  C   LIG    1        3.707   2.018  -3.353  0.00  0.00    +0.010 A 
ENDBRANCH  26  27
ENDBRANCH   1  26
TORSDOF 5
