REMARK  Name = ZINCbw0000000HjR.0
REMARK                            x       y       z     vdW  Elec       q    Type
REMARK                         _______ _______ _______ _____ _____    ______ ____
ROOT
ATOM      1  C   LIG    1       -0.013   1.086   0.008  0.00  0.00    +0.100 C 
ATOM      2  C   LIG    1       -0.718   1.572   1.248  0.00  0.00    -0.060 A 
ATOM      3  C   LIG    1        0.004   1.807   2.412  0.00  0.00    +0.090 A 
ATOM      4  N   LIG    1        1.339   1.692   2.739  0.00  0.00    -0.590 N 
ATOM      5  H   LIG    1        2.037   1.398   2.133  0.00  0.00    +0.420 HD
ATOM      6  C   LIG    1        1.531   2.055   4.044  0.00  0.00    +0.230 A 
ATOM      7  C   LIG    1        0.361   2.408   4.598  0.00  0.00    -0.060 A 
ATOM      8  C   LIG    1       -0.666   2.261   3.563  0.00  0.00    -0.080 A 
ATOM      9  C   LIG    1       -2.046   2.471   3.529  0.00  0.00    +0.030 A 
ATOM     10  C   LIG    1       -2.743   2.232   2.364  0.00  0.00    +0.080 A 
ATOM     11  F   LIG    1       -4.078   2.434   2.327  0.00  0.00    -0.140 F 
ATOM     12  C   LIG    1       -2.078   1.789   1.227  0.00  0.00    +0.000 A 
ENDROOT
TORSDOF 0
