REMARK  Name = ZINCrD000000fzAv.0
REMARK                            x       y       z     vdW  Elec       q    Type
REMARK                         _______ _______ _______ _____ _____    ______ ____
ROOT
ATOM      1  C   LIG    1        3.715  -3.434   3.107  0.00  0.00    +0.200 C 
ATOM      2  C   LIG    1        3.452  -2.978   4.544  0.00  0.00    +0.060 C 
ATOM      3  C   LIG    1        3.260  -2.001   3.384  0.00  0.00    -0.130 C 
ATOM      4  C   LIG    1        4.292  -0.882   3.218  0.00  0.00    +0.060 C 
ATOM      5  C   LIG    1        3.828   0.340   4.021  0.00  0.00    +0.290 C 
ATOM      6  N   LIG    1        2.440   0.648   3.654  0.00  0.00    -0.600 N 
ATOM      7  C   LIG    1        1.409  -0.385   3.815  0.00  0.00    +0.280 C 
ATOM      8  C   LIG    1        2.115   1.867   3.179  0.00  0.00    +0.600 C 
ATOM      9  O   LIG    1        2.974   2.719   3.053  0.00  0.00    -0.530 OA
ATOM     10  C   LIG    1        1.825  -1.623   3.003  0.00  0.00    +0.060 C 
ENDROOT
BRANCH   8  11
ATOM     11  C   LIG    1        0.719   2.167   2.813  0.00  0.00    -0.250 A 
ATOM     12  C   LIG    1       -0.281   2.681   3.602  0.00  0.00    +0.020 A 
ATOM     13  O   LIG    1       -1.362   2.773   2.824  0.00  0.00    +0.100 OA
ATOM     14  N   LIG    1       -1.167   2.401   1.693  0.00  0.00    -0.350 NA
ATOM     15  C   LIG    1       -0.178   3.064   5.056  0.00  0.00    +0.200 C 
ATOM     16  C   LIG    1        0.054   1.991   1.513  0.00  0.00    +0.050 A 
ATOM     17  C   LIG    1        0.659   1.455   0.242  0.00  0.00    +0.160 C 
ENDBRANCH   8  11
BRANCH   1  20
ATOM     18  C   LIG    1        0.667  -5.687   2.586  0.00  0.00    +0.100 C 
ATOM     19  C   LIG    1        1.602  -4.647   3.147  0.00  0.00    +0.520 C 
ATOM     20  N   LIG    1        2.744  -4.346   2.498  0.00  0.00    -0.580 N 
ATOM     21  O   LIG    1        1.327  -4.080   4.184  0.00  0.00    -0.530 OA
BRANCH  20  22
ATOM     22  C   LIG    1        3.014  -4.931   1.182  0.00  0.00    +0.360 C 
BRANCH  22  23
ATOM     23  C   LIG    1        3.797  -6.208   1.351  0.00  0.00    -0.130 A 
ATOM     24  C   LIG    1        3.209  -7.397   1.493  0.00  0.00    -0.030 A 
ATOM     25  S   LIG    1        4.437  -8.645   1.664  0.00  0.00    +0.110 S 
ATOM     26  C   LIG    1        5.717  -7.446   1.530  0.00  0.00    -0.040 A 
ATOM     27  C   LIG    1        5.181  -6.236   1.366  0.00  0.00    +0.010 A 
ENDBRANCH  22  23
ENDBRANCH  20  22
ENDBRANCH   1  20
TORSDOF 4
