REMARK  Name = ZINCrH000004jIu4.1
REMARK                            x       y       z     vdW  Elec       q    Type
REMARK                         _______ _______ _______ _____ _____    ______ ____
ROOT
ATOM      1  N   LIG    1        2.245  -1.473  -8.467  0.00  0.00    -0.730 N 
ATOM      2  H   LIG    1        2.201  -1.507  -9.436  0.00  0.00    +0.410 HD
ATOM      3  C   LIG    1        1.113  -1.349  -7.746  0.00  0.00    +0.700 C 
ATOM      4  N   LIG    1       -0.079  -1.272  -8.370  0.00  0.00    -0.680 N 
ATOM      5  H   LIG    1       -0.131  -1.387  -9.332  0.00  0.00    +0.410 HD
ATOM      6  O   LIG    1        1.168  -1.308  -6.532  0.00  0.00    -0.570 OA
ENDROOT
BRANCH   4   7
ATOM      7  C   LIG    1       -1.243  -1.025  -7.630  0.00  0.00    +0.130 A 
ATOM      8  C   LIG    1       -1.189  -0.221  -6.499  0.00  0.00    +0.060 A 
ATOM      9  C   LIG    1       -2.336   0.021  -5.769  0.00  0.00    +0.000 A 
ATOM     10  C   LIG    1       -3.542  -0.538  -6.166  0.00  0.00    +0.120 A 
ATOM     11  C   LIG    1       -3.595  -1.346  -7.292  0.00  0.00    -0.060 A 
ATOM     12  C   LIG    1       -2.450  -1.585  -8.026  0.00  0.00    +0.020 A 
BRANCH  10  13
ATOM     13  O   LIG    1       -4.671  -0.300  -5.447  0.00  0.00    -0.300 OA
BRANCH  13  14
ATOM     14  C   LIG    1       -5.878  -0.908  -5.913  0.00  0.00    +0.190 C 
BRANCH  14  15
ATOM     15  C   LIG    1       -7.032  -0.528  -4.983  0.00  0.00    +0.170 C 
ATOM     16  C   LIG    1       -8.314  -1.276  -5.407  0.00  0.00    +0.020 C 
ATOM     17  C   LIG    1       -9.409  -0.192  -5.204  0.00  0.00    +0.010 C 
ATOM     18  C   LIG    1       -8.627   1.092  -5.577  0.00  0.00    +0.200 C 
ATOM     19  O   LIG    1       -7.295   0.876  -5.084  0.00  0.00    -0.370 OA
ENDBRANCH  14  15
ENDBRANCH  13  14
ENDBRANCH  10  13
ENDBRANCH   4   7
BRANCH   1  20
ATOM     20  C   LIG    1        3.541  -1.558  -7.789  0.00  0.00    +0.300 C 
BRANCH  20  21
ATOM     21  C   LIG    1        4.662  -1.566  -8.830  0.00  0.00    +0.250 C 
BRANCH  21  22
ATOM     22  C   LIG    1        5.996  -1.499  -8.132  0.00  0.00    -0.220 A 
ATOM     23  C   LIG    1        6.933  -2.448  -8.172  0.00  0.00    +0.020 A 
ATOM     24  C   LIG    1        8.082  -2.163  -7.454  0.00  0.00    +0.000 A 
ATOM     25  C   LIG    1        8.074  -0.988  -6.824  0.00  0.00    -0.060 A 
ATOM     26  S   LIG    1        6.552  -0.162  -7.134  0.00  0.00    +0.120 S 
ENDBRANCH  21  22
BRANCH  21  28
ATOM     27  C   LIG    1        4.430   0.842  -8.944  0.00  0.00    +0.200 C 
ATOM     28  N   LIG    1        4.515  -0.404  -9.717  0.00  0.00    -0.530 NA
ATOM     29  C   LIG    1        5.612  -0.345 -10.693  0.00  0.00    +0.200 C 
ENDBRANCH  21  28
ENDBRANCH  20  21
ENDBRANCH   1  20
TORSDOF 8
