REMARK  Name = ZINCc70000004SRL.0
REMARK                            x       y       z     vdW  Elec       q    Type
REMARK                         _______ _______ _______ _____ _____    ______ ____
ROOT
ATOM      1  C   LIG    1        1.234  -0.422  -0.012  0.00  0.00    +0.160 A 
ATOM      2  N   LIG    1        0.002  -0.004   0.002  0.00  0.00    -0.270 NA
ATOM      3  N   LIG    1       -0.015   1.282   0.009  0.00  0.00    -0.320 NA
ATOM      4  C   LIG    1        1.216   1.733  -0.000  0.00  0.00    +0.340 A 
ATOM      5  O   LIG    1        2.032   0.663  -0.014  0.00  0.00    -0.220 OA
ENDROOT
BRANCH   4   6
ATOM      6  N   LIG    1        1.603   3.060   0.003  0.00  0.00    -0.420 N 
ATOM      7  C   LIG    1        2.353   3.398  -1.234  0.00  0.00    +0.200 C 
ATOM      8  C   LIG    1        2.234   4.941  -1.310  0.00  0.00    +0.050 C 
ATOM      9  C   LIG    1        0.796   5.203  -0.806  0.00  0.00    +0.030 C 
ATOM     10  C   LIG    1        0.426   3.956   0.018  0.00  0.00    +0.220 C 
ENDBRANCH   4   6
BRANCH   1  11
ATOM     11  C   LIG    1        1.685  -1.860  -0.025  0.00  0.00    +0.350 C 
BRANCH  11  12
ATOM     12  N   LIG    1        1.819  -2.320  -1.413  0.00  0.00    -0.850 NA
ATOM     13  H   LIG    1        0.955  -2.193  -1.921  0.00  0.00    +0.350 HD
ATOM     14  H   LIG    1        2.121  -3.282  -1.449  0.00  0.00    +0.360 HD
ENDBRANCH  11  12
ENDBRANCH   1  11
TORSDOF 3
