REMARK  Name = ZINCqH0000037aZc.0
REMARK                            x       y       z     vdW  Elec       q    Type
REMARK                         _______ _______ _______ _____ _____    ______ ____
ROOT
ATOM      1  C   LIG    1        2.554   9.185   0.024  0.00  0.00    -0.050 A 
ATOM      2  C   LIG    1        1.411   9.963   0.039  0.00  0.00    -0.030 A 
ATOM      3  C   LIG    1        0.164   9.364   0.048  0.00  0.00    +0.060 A 
ATOM      4  C   LIG    1        0.058   7.987   0.042  0.00  0.00    -0.080 A 
ATOM      5  C   LIG    1        1.203   7.204   0.027  0.00  0.00    +0.140 A 
ATOM      6  C   LIG    1        2.453   7.807   0.025  0.00  0.00    -0.010 A 
ENDROOT
BRANCH   1   8
ATOM      7  C   LIG    1        4.275  10.281   1.432  0.00  0.00    +0.040 C 
ATOM      8  C   LIG    1        3.910   9.841   0.013  0.00  0.00    +0.280 C 
BRANCH   8   9
ATOM      9  N   LIG    1        3.881  11.010  -0.869  0.00  0.00    -0.730 N 
ATOM     10  H   LIG    1        3.042  11.465  -1.043  0.00  0.00    +0.400 HD
ATOM     11  C   LIG    1        5.019  11.454  -1.438  0.00  0.00    +0.520 C 
ATOM     12  O   LIG    1        6.068  10.885  -1.219  0.00  0.00    -0.540 OA
BRANCH  11  13
ATOM     13  C   LIG    1        4.989  12.657  -2.345  0.00  0.00    +0.050 C 
BRANCH  13  14
ATOM     14  C   LIG    1        6.402  12.947  -2.854  0.00  0.00    +0.060 C 
BRANCH  14  15
ATOM     15  C   LIG    1        6.372  14.169  -3.775  0.00  0.00    +0.150 C 
ATOM     16  C   LIG    1        7.803  14.514  -4.258  0.00  0.00    +0.010 C 
ATOM     17  C   LIG    1        7.494  15.263  -5.583  0.00  0.00    +0.000 C 
ATOM     18  C   LIG    1        6.240  14.522  -6.094  0.00  0.00    +0.190 C 
ATOM     19  O   LIG    1        5.633  13.873  -4.971  0.00  0.00    -0.380 OA
ENDBRANCH  14  15
ENDBRANCH  13  14
ENDBRANCH  11  13
ENDBRANCH   8   9
ENDBRANCH   1   8
BRANCH   5  20
ATOM     20  O   LIG    1        1.102   5.849   0.022  0.00  0.00    -0.310 OA
BRANCH  20  21
ATOM     21  C   LIG    1       -0.217   5.298   0.031  0.00  0.00    +0.290 C 
BRANCH  21  22
ATOM     22  C   LIG    1       -0.132   3.793   0.023  0.00  0.00    +0.120 A 
ATOM     23  C   LIG    1        1.106   3.179   0.008  0.00  0.00    -0.010 A 
ATOM     24  C   LIG    1        1.173   1.794   0.001  0.00  0.00    +0.070 A 
ATOM     25  C   LIG    1       -0.013   1.076   0.008  0.00  0.00    -0.030 A 
ATOM     26  C   LIG    1       -1.214   1.759   0.017  0.00  0.00    +0.260 A 
ATOM     27  N   LIG    1       -1.240   3.078   0.029  0.00  0.00    -0.480 NA
ENDBRANCH  21  22
ENDBRANCH  20  21
ENDBRANCH   5  20
TORSDOF 8
