REMARK  Name = ZINCrH000004v7dR.0
REMARK                            x       y       z     vdW  Elec       q    Type
REMARK                         _______ _______ _______ _____ _____    ______ ____
ROOT
ATOM      1  O   LIG    1        6.958   5.876  -1.379  0.00  0.00    -0.510 OA
ATOM      2  C   LIG    1        5.778   6.156  -1.353  0.00  0.00    +0.530 C 
ATOM      3  N   LIG    1        5.238   6.693  -0.241  0.00  0.00    -0.670 N 
ATOM      4  H   LIG    1        4.303   6.951  -0.232  0.00  0.00    +0.410 HD
ENDROOT
BRANCH   2   5
ATOM      5  C   LIG    1        4.917   5.905  -2.563  0.00  0.00    +0.010 C 
ATOM      6  C   LIG    1        3.786   4.901  -2.239  0.00  0.00    +0.100 C 
ATOM      7  C   LIG    1        3.654   4.072  -3.498  0.00  0.00    +0.520 C 
ATOM      8  N   LIG    1        4.739   4.234  -4.274  0.00  0.00    -0.620 N 
ATOM      9  O   LIG    1        2.707   3.364  -3.767  0.00  0.00    -0.500 OA
ATOM     10  C   LIG    1        5.708   5.144  -3.653  0.00  0.00    +0.320 C 
BRANCH   8  11
ATOM     11  C   LIG    1        4.932   3.581  -5.571  0.00  0.00    +0.350 C 
BRANCH  11  12
ATOM     12  C   LIG    1        4.364   4.470  -6.679  0.00  0.00    +0.430 C 
ATOM     13  F   LIG    1        2.997   4.674  -6.459  0.00  0.00    -0.180 F 
ATOM     14  F   LIG    1        4.548   3.846  -7.918  0.00  0.00    -0.180 F 
ATOM     15  F   LIG    1        5.026   5.702  -6.675  0.00  0.00    -0.180 F 
ENDBRANCH  11  12
ENDBRANCH   8  11
ENDBRANCH   2   5
BRANCH   3  16
ATOM     16  C   LIG    1        6.027   6.880   0.902  0.00  0.00    +0.110 A 
ATOM     17  C   LIG    1        5.469   6.722   2.164  0.00  0.00    +0.020 A 
ATOM     18  C   LIG    1        6.247   6.900   3.290  0.00  0.00    -0.010 A 
ATOM     19  C   LIG    1        7.586   7.248   3.161  0.00  0.00    +0.170 A 
ATOM     20  C   LIG    1        8.142   7.412   1.898  0.00  0.00    -0.020 A 
ATOM     21  C   LIG    1        7.365   7.228   0.772  0.00  0.00    +0.060 A 
BRANCH  19  22
ATOM     22  N   LIG    1        8.374   7.435   4.302  0.00  0.00    -0.690 N 
ATOM     23  H   LIG    1        9.322   7.233   4.275  0.00  0.00    +0.410 HD
BRANCH  22  24
ATOM     24  C   LIG    1        7.794   7.912   5.480  0.00  0.00    +0.180 A 
ATOM     25  C   LIG    1        6.642   8.686   5.426  0.00  0.00    -0.040 A 
ATOM     26  C   LIG    1        6.069   9.152   6.593  0.00  0.00    +0.040 A 
ATOM     27  C   LIG    1        6.647   8.857   7.814  0.00  0.00    -0.040 A 
ATOM     28  C   LIG    1        7.797   8.091   7.872  0.00  0.00    +0.040 A 
ATOM     29  C   LIG    1        8.372   7.617   6.709  0.00  0.00    -0.050 A 
ENDBRANCH  22  24
ENDBRANCH  19  22
ENDBRANCH   3  16
TORSDOF 6
