REMARK  Name = ZINCpe000000ZiCo.0
REMARK                            x       y       z     vdW  Elec       q    Type
REMARK                         _______ _______ _______ _____ _____    ______ ____
ROOT
ATOM      1  C   LIG    1        3.852   1.525   3.050  0.00  0.00    +0.240 C 
ATOM      2  C   LIG    1        3.527   2.960   3.477  0.00  0.00    +0.040 C 
ATOM      3  C   LIG    1        4.818   3.670   3.889  0.00  0.00    +0.020 C 
ATOM      4  C   LIG    1        5.445   2.943   5.080  0.00  0.00    +0.010 C 
ATOM      5  C   LIG    1        5.792   1.508   4.671  0.00  0.00    +0.290 C 
ATOM      6  N   LIG    1        4.585   0.863   4.138  0.00  0.00    -0.980 NA
ENDROOT
BRANCH   1   8
ATOM      7  O   LIG    1        1.687   0.765   3.602  0.00  0.00    -0.540 OA
ATOM      8  C   LIG    1        2.573   0.777   2.774  0.00  0.00    +0.530 C 
ATOM      9  N   LIG    1        2.413   0.122   1.607  0.00  0.00    -0.690 N 
ATOM     10  H   LIG    1        3.122   0.132   0.945  0.00  0.00    +0.400 HD
BRANCH   9  11
ATOM     11  CA  LIG    1        1.170  -0.604   1.339  0.00  0.00    +0.270 C 
BRANCH  11  12
ATOM     12  C   LIG    1        1.439  -1.719   0.326  0.00  0.00    +0.040 C 
BRANCH  12  13
ATOM     13  C   LIG    1        2.386  -2.750   0.941  0.00  0.00    +0.180 C 
BRANCH  13  14
ATOM     14  O   LIG    1        2.637  -3.791  -0.005  0.00  0.00    -0.580 OA
ATOM     15  H   LIG    1        3.231  -4.482   0.318  0.00  0.00    +0.380 HD
ENDBRANCH  13  14
ENDBRANCH  12  13
ENDBRANCH  11  12
BRANCH  11  16
ATOM     16  C   LIG    1        0.127   0.361   0.771  0.00  0.00    +0.170 C 
BRANCH  16  17
ATOM     17  O   LIG    1        0.566   0.841  -0.501  0.00  0.00    -0.570 OA
ATOM     18  H   LIG    1       -0.047   1.460  -0.921  0.00  0.00    +0.380 HD
ENDBRANCH  16  17
ENDBRANCH  11  16
ENDBRANCH   9  11
ENDBRANCH   1   8
BRANCH   6  19
ATOM     19  S   LIG    1        4.060  -0.583   4.751  0.00  0.00    +2.690 S 
ATOM     20  O   LIG    1        5.222  -1.294   5.155  0.00  0.00    -0.950 OA
ATOM     21  O   LIG    1        3.120  -1.097   3.817  0.00  0.00    -0.930 OA
BRANCH  19  22
ATOM     22  C   LIG    1        3.157  -0.229   6.222  0.00  0.00    -0.670 A 
ATOM     23  C   LIG    1        3.809  -0.189   7.440  0.00  0.00    +0.120 A 
ATOM     24  C   LIG    1        3.102   0.093   8.594  0.00  0.00    +0.020 A 
ATOM     25  C   LIG    1        1.740   0.327   8.530  0.00  0.00    -0.040 A 
ATOM     26  C   LIG    1        1.087   0.282   7.312  0.00  0.00    +0.020 A 
ATOM     27 BR   LIG    1        0.771   0.707  10.109  0.00  0.00    -0.040 Br
ATOM     28  C   LIG    1        1.796   0.004   6.158  0.00  0.00    +0.180 A 
ENDBRANCH  19  22
ENDBRANCH   6  19
TORSDOF 9
