REMARK  Name = ZINCvU00000004fn.0
REMARK                            x       y       z     vdW  Elec       q    Type
REMARK                         _______ _______ _______ _____ _____    ______ ____
ROOT
ATOM      1  N   LIG    1        0.147   1.724  -0.197  0.00  0.00    -0.600 N 
ATOM      2  C   LIG    1       -0.551   2.701   0.415  0.00  0.00    +0.550 C 
ATOM      3  O   LIG    1       -1.685   2.489   0.801  0.00  0.00    -0.530 OA
ENDROOT
BRANCH   1   4
ATOM      4  C   LIG    1       -0.461   0.406  -0.397  0.00  0.00    +0.280 C 
ATOM      5  C   LIG    1        0.512  -0.493  -1.163  0.00  0.00    +0.060 C 
BRANCH   4  10
ATOM      6  C   LIG    1       -2.274  -1.393   2.389  0.00  0.00    +0.140 A 
ATOM      7  C   LIG    1       -1.329  -1.349   3.405  0.00  0.00    -0.030 A 
ATOM      8  C   LIG    1       -0.109  -0.739   3.185  0.00  0.00    +0.020 A 
ATOM      9  C   LIG    1        0.170  -0.172   1.955  0.00  0.00    +0.000 A 
ATOM     10  C   LIG    1       -0.769  -0.214   0.941  0.00  0.00    -0.070 A 
ATOM     11  C   LIG    1       -1.992  -0.819   1.156  0.00  0.00    +0.030 A 
BRANCH   6  14
ATOM     12  C   LIG    1       -5.502  -3.242   1.809  0.00  0.00    +0.110 C 
ATOM     13  C   LIG    1       -4.125  -2.666   1.603  0.00  0.00    +0.510 C 
ATOM     14  N   LIG    1       -3.511  -2.011   2.608  0.00  0.00    -0.680 N 
ATOM     15  H   LIG    1       -3.926  -1.967   3.483  0.00  0.00    +0.410 HD
ATOM     16  O   LIG    1       -3.569  -2.791   0.532  0.00  0.00    -0.520 OA
ENDBRANCH   6  14
ENDBRANCH   4  10
ENDBRANCH   1   4
BRANCH   2  17
ATOM     17  C   LIG    1        0.056   4.018   0.616  0.00  0.00    -0.080 C 
ATOM     18  C   LIG    1       -0.642   4.996   1.228  0.00  0.00    +0.120 C 
BRANCH  18  19
ATOM     19  C   LIG    1       -0.031   6.320   1.429  0.00  0.00    -0.040 A 
ATOM     20  C   LIG    1       -0.752   7.337   2.063  0.00  0.00    +0.030 A 
ATOM     21  C   LIG    1       -0.175   8.575   2.249  0.00  0.00    +0.050 A 
ATOM     22  C   LIG    1        1.115   8.815   1.810  0.00  0.00    +0.000 A 
ATOM     23  C   LIG    1        1.837   7.813   1.180  0.00  0.00    +0.100 A 
ATOM     24  F   LIG    1        3.096   8.055   0.755  0.00  0.00    -0.140 F 
ATOM     25  C   LIG    1        1.274   6.566   0.992  0.00  0.00    +0.000 A 
ENDBRANCH  18  19
ENDBRANCH   2  17
BRANCH   1  26
ATOM     26  C   LIG    1        1.510   1.981  -0.667  0.00  0.00    +0.330 C 
BRANCH  26  27
ATOM     27  C   LIG    1        1.464   2.514  -2.075  0.00  0.00    -0.110 A 
ATOM     28  C   LIG    1        1.661   1.661  -3.144  0.00  0.00    +0.020 A 
ATOM     29  C   LIG    1        1.613   2.149  -4.437  0.00  0.00    +0.000 A 
ATOM     30  C   LIG    1        1.379   3.493  -4.659  0.00  0.00    +0.010 A 
ATOM     31  C   LIG    1        1.187   4.348  -3.590  0.00  0.00    +0.000 A 
ATOM     32  C   LIG    1        1.229   3.858  -2.298  0.00  0.00    +0.010 A 
ENDBRANCH  26  27
ENDBRANCH   1  26
TORSDOF 7
