REMARK  Name = ZINCqH00000327HM.0
REMARK                            x       y       z     vdW  Elec       q    Type
REMARK                         _______ _______ _______ _____ _____    ______ ____
ROOT
ATOM      1  C   LIG    1       -3.167   2.389   1.530  0.00  0.00    +0.530 C 
ATOM      2  N   LIG    1       -2.171   1.894   0.768  0.00  0.00    -0.620 N 
ATOM      3  C   LIG    1       -2.275   1.541  -0.659  0.00  0.00    +0.250 C 
ATOM      4  C   LIG    1       -0.825   1.630  -1.196  0.00  0.00    +0.040 C 
ATOM      5  C   LIG    1       -0.013   1.086   0.008  0.00  0.00    +0.040 C 
ATOM      6  C   LIG    1       -0.798   1.615   1.227  0.00  0.00    +0.270 C 
ATOM      7  O   LIG    1       -2.967   2.644   2.699  0.00  0.00    -0.510 OA
ENDROOT
BRANCH   6   8
ATOM      8  C   LIG    1       -0.819   0.572   2.315  0.00  0.00    -0.100 A 
ATOM      9  C   LIG    1       -1.696  -0.494   2.233  0.00  0.00    +0.060 A 
ATOM     10  C   LIG    1       -1.713  -1.453   3.227  0.00  0.00    -0.020 A 
ATOM     11  C   LIG    1       -0.858  -1.342   4.311  0.00  0.00    +0.100 A 
ATOM     12  C   LIG    1        0.016  -0.272   4.394  0.00  0.00    -0.010 A 
ATOM     13  F   LIG    1       -0.877  -2.277   5.286  0.00  0.00    -0.140 F 
ATOM     14  C   LIG    1        0.035   0.684   3.396  0.00  0.00    +0.050 A 
ENDBRANCH   6   8
BRANCH   1  15
ATOM     15  C   LIG    1       -4.528   2.627   0.929  0.00  0.00    +0.160 C 
BRANCH  15  18
ATOM     16  C   LIG    1       -6.483   3.148   3.959  0.00  0.00    +0.240 A 
ATOM     17  N   LIG    1       -5.666   2.572   3.135  0.00  0.00    -0.490 NA
ATOM     18  C   LIG    1       -5.453   3.180   1.982  0.00  0.00    +0.110 A 
ATOM     19  C   LIG    1       -6.119   4.326   1.828  0.00  0.00    -0.130 A 
ATOM     20  S   LIG    1       -7.078   4.600   3.280  0.00  0.00    +0.240 S 
BRANCH  16  22
ATOM     21  C   LIG    1       -7.690   3.340   5.992  0.00  0.00    +0.520 C 
ATOM     22  N   LIG    1       -6.827   2.657   5.213  0.00  0.00    -0.620 N 
ATOM     23  H   LIG    1       -6.446   1.822   5.528  0.00  0.00    +0.420 HD
ATOM     24  O   LIG    1       -8.166   4.383   5.598  0.00  0.00    -0.500 OA
BRANCH  21  26
ATOM     25  C   LIG    1       -9.049   3.765   8.022  0.00  0.00    +0.070 C 
ATOM     26  C   LIG    1       -8.062   2.807   7.351  0.00  0.00    +0.000 C 
ATOM     27  C   LIG    1       -8.712   1.430   7.199  0.00  0.00    +0.060 C 
ENDBRANCH  21  26
ENDBRANCH  16  22
ENDBRANCH  15  18
ENDBRANCH   1  15
TORSDOF 5
