REMARK  Name = ZINC650000003W5O.0
REMARK                            x       y       z     vdW  Elec       q    Type
REMARK                         _______ _______ _______ _____ _____    ______ ____
ROOT
ATOM      1  O   LIG    1        0.002  -0.004   0.002  0.00  0.00    -0.520 OA
ATOM      2  C   LIG    1       -0.014   1.209   0.009  0.00  0.00    +0.500 C 
ATOM      3  C   LIG    1        1.201   2.118   0.002  0.00  0.00    +0.040 C 
ATOM      4  C   LIG    1        0.591   3.484   0.402  0.00  0.00    +0.230 C 
ATOM      5  N   LIG    1       -0.823   3.317  -0.007  0.00  0.00    -0.440 NA
ATOM      6  H   LIG    1       -0.981   3.701  -0.927  0.00  0.00    +0.340 HD
ATOM      7  N   LIG    1       -1.113   1.986   0.018  0.00  0.00    -0.580 N 
ATOM      8  H   LIG    1       -2.017   1.635   0.042  0.00  0.00    +0.430 HD
ENDROOT
TORSDOF 0
