REMARK  Name = ZINCpe000000YnDB.0
REMARK                            x       y       z     vdW  Elec       q    Type
REMARK                         _______ _______ _______ _____ _____    ______ ____
ROOT
ATOM      1  C   LIG    1        2.683  -4.091  -2.981  0.00  0.00    +0.330 C 
ATOM      2  C   LIG    1        3.288  -5.494  -2.767  0.00  0.00    +0.060 C 
ATOM      3  C   LIG    1        2.935  -5.801  -1.288  0.00  0.00    +0.050 C 
ATOM      4  C   LIG    1        3.066  -4.400  -0.639  0.00  0.00    +0.270 C 
ATOM      5  N   LIG    1        2.555  -3.464  -1.657  0.00  0.00    -0.600 N 
ATOM      6  C   LIG    1        2.050  -2.238  -1.414  0.00  0.00    +0.520 C 
ATOM      7  O   LIG    1        1.657  -1.551  -2.332  0.00  0.00    -0.510 OA
ENDROOT
BRANCH   1  13
ATOM      8  C   LIG    1        2.221  -3.276  -5.967  0.00  0.00    +0.350 C 
ATOM      9  N   LIG    1        3.381  -2.925  -5.144  0.00  0.00    -0.470 N 
ATOM     10  C   LIG    1        4.455  -2.191  -5.522  0.00  0.00    +0.380 A 
ATOM     11  N   LIG    1        5.254  -2.115  -4.492  0.00  0.00    -0.290 NA
ATOM     12  N   LIG    1        4.742  -2.750  -3.499  0.00  0.00    -0.280 NA
ATOM     13  C   LIG    1        3.597  -3.268  -3.852  0.00  0.00    +0.160 A 
ENDBRANCH   1  13
BRANCH   6  14
ATOM     14  C   LIG    1        1.974  -1.722   0.000  0.00  0.00    +0.380 C 
BRANCH  14  15
ATOM     15  N   LIG    1        1.391  -0.378  -0.002  0.00  0.00    -0.370 N 
ATOM     16  N   LIG    1        0.028  -0.038   0.043  0.00  0.00    -0.070 NA
ATOM     17  N   LIG    1       -0.037   1.250   0.023  0.00  0.00    -0.030 NA
ATOM     18  N   LIG    1        1.141   1.756  -0.030  0.00  0.00    -0.320 NA
ATOM     19  C   LIG    1        2.052   0.806  -0.048  0.00  0.00    +0.310 A 
BRANCH  19  20
ATOM     20  C   LIG    1        3.519   0.993  -0.106  0.00  0.00    -0.050 A 
ATOM     21  C   LIG    1        4.084   2.213   0.267  0.00  0.00    +0.080 A 
ATOM     22  C   LIG    1        5.453   2.380   0.216  0.00  0.00    +0.020 A 
ATOM     23  C   LIG    1        6.263   1.344  -0.215  0.00  0.00    +0.040 A 
ATOM     24  C   LIG    1        5.708   0.134  -0.591  0.00  0.00    +0.030 A 
ATOM     25  C   LIG    1        4.341  -0.047  -0.539  0.00  0.00    +0.020 A 
ENDBRANCH  19  20
ENDBRANCH  14  15
ENDBRANCH   6  14
TORSDOF 4
