REMARK  Name = ZINCrH00000No4MI.0
REMARK                            x       y       z     vdW  Elec       q    Type
REMARK                         _______ _______ _______ _____ _____    ______ ____
ROOT
ATOM      1  C   LIG    1       -0.420   7.597  -1.646  0.00  0.00    -0.070 C 
ATOM      2  C   LIG    1       -0.613   8.692  -2.412  0.00  0.00    +0.140 C 
ENDROOT
BRANCH   1   4
ATOM      3  O   LIG    1       -2.696   7.284  -1.298  0.00  0.00    -0.540 OA
ATOM      4  C   LIG    1       -1.564   6.918  -1.040  0.00  0.00    +0.560 C 
ATOM      5  N   LIG    1       -1.365   5.887  -0.195  0.00  0.00    -0.610 N 
ATOM      6  C   LIG    1       -2.487   5.255   0.519  0.00  0.00    +0.290 C 
ATOM      7  C   LIG    1       -2.601   3.811   0.032  0.00  0.00    +0.070 C 
ATOM      8  C   LIG    1       -1.253   3.139   0.029  0.00  0.00    -0.070 A 
ATOM      9  C   LIG    1       -1.226   1.750   0.017  0.00  0.00    +0.000 A 
ATOM     10  C   LIG    1       -0.025   1.072   0.004  0.00  0.00    +0.010 A 
ATOM     11  C   LIG    1        1.163   1.778  -0.008  0.00  0.00    +0.010 A 
ATOM     12  C   LIG    1        1.140   3.158   0.004  0.00  0.00    +0.020 A 
ATOM     13  C   LIG    1       -0.068   3.841   0.024  0.00  0.00    -0.100 A 
ATOM     14  C   LIG    1       -0.023   5.348   0.049  0.00  0.00    +0.340 C 
ENDBRANCH   1   4
BRANCH   2  15
ATOM     15  C   LIG    1        0.536   9.375  -3.022  0.00  0.00    -0.080 A 
ATOM     16  C   LIG    1        1.833   8.894  -2.812  0.00  0.00    +0.160 A 
ATOM     17  C   LIG    1        2.906   9.539  -3.386  0.00  0.00    -0.070 A 
ATOM     18  C   LIG    1        2.708  10.662  -4.172  0.00  0.00    +0.170 A 
ATOM     19  C   LIG    1        1.433  11.149  -4.389  0.00  0.00    -0.030 A 
ATOM     20  C   LIG    1        0.340  10.510  -3.824  0.00  0.00    +0.180 A 
BRANCH  17  21
ATOM     21  N   LIG    1        4.278   9.029  -3.164  0.00  0.00    +0.030 N 
ATOM     22  O   LIG    1        5.229   9.597  -3.671  0.00  0.00    -0.150 OA
ATOM     23  O   LIG    1        4.456   8.041  -2.474  0.00  0.00    -0.160 OA
ENDBRANCH  17  21
BRANCH  20  24
ATOM     24  O   LIG    1       -0.913  10.984  -4.041  0.00  0.00    -0.300 OA
BRANCH  24  25
ATOM     25  C   LIG    1       -1.035  12.143  -4.867  0.00  0.00    +0.610 C 
ATOM     26  F   LIG    1       -0.512  11.868  -6.136  0.00  0.00    -0.190 F 
ATOM     27  F   LIG    1       -0.327  13.203  -4.291  0.00  0.00    -0.190 F 
ENDBRANCH  24  25
ENDBRANCH  20  24
ENDBRANCH   2  15
TORSDOF 5
