REMARK  Name = ZINCrg00000AWy1G.0
REMARK                            x       y       z     vdW  Elec       q    Type
REMARK                         _______ _______ _______ _____ _____    ______ ____
ROOT
ATOM      1  C   LIG    1       -1.838   0.988   2.000  0.00  0.00    +0.630 C 
ATOM      2  N   LIG    1       -0.962   1.581   1.165  0.00  0.00    -0.600 N 
ATOM      3  C   LIG    1       -0.401   2.952   1.250  0.00  0.00    +0.260 C 
ATOM      4  C   LIG    1        1.087   2.781   0.872  0.00  0.00    +0.030 C 
ATOM      5  C   LIG    1        1.132   1.502   0.010  0.00  0.00    +0.040 C 
ATOM      6  C   LIG    1       -1.071   3.801   0.156  0.00  0.00    +0.300 C 
ATOM      7  N   LIG    1       -0.796   3.169  -1.144  0.00  0.00    -0.600 N 
ATOM      8  C   LIG    1       -0.366   3.903  -2.189  0.00  0.00    +0.520 C 
ATOM      9  O   LIG    1       -0.289   5.110  -2.092  0.00  0.00    -0.510 OA
ATOM     10  C   LIG    1       -0.997   1.679  -1.274  0.00  0.00    +0.290 C 
ATOM     11  C   LIG    1       -0.333   1.016  -0.054  0.00  0.00    +0.240 C 
ATOM     12  O   LIG    1       -2.203  -0.152   1.788  0.00  0.00    -0.530 OA
ENDROOT
BRANCH   8  13
ATOM     13  C   LIG    1        0.015   3.231  -3.468  0.00  0.00    +0.520 C 
ATOM     14  N   LIG    1       -0.887   3.111  -4.462  0.00  0.00    -0.600 N 
ATOM     15  C   LIG    1       -2.216   3.728  -4.345  0.00  0.00    +0.260 C 
ATOM     16  C   LIG    1       -3.282   2.663  -4.594  0.00  0.00    +0.020 C 
ATOM     17  C   LIG    1       -3.020   1.986  -5.941  0.00  0.00    -0.010 C 
ATOM     18  C   LIG    1       -1.650   1.303  -5.912  0.00  0.00    +0.020 C 
ATOM     19  C   LIG    1       -4.105   0.940  -6.206  0.00  0.00    +0.030 C 
ATOM     20  C   LIG    1       -0.563   2.358  -5.681  0.00  0.00    +0.280 C 
ATOM     21  O   LIG    1        1.137   2.792  -3.612  0.00  0.00    -0.510 OA
ENDBRANCH   8  13
BRANCH   1  24
ATOM     22  C   LIG    1       -3.873  -0.113   4.113  0.00  0.00    +0.200 C 
ATOM     23  C   LIG    1       -3.237   1.254   4.093  0.00  0.00    +0.050 A 
ATOM     24  C   LIG    1       -2.354   1.722   3.169  0.00  0.00    -0.080 A 
ATOM     25  N   LIG    1       -2.032   2.993   3.533  0.00  0.00    -0.470 NA
ATOM     26  C   LIG    1       -2.688   3.291   4.614  0.00  0.00    +0.440 A 
ATOM     27  O   LIG    1       -3.434   2.240   4.982  0.00  0.00    -0.200 OA
ENDBRANCH   1  24
TORSDOF 2
