REMARK  Name = ZINCpk00000e96aT.0
REMARK                            x       y       z     vdW  Elec       q    Type
REMARK                         _______ _______ _______ _____ _____    ______ ____
ROOT
ATOM      1  C   LIG    1       -1.165   2.538  -3.095  0.00  0.00    +0.070 A 
ATOM      2  C   LIG    1       -0.179   2.294  -2.195  0.00  0.00    +0.150 A 
ATOM      3  N   LIG    1       -0.721   1.571  -1.179  0.00  0.00    -0.370 N 
ATOM      4  N   LIG    1       -2.079   1.379  -1.465  0.00  0.00    -0.280 NA
ATOM      5  C   LIG    1       -2.345   1.956  -2.609  0.00  0.00    +0.200 A 
ENDROOT
BRANCH   1   6
ATOM      6  N   LIG    1       -1.030   3.254  -4.299  0.00  0.00    -0.740 N 
ATOM      7  H   LIG    1       -0.168   3.622  -4.551  0.00  0.00    +0.400 HD
BRANCH   6   8
ATOM      8  C   LIG    1       -2.190   3.445  -5.173  0.00  0.00    +0.230 C 
BRANCH   8   9
ATOM      9  C   LIG    1       -1.774   4.250  -6.406  0.00  0.00    +0.210 C 
BRANCH   9  10
ATOM     10  O   LIG    1       -1.273   5.524  -5.995  0.00  0.00    -0.560 OA
ATOM     11  H   LIG    1       -1.913   6.060  -5.507  0.00  0.00    +0.380 HD
ENDBRANCH   9  10
BRANCH   9  12
ATOM     12  C   LIG    1       -2.986   4.449  -7.318  0.00  0.00    +0.010 C 
BRANCH  12  13
ATOM     13  C   LIG    1       -2.545   5.145  -8.607  0.00  0.00    +0.180 C 
BRANCH  13  14
ATOM     14  O   LIG    1       -3.676   5.330  -9.460  0.00  0.00    -0.390 OA
BRANCH  14  16
ATOM     15  C   LIG    1       -4.341   5.490 -11.778  0.00  0.00    +0.040 C 
ATOM     16  C   LIG    1       -3.372   5.976 -10.698  0.00  0.00    +0.140 C 
ATOM     17  C   LIG    1       -3.511   7.490 -10.531  0.00  0.00    +0.010 C 
ENDBRANCH  14  16
ENDBRANCH  13  14
ENDBRANCH  12  13
ENDBRANCH   9  12
ENDBRANCH   8   9
ENDBRANCH   6   8
ENDBRANCH   1   6
BRANCH   3  18
ATOM     18  C   LIG    1       -0.013   1.086   0.008  0.00  0.00    +0.470 C 
BRANCH  18  19
ATOM     19  C   LIG    1       -0.718   1.572   1.248  0.00  0.00    +0.150 A 
ATOM     20  N   LIG    1       -0.482   2.687   1.890  0.00  0.00    -0.280 NA
ATOM     21  N   LIG    1       -1.275   2.783   2.902  0.00  0.00    -0.290 NA
ATOM     22  C   LIG    1       -2.039   1.734   2.954  0.00  0.00    +0.190 A 
ATOM     23  C   LIG    1       -3.113   1.404   3.960  0.00  0.00    +0.160 C 
ATOM     24  C   LIG    1       -3.984   0.283   3.377  0.00  0.00    +0.030 C 
ATOM     25  C   LIG    1       -3.082  -0.837   2.850  0.00  0.00    +0.040 C 
ATOM     26  C   LIG    1       -2.332  -0.350   1.605  0.00  0.00    +0.290 C 
ATOM     27  N   LIG    1       -1.706   0.937   1.908  0.00  0.00    -0.450 N 
ENDBRANCH  18  19
ENDBRANCH   3  18
TORSDOF 10
