REMARK  Name = ZINCqH0000007m5F.0
REMARK                            x       y       z     vdW  Elec       q    Type
REMARK                         _______ _______ _______ _____ _____    ______ ____
ROOT
ATOM      1  N   LIG    1        3.842  -6.429  -2.683  0.00  0.00    -0.610 N 
ATOM      2  C   LIG    1        3.663  -5.789  -1.510  0.00  0.00    +0.520 C 
ATOM      3  O   LIG    1        3.845  -6.377  -0.465  0.00  0.00    -0.540 OA
ATOM      4  C   LIG    1        3.622  -5.719  -3.945  0.00  0.00    +0.290 C 
ENDROOT
BRANCH   1   5
ATOM      5  C   LIG    1        4.256  -7.834  -2.695  0.00  0.00    +0.320 C 
BRANCH   5   6
ATOM      6  C   LIG    1        3.017  -8.731  -2.688  0.00  0.00    +0.180 C 
BRANCH   6   7
ATOM      7  O   LIG    1        2.285  -8.542  -3.901  0.00  0.00    -0.310 OA
BRANCH   7  11
ATOM      8  C   LIG    1       -1.168 -10.755  -4.370  0.00  0.00    +0.090 A 
ATOM      9  C   LIG    1       -0.766  -9.877  -5.366  0.00  0.00    +0.030 A 
ATOM     10  C   LIG    1        0.389  -9.137  -5.209  0.00  0.00    +0.030 A 
ATOM     11  C   LIG    1        1.148  -9.271  -4.055  0.00  0.00    +0.090 A 
ATOM     12  C   LIG    1        0.749 -10.153  -3.062  0.00  0.00    -0.040 A 
ATOM     13  C   LIG    1       -0.409 -10.890  -3.217  0.00  0.00    -0.040 A 
BRANCH   8  15
ATOM     14  C   LIG    1       -2.658 -12.369  -3.460  0.00  0.00    +0.230 C 
ATOM     15  O   LIG    1       -2.305 -11.485  -4.525  0.00  0.00    -0.320 OA
ENDBRANCH   8  15
ENDBRANCH   7  11
ENDBRANCH   6   7
ENDBRANCH   5   6
ENDBRANCH   1   5
BRANCH   2  16
ATOM     16  C   LIG    1        3.236  -4.344  -1.497  0.00  0.00    +0.070 C 
BRANCH  16  17
ATOM     17  C   LIG    1        3.106  -3.863  -0.050  0.00  0.00    +0.180 C 
BRANCH  17  18
ATOM     18  C   LIG    1        2.680  -2.418  -0.038  0.00  0.00    +0.090 A 
ATOM     19  N   LIG    1        1.462  -2.027  -0.024  0.00  0.00    -0.460 NA
ATOM     20  C   LIG    1        1.227  -0.701  -0.013  0.00  0.00    +0.080 A 
ATOM     21  C   LIG    1        0.002  -0.004   0.002  0.00  0.00    +0.080 A 
ATOM     22  C   LIG    1       -0.016   1.358   0.009  0.00  0.00    +0.030 A 
ATOM     23  C   LIG    1        1.166   2.084   0.002  0.00  0.00    +0.040 A 
ATOM     24  C   LIG    1        2.377   1.430  -0.013  0.00  0.00    +0.060 A 
ATOM     25  C   LIG    1        2.416   0.037  -0.021  0.00  0.00    -0.180 A 
ATOM     26  S   LIG    1        3.761  -1.098  -0.041  0.00  0.00    +0.100 S 
ENDBRANCH  17  18
ENDBRANCH  16  17
ENDBRANCH   2  16
TORSDOF 8
