REMARK  Name = ZINCrD00000F5LBy.0
REMARK                            x       y       z     vdW  Elec       q    Type
REMARK                         _______ _______ _______ _____ _____    ______ ____
ROOT
ATOM      1  C   LIG    1       -4.788   2.362   0.055  0.00  0.00    -0.130 C 
ATOM      2  C   LIG    1       -5.328   1.093   0.004  0.00  0.00    +0.270 C 
ENDROOT
BRANCH   1   3
ATOM      3  C   LIG    1       -3.345   2.559  -0.165  0.00  0.00    +0.340 A 
ATOM      4  N   LIG    1       -2.482   1.602  -0.417  0.00  0.00    -0.490 NA
ATOM      5  C   LIG    1       -1.243   2.133  -0.565  0.00  0.00    +0.050 A 
ATOM      6  C   LIG    1        0.011   1.579  -0.839  0.00  0.00    +0.060 A 
ATOM      7  C   LIG    1        1.113   2.399  -0.938  0.00  0.00    +0.000 A 
ATOM      8  C   LIG    1        0.989   3.770  -0.764  0.00  0.00    +0.030 A 
ATOM      9  C   LIG    1       -0.240   4.332  -0.489  0.00  0.00    +0.010 A 
ATOM     10  C   LIG    1       -1.362   3.522  -0.385  0.00  0.00    +0.050 A 
ATOM     11  N   LIG    1       -2.698   3.766  -0.127  0.00  0.00    -0.590 N 
ATOM     12  H   LIG    1       -3.104   4.632   0.039  0.00  0.00    +0.430 HD
ENDBRANCH   1   3
BRANCH   2  13
ATOM     13  C   LIG    1       -6.732   0.917   0.061  0.00  0.00    -0.190 A 
ATOM     14  C   LIG    1       -7.312   0.181   1.113  0.00  0.00    +0.230 A 
ATOM     15  C   LIG    1       -8.683   0.020   1.162  0.00  0.00    -0.200 A 
ATOM     16  C   LIG    1       -9.489   0.572   0.173  0.00  0.00    +0.220 A 
ATOM     17  C   LIG    1       -8.926   1.295  -0.871  0.00  0.00    -0.140 A 
ATOM     18  C   LIG    1       -7.557   1.472  -0.936  0.00  0.00    +0.250 A 
BRANCH  16  19
ATOM     19  O   LIG    1      -10.834   0.402   0.227  0.00  0.00    -0.310 OA
ATOM     20  C   LIG    1      -11.349  -0.352   1.327  0.00  0.00    +0.240 C 
ENDBRANCH  16  19
BRANCH  14  21
ATOM     21  O   LIG    1       -6.528  -0.363   2.077  0.00  0.00    -0.300 OA
ATOM     22  C   LIG    1       -7.186  -1.096   3.112  0.00  0.00    +0.260 C 
ENDBRANCH  14  21
BRANCH  18  23
ATOM     23  O   LIG    1       -7.010   2.178  -1.957  0.00  0.00    -0.300 OA
ATOM     24  C   LIG    1       -7.909   2.712  -2.932  0.00  0.00    +0.250 C 
ENDBRANCH  18  23
ENDBRANCH   2  13
BRANCH   1  25
ATOM     25  C   LIG    1       -5.652   3.515   0.330  0.00  0.00    +0.520 C 
ATOM     26  O   LIG    1       -6.819   3.345   0.625  0.00  0.00    -0.480 OA
BRANCH  25  28
ATOM     27  C   LIG    1       -6.063   5.859   0.540  0.00  0.00    +0.280 C 
ATOM     28  O   LIG    1       -5.151   4.766   0.255  0.00  0.00    -0.380 OA
ENDBRANCH  25  28
ENDBRANCH   1  25
TORSDOF 7
