REMARK  Name = ZINCpe00000yzab8.0
REMARK                            x       y       z     vdW  Elec       q    Type
REMARK                         _______ _______ _______ _____ _____    ______ ____
ROOT
ATOM      1  N   LIG    1       -0.904   1.714   4.650  0.00  0.00    -1.110 NA
ATOM      2  H   LIG    1       -1.248   2.621   4.631  0.00  0.00    +0.420 HD
ENDROOT
BRANCH   1   6
ATOM      3  C   LIG    1       -0.013   1.086   0.008  0.00  0.00    +0.180 C 
ATOM      4  N   LIG    1       -0.700   1.560   1.217  0.00  0.00    -0.520 NA
ATOM      5  C   LIG    1       -0.013   1.085   2.438  0.00  0.00    +0.160 C 
ATOM      6  C   LIG    1       -1.101   0.831   3.498  0.00  0.00    +0.250 C 
ATOM      7  C   LIG    1       -2.437   1.159   2.793  0.00  0.00    +0.090 C 
ATOM      8  C   LIG    1       -2.080   1.016   1.292  0.00  0.00    +0.190 C 
BRANCH   7   9
ATOM      9  C   LIG    1       -3.505   0.171   3.188  0.00  0.00    -0.030 A 
ATOM     10  C   LIG    1       -3.332  -1.141   3.437  0.00  0.00    +0.160 A 
ATOM     11  N   LIG    1       -4.525  -1.663   3.757  0.00  0.00    -0.490 NA
ATOM     12  C   LIG    1       -5.432  -0.726   3.708  0.00  0.00    +0.400 A 
ATOM     13  N   LIG    1       -4.837   0.434   3.356  0.00  0.00    -0.460 N 
ATOM     14  C   LIG    1       -5.495   1.732   3.186  0.00  0.00    +0.330 C 
ENDBRANCH   7   9
ENDBRANCH   1   6
BRANCH   1  15
ATOM     15  S   LIG    1       -0.094   1.164   5.986  0.00  0.00    +2.600 S 
ATOM     16  O   LIG    1       -0.737  -0.062   6.305  0.00  0.00    -0.940 OA
ATOM     17  O   LIG    1       -0.120   2.262   6.888  0.00  0.00    -0.950 OA
BRANCH  15  18
ATOM     18  C   LIG    1        1.596   0.863   5.398  0.00  0.00    -0.290 C 
BRANCH  18  19
ATOM     19  C   LIG    1        2.440   0.353   6.538  0.00  0.00    -0.100 A 
ATOM     20  C   LIG    1        2.528  -1.006   6.777  0.00  0.00    +0.070 A 
ATOM     21  C   LIG    1        3.301  -1.483   7.821  0.00  0.00    +0.030 A 
ATOM     22  C   LIG    1        3.990  -0.604   8.631  0.00  0.00    +0.080 A 
ATOM     23  C   LIG    1        3.906   0.770   8.395  0.00  0.00    -0.020 A 
ATOM     24  C   LIG    1        3.128   1.243   7.336  0.00  0.00    +0.080 A 
BRANCH  23  25
ATOM     25  C   LIG    1        4.619   1.688   9.231  0.00  0.00    +0.250 C 
ATOM     26  N   LIG    1        5.184   2.417   9.894  0.00  0.00    -0.400 NA
ENDBRANCH  23  25
ENDBRANCH  18  19
ENDBRANCH  15  18
ENDBRANCH   1  15
TORSDOF 6
