REMARK  Name = ZINCpe00000VVGie.0
REMARK                            x       y       z     vdW  Elec       q    Type
REMARK                         _______ _______ _______ _____ _____    ______ ____
ROOT
ATOM      1  C   LIG    1        3.593   2.412  -0.490  0.00  0.00    +0.300 C 
ENDROOT
BRANCH   1  11
ATOM      2  C   LIG    1       -1.790   3.183  -0.193  0.00  0.00    +0.360 C 
ATOM      3  N   LIG    1       -1.278   1.867  -0.581  0.00  0.00    -0.350 N 
ATOM      4  N   LIG    1       -2.055   0.746  -0.901  0.00  0.00    -0.270 NA
ATOM      5  C   LIG    1       -1.274  -0.255  -1.200  0.00  0.00    +0.330 A 
ATOM      6  C   LIG    1        0.060   0.177  -1.091  0.00  0.00    -0.350 A 
ATOM      7  C   LIG    1        1.365  -0.455  -1.290  0.00  0.00    +0.580 A 
ATOM      8  O   LIG    1        1.457  -1.621  -1.628  0.00  0.00    -0.520 OA
ATOM      9  N   LIG    1        2.466   0.305  -1.084  0.00  0.00    -0.650 N 
ATOM     10  H   LIG    1        3.348  -0.079  -1.206  0.00  0.00    +0.420 HD
ATOM     11  C   LIG    1        2.341   1.603  -0.708  0.00  0.00    +0.450 A 
ATOM     12  N   LIG    1        1.190   2.181  -0.526  0.00  0.00    -0.500 NA
ATOM     13  C   LIG    1        0.031   1.526  -0.702  0.00  0.00    +0.340 A 
ENDBRANCH   1  11
BRANCH   1  14
ATOM     14  N   LIG    1        3.230   3.779  -0.092  0.00  0.00    -0.500 NA
BRANCH  14  15
ATOM     15  C   LIG    1        4.389   4.678  -0.181  0.00  0.00    +0.190 C 
BRANCH  15  16
ATOM     16  C   LIG    1        3.943   6.113   0.107  0.00  0.00    +0.150 C 
ATOM     17  C   LIG    1        5.144   7.070  -0.021  0.00  0.00    +0.010 C 
ATOM     18  C   LIG    1        4.711   8.078  -1.114  0.00  0.00    +0.000 C 
ATOM     19  C   LIG    1        3.168   7.934  -1.095  0.00  0.00    +0.190 C 
ATOM     20  O   LIG    1        2.963   6.524  -0.861  0.00  0.00    -0.350 OA
ENDBRANCH  15  16
ENDBRANCH  14  15
BRANCH  14  21
ATOM     21  C   LIG    1        2.652   3.797   1.258  0.00  0.00    +0.240 C 
BRANCH  21  22
ATOM     22  C   LIG    1        3.727   3.417   2.279  0.00  0.00    +0.100 C 
ATOM     23  C   LIG    1        3.185   3.613   3.708  0.00  0.00    +0.010 C 
ATOM     24  C   LIG    1        3.306   2.212   4.356  0.00  0.00    +0.010 C 
ATOM     25  C   LIG    1        4.370   1.530   3.458  0.00  0.00    +0.190 C 
ATOM     26  O   LIG    1        4.064   2.026   2.137  0.00  0.00    -0.370 OA
ENDBRANCH  21  22
ENDBRANCH  14  21
ENDBRANCH   1  14
TORSDOF 6
