REMARK  Name = ZINCpe00000bpwwr.0
REMARK                            x       y       z     vdW  Elec       q    Type
REMARK                         _______ _______ _______ _____ _____    ______ ____
ROOT
ATOM      1  C   LIG    1       -0.741   1.728  -1.223  0.00  0.00    +0.250 C 
ATOM      2  C   LIG    1       -2.216   1.651  -0.748  0.00  0.00    +0.040 C 
ATOM      3  C   LIG    1       -2.108   1.943   0.764  0.00  0.00    +0.250 C 
ATOM      4  N   LIG    1       -0.728   1.630   1.173  0.00  0.00    -0.610 N 
ATOM      5  C   LIG    1       -0.223   1.771   2.415  0.00  0.00    +0.600 C 
ATOM      6  O   LIG    1        0.909   1.398   2.657  0.00  0.00    -0.530 OA
ATOM      7  C   LIG    1        0.010   1.137  -0.004  0.00  0.00    +0.270 C 
ENDROOT
BRANCH   5   8
ATOM      8  C   LIG    1       -1.043   2.379   3.480  0.00  0.00    -0.310 A 
ATOM      9  C   LIG    1       -2.395   2.676   3.265  0.00  0.00    +0.400 A 
ATOM     10  N   LIG    1       -3.096   3.215   4.246  0.00  0.00    -0.570 NA
ATOM     11  C   LIG    1       -2.533   3.484   5.417  0.00  0.00    +0.580 A 
ATOM     12  N   LIG    1       -1.255   3.223   5.657  0.00  0.00    -0.570 NA
ATOM     13  C   LIG    1       -0.488   2.679   4.731  0.00  0.00    +0.440 A 
BRANCH  11  14
ATOM     14  N   LIG    1       -3.300   4.052   6.413  0.00  0.00    -0.810 N 
ATOM     15  H   LIG    1       -4.236   4.248   6.252  0.00  0.00    +0.420 HD
ATOM     16  H   LIG    1       -2.903   4.254   7.274  0.00  0.00    +0.420 HD
ENDBRANCH  11  14
ENDBRANCH   5   8
BRANCH   1  17
ATOM     17  N   LIG    1       -0.530   0.907  -2.418  0.00  0.00    -0.610 N 
ATOM     18  C   LIG    1       -0.886  -0.393  -2.414  0.00  0.00    +0.520 C 
ATOM     19  O   LIG    1       -1.381  -0.883  -1.421  0.00  0.00    -0.510 OA
BRANCH  17  21
ATOM     20  C   LIG    1        1.588   1.348  -3.558  0.00  0.00    +0.010 C 
ATOM     21  C   LIG    1        0.067   1.500  -3.617  0.00  0.00    +0.260 C 
ENDBRANCH  17  21
BRANCH  18  22
ATOM     22  C   LIG    1       -0.670  -1.237  -3.643  0.00  0.00    +0.150 C 
BRANCH  22  23
ATOM     23  C   LIG    1       -1.148  -2.641  -3.379  0.00  0.00    +0.080 A 
ATOM     24  C   LIG    1       -2.046  -3.257  -4.155  0.00  0.00    -0.070 A 
ATOM     25  S   LIG    1       -2.319  -4.867  -3.494  0.00  0.00    +0.120 S 
ATOM     26  C   LIG    1       -1.199  -4.552  -2.241  0.00  0.00    +0.230 A 
ATOM     27  N   LIG    1       -0.712  -3.364  -2.368  0.00  0.00    -0.450 NA
ENDBRANCH  22  23
ENDBRANCH  18  22
ENDBRANCH   1  17
TORSDOF 6
