REMARK  Name = ZINCqH0000006dj9.0
REMARK                            x       y       z     vdW  Elec       q    Type
REMARK                         _______ _______ _______ _____ _____    ______ ____
ROOT
ATOM      1  N   LIG    1        6.108   1.578  -1.640  0.00  0.00    -0.600 N 
ATOM      2  C   LIG    1        6.633   2.761  -2.015  0.00  0.00    +0.570 C 
ATOM      3  O   LIG    1        6.551   3.723  -1.276  0.00  0.00    -0.520 OA
ENDROOT
BRANCH   2   4
ATOM      4  C   LIG    1        7.308   2.889  -3.324  0.00  0.00    -0.100 A 
ATOM      5  C   LIG    1        8.300   1.979  -3.693  0.00  0.00    +0.030 A 
ATOM      6  C   LIG    1        8.922   2.101  -4.918  0.00  0.00    -0.080 A 
ATOM      7  C   LIG    1        8.574   3.130  -5.775  0.00  0.00    +0.020 A 
ATOM      8  C   LIG    1        7.596   4.039  -5.413  0.00  0.00    -0.080 A 
ATOM      9  C   LIG    1        7.222   5.156  -6.353  0.00  0.00    +0.090 C 
ATOM     10  C   LIG    1        9.989   1.116  -5.321  0.00  0.00    +0.090 C 
ATOM     11  C   LIG    1        6.961   3.925  -4.193  0.00  0.00    +0.060 A 
ENDBRANCH   2   4
BRANCH   1  12
ATOM     12  C   LIG    1        6.112   0.447  -2.572  0.00  0.00    +0.310 C 
BRANCH  12  13
ATOM     13  C   LIG    1        4.822   0.460  -3.395  0.00  0.00    +0.150 C 
BRANCH  13  15
ATOM     14  C   LIG    1        3.624   1.737  -5.032  0.00  0.00    +0.190 C 
ATOM     15  O   LIG    1        4.794   1.628  -4.218  0.00  0.00    -0.380 OA
ENDBRANCH  13  15
ENDBRANCH  12  13
ENDBRANCH   1  12
BRANCH   1  16
ATOM     16  C   LIG    1        5.533   1.422  -0.302  0.00  0.00    +0.460 C 
BRANCH  16  17
ATOM     17  C   LIG    1        4.068   1.774  -0.340  0.00  0.00    +0.150 A 
ATOM     18  N   LIG    1        3.086   0.951  -0.576  0.00  0.00    -0.270 NA
ATOM     19  N   LIG    1        1.969   1.588  -0.531  0.00  0.00    -0.270 NA
ATOM     20  C   LIG    1        2.203   2.854  -0.262  0.00  0.00    +0.240 A 
ATOM     21  O   LIG    1        3.540   2.995  -0.141  0.00  0.00    -0.210 OA
BRANCH  20  22
ATOM     22  C   LIG    1        1.197   3.917  -0.124  0.00  0.00    -0.160 A 
ATOM     23  C   LIG    1       -0.148   3.751  -0.256  0.00  0.00    +0.100 A 
ATOM     24  C   LIG    1       -0.884   4.903  -0.087  0.00  0.00    +0.010 A 
ATOM     25  C   LIG    1       -0.170   6.000   0.189  0.00  0.00    -0.010 A 
ATOM     26  S   LIG    1        1.543   5.604   0.236  0.00  0.00    +0.180 S 
ENDBRANCH  20  22
ENDBRANCH  16  17
ENDBRANCH   1  16
TORSDOF 7
