REMARK  Name = ZINCrg000000tQS3.1
REMARK                            x       y       z     vdW  Elec       q    Type
REMARK                         _______ _______ _______ _____ _____    ______ ____
ROOT
ATOM      1  O   LIG    1        2.943  11.861   1.968  0.00  0.00    -0.510 OA
ATOM      2  C   LIG    1        3.042  11.413   0.845  0.00  0.00    +0.510 C 
ATOM      3  C   LIG    1        4.019  10.303   0.573  0.00  0.00    +0.340 C 
ATOM      4  N   LIG    1        3.526   9.486  -0.546  0.00  0.00    -0.560 N 
ATOM      5  C   LIG    1        2.959  10.152  -1.644  0.00  0.00    +0.110 A 
ATOM      6  C   LIG    1        3.018   9.610  -2.915  0.00  0.00    +0.060 A 
ATOM      7  C   LIG    1        2.454  10.293  -3.979  0.00  0.00    +0.010 A 
ATOM      8  C   LIG    1        1.834  11.511  -3.773  0.00  0.00    +0.030 A 
ATOM      9  C   LIG    1        1.770  12.057  -2.504  0.00  0.00    +0.000 A 
ATOM     10  C   LIG    1        2.331  11.380  -1.433  0.00  0.00    +0.130 A 
ATOM     11  C   LIG    1        3.609   8.142  -0.515  0.00  0.00    +0.490 C 
ATOM     12  O   LIG    1        3.191   7.486  -1.446  0.00  0.00    -0.500 OA
ATOM     13  N   LIG    1        2.272  11.912  -0.140  0.00  0.00    -0.660 N 
ATOM     14  H   LIG    1        1.671  12.650   0.048  0.00  0.00    +0.420 HD
ENDROOT
BRANCH  11  15
ATOM     15  C   LIG    1        4.221   7.452   0.677  0.00  0.00    +0.250 C 
BRANCH  15  16
ATOM     16  N   LIG    1        4.194   5.998   0.469  0.00  0.00    -0.510 NA
ATOM     17  C   LIG    1        5.067   5.610  -0.646  0.00  0.00    +0.170 C 
ATOM     18  C   LIG    1        5.128   4.083  -0.741  0.00  0.00    +0.020 C 
ATOM     19  C   LIG    1        3.715   3.534  -0.959  0.00  0.00    +0.020 C 
ATOM     20  C   LIG    1        2.815   3.993   0.191  0.00  0.00    +0.000 C 
ATOM     21  C   LIG    1        2.821   5.522   0.259  0.00  0.00    +0.190 C 
BRANCH  20  22
ATOM     22  C   LIG    1        1.387   3.498  -0.050  0.00  0.00    +0.170 C 
BRANCH  22  23
ATOM     23  N   LIG    1        1.362   2.030   0.000  0.00  0.00    -0.530 NA
ATOM     24  C   LIG    1       -0.019   1.527   0.010  0.00  0.00    +0.150 C 
ATOM     25  C   LIG    1        0.002  -0.004   0.002  0.00  0.00    +0.220 C 
ATOM     26  O   LIG    1        0.757  -0.472   1.123  0.00  0.00    -0.390 OA
ATOM     27  C   LIG    1        2.108  -0.001   1.144  0.00  0.00    +0.220 C 
ATOM     28  C   LIG    1        2.108   1.530   1.164  0.00  0.00    +0.140 C 
ENDBRANCH  22  23
ENDBRANCH  20  22
ENDBRANCH  15  16
ENDBRANCH  11  15
TORSDOF 4
