REMARK  Name = ZINCrH00000tj0Zj.0
REMARK                            x       y       z     vdW  Elec       q    Type
REMARK                         _______ _______ _______ _____ _____    ______ ____
ROOT
ATOM      1  O   LIG    1        0.442  -6.568   3.095  0.00  0.00    -0.520 OA
ATOM      2  C   LIG    1        0.384  -7.028   1.970  0.00  0.00    +0.600 C 
ATOM      3  N   LIG    1        0.068  -6.229   0.931  0.00  0.00    -0.720 N 
ATOM      4  H   LIG    1        0.022  -6.596   0.035  0.00  0.00    +0.400 HD
ENDROOT
BRANCH   3   5
ATOM      5  C   LIG    1       -0.205  -4.808   1.157  0.00  0.00    +0.240 C 
ATOM      6  C   LIG    1       -1.104  -4.276   0.037  0.00  0.00    +0.030 C 
ATOM      7  C   LIG    1       -1.336  -2.777   0.244  0.00  0.00    +0.210 C 
ATOM      8  N   LIG    1       -0.046  -2.075   0.236  0.00  0.00    -0.480 N 
ATOM      9  C   LIG    1        0.816  -2.536   1.332  0.00  0.00    +0.200 C 
ATOM     10  C   LIG    1        1.113  -4.027   1.157  0.00  0.00    +0.030 C 
BRANCH   8  11
ATOM     11  C   LIG    1       -0.228  -0.698   0.290  0.00  0.00    +0.310 A 
ATOM     12  C   LIG    1        0.879   0.144   0.291  0.00  0.00    -0.050 A 
ATOM     13  C   LIG    1        0.684   1.512   0.346  0.00  0.00    +0.090 A 
ATOM     14  C   LIG    1       -0.617   1.994   0.398  0.00  0.00    -0.070 A 
ATOM     15  C   LIG    1       -1.670   1.101   0.393  0.00  0.00    +0.290 A 
ATOM     16  N   LIG    1       -1.454  -0.200   0.341  0.00  0.00    -0.520 NA
ENDBRANCH   8  11
ENDBRANCH   3   5
BRANCH   2  17
ATOM     17  C   LIG    1        0.658  -8.455   1.744  0.00  0.00    -0.250 A 
ATOM     18  C   LIG    1        1.104  -9.409   2.663  0.00  0.00    +0.090 A 
ATOM     19  O   LIG    1        1.198 -10.558   1.975  0.00  0.00    +0.120 OA
ATOM     20  N   LIG    1        0.887 -10.417   0.817  0.00  0.00    -0.350 NA
ATOM     21  C   LIG    1        0.538  -9.198   0.535  0.00  0.00    +0.230 A 
BRANCH  18  22
ATOM     22  C   LIG    1        1.407  -9.198   4.091  0.00  0.00    -0.040 A 
ATOM     23  C   LIG    1        2.226  -8.137   4.485  0.00  0.00    +0.110 A 
ATOM     24  C   LIG    1        2.501  -7.942   5.822  0.00  0.00    +0.030 A 
ATOM     25  C   LIG    1        1.977  -8.803   6.773  0.00  0.00    -0.010 A 
ATOM     26  C   LIG    1        1.169  -9.860   6.388  0.00  0.00    +0.020 A 
ATOM     27 CL   LIG    1        2.333  -8.555   8.454  0.00  0.00    -0.060 Cl
ATOM     28  C   LIG    1        0.881 -10.062   5.055  0.00  0.00    +0.070 A 
ENDBRANCH  18  22
ENDBRANCH   2  17
TORSDOF 4
