REMARK  Name = ZINCrD000000C8j7.1
REMARK                            x       y       z     vdW  Elec       q    Type
REMARK                         _______ _______ _______ _____ _____    ______ ____
ROOT
ATOM      1  O   LIG    1        2.200   5.332   0.110  0.00  0.00    -0.510 OA
ATOM      2  C   LIG    1        1.148   5.940   0.123  0.00  0.00    +0.560 C 
ATOM      3  N   LIG    1       -0.019   5.272   0.029  0.00  0.00    -0.660 N 
ATOM      4  H   LIG    1       -0.854   5.761  -0.041  0.00  0.00    +0.410 HD
ENDROOT
BRANCH   3   5
ATOM      5  C   LIG    1       -0.026   3.875   0.034  0.00  0.00    +0.140 A 
ATOM      6  C   LIG    1        1.010   3.174   0.626  0.00  0.00    +0.060 A 
ATOM      7  C   LIG    1        1.010   1.786   0.633  0.00  0.00    +0.030 A 
ATOM      8  C   LIG    1       -0.018   1.076   0.054  0.00  0.00    +0.080 A 
ATOM      9  C   LIG    1       -1.072   1.758  -0.554  0.00  0.00    -0.140 A 
ATOM     10  C   LIG    1       -2.189   1.052  -1.192  0.00  0.00    +0.550 A 
ATOM     11  O   LIG    1       -2.221  -0.166  -1.203  0.00  0.00    -0.520 OA
ATOM     12  N   LIG    1       -3.179   1.765  -1.764  0.00  0.00    -0.630 N 
ATOM     13  H   LIG    1       -3.914   1.292  -2.184  0.00  0.00    +0.420 HD
ATOM     14  C   LIG    1       -3.182   3.131  -1.772  0.00  0.00    +0.280 A 
ATOM     15  C   LIG    1       -2.204   3.856  -1.203  0.00  0.00    -0.070 A 
ATOM     16  C   LIG    1       -1.082   3.171  -0.561  0.00  0.00    -0.020 A 
ENDBRANCH   3   5
BRANCH   2  17
ATOM     17  C   LIG    1        1.148   7.414   0.241  0.00  0.00    -0.140 A 
ATOM     18  C   LIG    1       -0.058   8.117   0.251  0.00  0.00    +0.050 A 
ATOM     19  C   LIG    1       -0.051   9.491   0.368  0.00  0.00    +0.030 A 
ATOM     20  C   LIG    1        1.148  10.174   0.463  0.00  0.00    -0.050 A 
ATOM     21  C   LIG    1        2.348   9.484   0.449  0.00  0.00    +0.010 A 
ATOM     22  C   LIG    1        2.354   8.109   0.339  0.00  0.00    +0.090 A 
BRANCH  20  23
ATOM     23  C   LIG    1        1.149  11.676   0.584  0.00  0.00    +0.230 C 
BRANCH  23  24
ATOM     24  N   LIG    1        1.196  12.275  -0.756  0.00  0.00    -0.550 NA
ATOM     25  C   LIG    1        2.448  11.939  -1.438  0.00  0.00    +0.190 C 
ATOM     26  C   LIG    1        2.302  12.179  -2.944  0.00  0.00    +0.130 C 
ATOM     27  S   LIG    1        1.967  13.946  -3.217  0.00  0.00    -0.270 S 
ATOM     28  C   LIG    1        0.577  14.244  -2.082  0.00  0.00    +0.120 C 
ATOM     29  C   LIG    1        0.961  13.720  -0.695  0.00  0.00    +0.200 C 
ENDBRANCH  23  24
ENDBRANCH  20  23
ENDBRANCH   2  17
TORSDOF 4
