REMARK  Name = ZINCrg00000xBPqa.0
REMARK                            x       y       z     vdW  Elec       q    Type
REMARK                         _______ _______ _______ _____ _____    ______ ____
ROOT
ATOM      1  C   LIG    1       -1.272   3.262  -3.587  0.00  0.00    +0.070 C 
ATOM      2  C   LIG    1       -0.997   1.758  -3.630  0.00  0.00    +0.140 C 
ATOM      3  C   LIG    1       -2.228   0.913  -4.005  0.00  0.00    +0.290 C 
ATOM      4  N   LIG    1       -1.303   0.128  -4.851  0.00  0.00    -0.650 N 
ATOM      5  C   LIG    1       -1.300  -1.132  -5.330  0.00  0.00    +0.540 C 
ATOM      6  O   LIG    1       -0.380  -1.516  -6.021  0.00  0.00    -0.530 OA
ATOM      7  C   LIG    1       -0.384   1.277  -4.958  0.00  0.00    +0.300 C 
ENDROOT
BRANCH   2   8
ATOM      8  N   LIG    1       -0.288   1.272  -2.443  0.00  0.00    -0.710 N 
ATOM      9  H   LIG    1        0.507   0.726  -2.543  0.00  0.00    +0.410 HD
ATOM     10  C   LIG    1       -0.742   1.585  -1.213  0.00  0.00    +0.520 C 
ATOM     11  O   LIG    1       -1.736   2.268  -1.088  0.00  0.00    -0.500 OA
BRANCH  10  12
ATOM     12  C   LIG    1       -0.013   1.086   0.008  0.00  0.00    +0.190 C 
BRANCH  12  13
ATOM     13  C   LIG    1       -0.718   1.572   1.248  0.00  0.00    +0.320 A 
ATOM     14  N   LIG    1       -0.999   2.818   1.532  0.00  0.00    -0.540 NA
ATOM     15  C   LIG    1       -1.628   2.882   2.710  0.00  0.00    +0.480 A 
ATOM     16  N   LIG    1       -1.754   1.667   3.188  0.00  0.00    -0.370 NA
ATOM     17  N   LIG    1       -1.173   0.800   2.249  0.00  0.00    -0.480 N 
ATOM     18  H   LIG    1       -1.110  -0.166   2.312  0.00  0.00    +0.440 HD
BRANCH  15  19
ATOM     19  N   LIG    1       -2.077   4.051   3.329  0.00  0.00    -0.820 N 
ATOM     20  H   LIG    1       -2.526   4.003   4.187  0.00  0.00    +0.410 HD
ATOM     21  H   LIG    1       -1.940   4.910   2.900  0.00  0.00    +0.420 HD
ENDBRANCH  15  19
ENDBRANCH  12  13
ENDBRANCH  10  12
ENDBRANCH   2   8
BRANCH   5  22
ATOM     22  C   LIG    1       -2.441  -2.063  -5.010  0.00  0.00    +0.070 C 
BRANCH  22  23
ATOM     23  C   LIG    1       -2.193  -3.420  -5.671  0.00  0.00    +0.110 C 
BRANCH  23  24
ATOM     24  C   LIG    1       -3.334  -4.351  -5.350  0.00  0.00    -0.050 A 
ATOM     25  C   LIG    1       -3.232  -5.228  -4.287  0.00  0.00    +0.030 A 
ATOM     26  C   LIG    1       -4.280  -6.079  -3.988  0.00  0.00    +0.060 A 
ATOM     27  C   LIG    1       -5.426  -6.062  -4.759  0.00  0.00    +0.000 A 
ATOM     28  C   LIG    1       -5.529  -5.188  -5.828  0.00  0.00    +0.110 A 
ATOM     29  F   LIG    1       -6.649  -5.171  -6.583  0.00  0.00    -0.130 F 
ATOM     30  C   LIG    1       -4.481  -4.332  -6.124  0.00  0.00    -0.080 A 
ATOM     31 CL   LIG    1       -4.607  -3.235  -7.463  0.00  0.00    -0.040 Cl
ENDBRANCH  23  24
ENDBRANCH  22  23
ENDBRANCH   5  22
TORSDOF 7
