REMARK  Name = ZINCvU0000000CQm.0
REMARK                            x       y       z     vdW  Elec       q    Type
REMARK                         _______ _______ _______ _____ _____    ______ ____
ROOT
ATOM      1  C   LIG    1       -2.542  10.100  -0.996  0.00  0.00    +0.260 A 
ATOM      2  N   LIG    1       -1.422  10.698  -0.671  0.00  0.00    -0.490 NA
ATOM      3  C   LIG    1       -1.527  12.030  -0.918  0.00  0.00    +0.060 A 
ATOM      4  C   LIG    1       -0.651  13.107  -0.759  0.00  0.00    +0.060 A 
ATOM      5  C   LIG    1       -1.056  14.376  -1.109  0.00  0.00    +0.010 A 
ATOM      6  C   LIG    1       -2.327  14.593  -1.619  0.00  0.00    +0.030 A 
ATOM      7  C   LIG    1       -3.204  13.540  -1.783  0.00  0.00    +0.010 A 
ATOM      8  C   LIG    1       -2.814  12.257  -1.435  0.00  0.00    +0.060 A 
ATOM      9  N   LIG    1       -3.435  11.018  -1.480  0.00  0.00    -0.420 N 
ENDROOT
BRANCH   9  10
ATOM     10  C   LIG    1       -4.736  10.755  -1.933  0.00  0.00    +0.070 A 
ATOM     11  C   LIG    1       -5.063  10.965  -3.266  0.00  0.00    +0.070 A 
ATOM     12  C   LIG    1       -6.342  10.701  -3.713  0.00  0.00    -0.060 A 
ATOM     13  C   LIG    1       -7.304  10.236  -2.828  0.00  0.00    +0.150 A 
ATOM     14  C   LIG    1       -6.980  10.031  -1.495  0.00  0.00    +0.000 A 
ATOM     15  C   LIG    1       -5.699  10.289  -1.048  0.00  0.00    +0.080 A 
BRANCH  13  16
ATOM     16  O   LIG    1       -8.566   9.982  -3.267  0.00  0.00    -0.310 OA
ATOM     17  C   LIG    1       -8.830  10.216  -4.652  0.00  0.00    +0.250 C 
ENDBRANCH  13  16
ENDBRANCH   9  10
BRANCH   1  18
ATOM     18  S   LIG    1       -2.849   8.372  -0.842  0.00  0.00    +0.080 S 
BRANCH  18  19
ATOM     19  C   LIG    1       -1.262   7.830  -0.162  0.00  0.00    +0.020 C 
ATOM     20  C   LIG    1       -1.066   8.441   1.226  0.00  0.00    +0.090 C 
BRANCH  19  23
ATOM     21  N   LIG    1       -0.075   5.668   0.031  0.00  0.00    -0.660 N 
ATOM     22  H   LIG    1        0.756   6.164   0.103  0.00  0.00    +0.410 HD
ATOM     23  C   LIG    1       -1.248   6.327  -0.056  0.00  0.00    +0.540 C 
ATOM     24  O   LIG    1       -2.292   5.710  -0.049  0.00  0.00    -0.500 OA
BRANCH  21  28
ATOM     25  C   LIG    1       -0.018   1.503  -0.005  0.00  0.00    -0.090 A 
ATOM     26  C   LIG    1        0.915   2.199   0.741  0.00  0.00    +0.030 A 
ATOM     27  C   LIG    1        0.902   3.580   0.751  0.00  0.00    -0.010 A 
ATOM     28  C   LIG    1       -0.055   4.269   0.019  0.00  0.00    +0.140 A 
ATOM     29  C   LIG    1       -0.994   3.567  -0.725  0.00  0.00    +0.010 A 
ATOM     30  C   LIG    1       -0.973   2.186  -0.735  0.00  0.00    +0.030 A 
BRANCH  25  32
ATOM     31  C   LIG    1        0.895  -0.492  -1.161  0.00  0.00    +0.030 C 
ATOM     32  C   LIG    1        0.003  -0.004  -0.018  0.00  0.00    +0.050 C 
ENDBRANCH  25  32
ENDBRANCH  21  28
ENDBRANCH  19  23
ENDBRANCH  18  19
ENDBRANCH   1  18
TORSDOF 7
