REMARK  Name = ZINCpk00000KfKQO.0
REMARK                            x       y       z     vdW  Elec       q    Type
REMARK                         _______ _______ _______ _____ _____    ______ ____
ROOT
ATOM      1  N   LIG    1        1.143   1.898   0.001  0.00  0.00    -0.570 N 
ATOM      2  H   LIG    1        1.130   2.868   0.007  0.00  0.00    +0.410 HD
ATOM      3  C   LIG    1       -0.014   1.208   0.009  0.00  0.00    +0.540 C 
ATOM      4  O   LIG    1        0.002  -0.004   0.002  0.00  0.00    -0.450 OA
ENDROOT
BRANCH   1  17
ATOM      5  O   LIG    1        2.773   4.178  -0.002  0.00  0.00    -0.500 OA
ATOM      6  C   LIG    1        3.666   3.352  -0.014  0.00  0.00    +0.550 C 
ATOM      7  N   LIG    1        4.984   3.612  -0.025  0.00  0.00    -0.640 N 
ATOM      8  H   LIG    1        5.365   4.504  -0.024  0.00  0.00    +0.430 HD
ATOM      9  C   LIG    1        5.733   2.439  -0.038  0.00  0.00    +0.150 A 
ATOM     10  C   LIG    1        7.106   2.221  -0.052  0.00  0.00    +0.050 A 
ATOM     11  C   LIG    1        7.604   0.934  -0.050  0.00  0.00    +0.050 A 
ATOM     12  C   LIG    1        6.746  -0.155  -0.046  0.00  0.00    +0.080 A 
ATOM     13  C   LIG    1        5.378   0.043  -0.037  0.00  0.00    +0.080 A 
ATOM     14  F   LIG    1        7.247  -1.410  -0.052  0.00  0.00    -0.130 F 
ATOM     15  C   LIG    1        4.869   1.337  -0.031  0.00  0.00    -0.070 A 
ATOM     16  C   LIG    1        3.492   1.885  -0.021  0.00  0.00    +0.070 C 
ATOM     17  N   LIG    1        2.366   1.214  -0.014  0.00  0.00    -0.110 NA
ENDBRANCH   1  17
BRANCH   3  18
ATOM     18  C   LIG    1       -1.330   1.944   0.019  0.00  0.00    +0.160 C 
ATOM     19  C   LIG    1       -1.496   2.725  -1.292  0.00  0.00    +0.250 C 
ATOM     20  O   LIG    1       -2.759   3.399  -1.255  0.00  0.00    -0.300 OA
ATOM     21  C   LIG    1       -3.830   2.668  -0.843  0.00  0.00    +0.040 A 
ATOM     22  C   LIG    1       -5.111   3.125  -1.115  0.00  0.00    +0.030 A 
ATOM     23  C   LIG    1       -6.209   2.397  -0.698  0.00  0.00    +0.030 A 
ATOM     24  C   LIG    1       -6.035   1.212  -0.008  0.00  0.00    +0.030 A 
ATOM     25  C   LIG    1       -4.761   0.750   0.266  0.00  0.00    +0.030 A 
ATOM     26  C   LIG    1       -3.655   1.475  -0.151  0.00  0.00    +0.050 A 
ATOM     27  O   LIG    1       -2.406   1.006   0.123  0.00  0.00    -0.280 OA
ENDBRANCH   3  18
TORSDOF 2
