REMARK  Name = ZINCtV00000L6jz7.0
REMARK                            x       y       z     vdW  Elec       q    Type
REMARK                         _______ _______ _______ _____ _____    ______ ____
ROOT
ATOM      1  C   LIG    1        0.053   1.328  -0.046  0.00  0.00    +0.090 C 
ATOM      2  C   LIG    1       -0.662   1.778   1.202  0.00  0.00    -0.110 A 
ATOM      3  C   LIG    1       -1.982   2.171   1.136  0.00  0.00    +0.070 A 
ATOM      4  C   LIG    1       -2.654   2.581   2.276  0.00  0.00    -0.010 A 
ATOM      5  C   LIG    1       -2.004   2.612   3.491  0.00  0.00    +0.090 A 
ATOM      6  C   LIG    1       -0.668   2.223   3.571  0.00  0.00    -0.100 A 
ATOM      7  C   LIG    1        0.297   2.139   4.683  0.00  0.00    +0.110 A 
ATOM      8  N   LIG    1        0.211   2.407   5.972  0.00  0.00    -0.390 NA
ATOM      9  C   LIG    1        1.278   2.229   6.757  0.00  0.00    +0.060 A 
ATOM     10  C   LIG    1        1.214   2.506   8.135  0.00  0.00    +0.070 A 
ATOM     11  C   LIG    1        2.314   2.317   8.913  0.00  0.00    +0.030 A 
ATOM     12  C   LIG    1        3.508   1.852   8.364  0.00  0.00    +0.060 A 
ATOM     13  C   LIG    1        3.608   1.573   7.036  0.00  0.00    +0.040 A 
ATOM     14  C   LIG    1        2.493   1.756   6.199  0.00  0.00    +0.130 A 
ATOM     15  N   LIG    1        2.568   1.489   4.891  0.00  0.00    -0.460 NA
ATOM     16  C   LIG    1        1.510   1.666   4.120  0.00  0.00    +0.330 A 
ATOM     17  N   LIG    1        1.312   1.473   2.769  0.00  0.00    -0.490 N 
ATOM     18  C   LIG    1        0.012   1.801   2.419  0.00  0.00    +0.170 A 
ENDROOT
BRANCH  17  19
ATOM     19  C   LIG    1        2.331   0.989   1.835  0.00  0.00    +0.310 C 
BRANCH  19  20
ATOM     20  C   LIG    1        3.098   2.179   1.255  0.00  0.00    +0.020 C 
BRANCH  20  21
ATOM     21  C   LIG    1        4.163   1.674   0.280  0.00  0.00    +0.200 C 
BRANCH  21  22
ATOM     22  O   LIG    1        4.879   2.785  -0.262  0.00  0.00    -0.310 OA
BRANCH  22  23
ATOM     23  C   LIG    1        5.868   2.508  -1.152  0.00  0.00    +0.150 A 
ATOM     24  C   LIG    1        6.147   1.192  -1.492  0.00  0.00    -0.060 A 
ATOM     25  C   LIG    1        7.149   0.912  -2.401  0.00  0.00    +0.090 A 
ATOM     26  C   LIG    1        7.881   1.943  -2.963  0.00  0.00    -0.130 A 
ATOM     27  C   LIG    1        7.608   3.255  -2.622  0.00  0.00    +0.090 A 
ATOM     28 BR   LIG    1        9.257   1.557  -4.202  0.00  0.00    -0.050 Br
ATOM     29  C   LIG    1        6.603   3.539  -1.717  0.00  0.00    -0.010 A 
ENDBRANCH  22  23
ENDBRANCH  21  22
ENDBRANCH  20  21
ENDBRANCH  19  20
ENDBRANCH  17  19
TORSDOF 5
