REMARK  Name = ZINC9u0000000C4m.0
REMARK                            x       y       z     vdW  Elec       q    Type
REMARK                         _______ _______ _______ _____ _____    ______ ____
ROOT
ATOM      1  C   LIG    1        0.011   1.072   2.506  0.00  0.00    -0.040 C 
ATOM      2  C   LIG    1        1.405   1.701   2.561  0.00  0.00    +0.050 C 
ENDROOT
BRANCH   1   3
ATOM      3  C   LIG    1       -0.761   1.454   3.743  0.00  0.00    +0.360 C 
ATOM      4  O   LIG    1       -1.504   2.405   3.721  0.00  0.00    -0.450 OA
BRANCH   3   5
ATOM      5  C   LIG    1       -0.605   0.648   5.007  0.00  0.00    +0.020 C 
ATOM      6  C   LIG    1       -1.491   1.242   6.103  0.00  0.00    +0.030 C 
ENDBRANCH   3   5
ENDBRANCH   1   3
BRANCH   1   7
ATOM      7  C   LIG    1       -0.729   1.579   1.267  0.00  0.00    +0.020 C 
BRANCH   7   9
ATOM      8  C   LIG    1       -0.753   1.593  -1.232  0.00  0.00    +0.000 C 
ATOM      9  C   LIG    1       -0.013   1.086   0.008  0.00  0.00    +0.000 C 
ENDBRANCH   7   9
ENDBRANCH   1   7
TORSDOF 4
