REMARK  Name = ZINCqH0000038mvi.0
REMARK                            x       y       z     vdW  Elec       q    Type
REMARK                         _______ _______ _______ _____ _____    ______ ____
ROOT
ATOM      1  C   LIG    1        0.048  -6.617   5.138  0.00  0.00    +0.200 A 
ATOM      2  C   LIG    1       -0.044  -5.737   6.208  0.00  0.00    -0.020 A 
ATOM      3  C   LIG    1       -0.119  -6.227   7.498  0.00  0.00    +0.150 A 
ATOM      4  C   LIG    1       -0.092  -7.591   7.723  0.00  0.00    -0.670 A 
ATOM      5  C   LIG    1        0.004  -8.469   6.660  0.00  0.00    +0.150 A 
ATOM      6  C   LIG    1        0.074  -7.986   5.368  0.00  0.00    +0.010 A 
ENDROOT
BRANCH   1   8
ATOM      7  C   LIG    1       -0.466  -6.801   2.822  0.00  0.00    +0.520 C 
ATOM      8  N   LIG    1        0.119  -6.124   3.830  0.00  0.00    -0.670 N 
ATOM      9  H   LIG    1        0.590  -5.296   3.649  0.00  0.00    +0.420 HD
ATOM     10  O   LIG    1       -0.983  -7.877   3.034  0.00  0.00    -0.480 OA
BRANCH   7  11
ATOM     11  C   LIG    1       -0.479  -6.219   1.432  0.00  0.00    +0.240 C 
BRANCH  11  12
ATOM     12  O   LIG    1       -1.153  -7.116   0.546  0.00  0.00    -0.290 OA
BRANCH  12  18
ATOM     13  C   LIG    1       -2.689  -8.070  -3.987  0.00  0.00    +0.100 C 
ATOM     14  C   LIG    1       -1.994  -7.176  -2.993  0.00  0.00    -0.040 A 
ATOM     15  C   LIG    1       -1.451  -5.974  -3.407  0.00  0.00    -0.030 A 
ATOM     16  C   LIG    1       -0.816  -5.149  -2.496  0.00  0.00    +0.050 A 
ATOM     17  C   LIG    1       -0.714  -5.530  -1.172  0.00  0.00    -0.090 A 
ATOM     18  C   LIG    1       -1.253  -6.739  -0.755  0.00  0.00    +0.130 A 
ATOM     19  C   LIG    1       -1.894  -7.562  -1.670  0.00  0.00    -0.020 A 
ENDBRANCH  12  18
ENDBRANCH  11  12
ENDBRANCH   7  11
ENDBRANCH   1   8
BRANCH   4  20
ATOM     20  S   LIG    1       -0.182  -8.212   9.370  0.00  0.00    +2.490 S 
ATOM     21  O   LIG    1       -0.741  -9.510   9.225  0.00  0.00    -0.930 OA
ATOM     22  O   LIG    1       -0.867  -7.196  10.091  0.00  0.00    -0.940 OA
BRANCH  20  23
ATOM     23  C   LIG    1        1.547  -8.319   9.908  0.00  0.00    -0.430 C 
ATOM     24  C   LIG    1        2.347  -9.214   8.940  0.00  0.00    +0.050 C 
ATOM     25  C   LIG    1        3.331  -9.982   9.858  0.00  0.00    +0.030 C 
ATOM     26  C   LIG    1        2.474 -10.263  11.118  0.00  0.00    +0.030 C 
ATOM     27  C   LIG    1        1.628  -8.985  11.293  0.00  0.00    +0.060 C 
ENDBRANCH  20  23
ENDBRANCH   4  20
TORSDOF 6
