REMARK  Name = ZINCqH0000004uuD.0
REMARK                            x       y       z     vdW  Elec       q    Type
REMARK                         _______ _______ _______ _____ _____    ______ ____
ROOT
ATOM      1  N   LIG    1        2.535   7.913   0.025  0.00  0.00    -0.720 N 
ATOM      2  H   LIG    1        3.333   7.361   0.014  0.00  0.00    +0.400 HD
ATOM      3  C   LIG    1        2.646   9.256   0.032  0.00  0.00    +0.570 C 
ATOM      4  O   LIG    1        1.647   9.948   0.045  0.00  0.00    -0.520 OA
ENDROOT
BRANCH   3   5
ATOM      5  C   LIG    1        3.982   9.888   0.023  0.00  0.00    -0.130 A 
ATOM      6  C   LIG    1        5.133   9.098   0.008  0.00  0.00    +0.040 A 
ATOM      7  C   LIG    1        6.374   9.698   0.002  0.00  0.00    +0.010 A 
ATOM      8  C   LIG    1        6.488  11.080   0.011  0.00  0.00    -0.090 A 
ATOM      9  C   LIG    1        7.867  11.690   0.016  0.00  0.00    +0.280 C 
ATOM     10  O   LIG    1        7.799  13.069  -0.344  0.00  0.00    -0.370 OA
ATOM     11  C   LIG    1        6.849  13.808   0.432  0.00  0.00    +0.220 C 
ATOM     12  C   LIG    1        5.442  13.372   0.018  0.00  0.00    +0.060 C 
ATOM     13  C   LIG    1        5.353  11.867   0.022  0.00  0.00    -0.080 A 
ATOM     14  C   LIG    1        4.102  11.277   0.025  0.00  0.00    +0.090 A 
ENDBRANCH   3   5
BRANCH   1  15
ATOM     15  C   LIG    1        1.211   7.287   0.033  0.00  0.00    +0.180 C 
ATOM     16  C   LIG    1        0.430   7.729  -1.206  0.00  0.00    +0.040 C 
BRANCH  15  18
ATOM     17  C   LIG    1        1.292   7.384   2.528  0.00  0.00    +0.010 C 
ATOM     18  C   LIG    1        0.453   7.713   1.292  0.00  0.00    +0.040 C 
ENDBRANCH  15  18
BRANCH  15  19
ATOM     19  C   LIG    1        1.366   5.765   0.022  0.00  0.00    +0.220 C 
BRANCH  19  20
ATOM     20  O   LIG    1        0.074   5.154   0.030  0.00  0.00    -0.280 OA
BRANCH  20  21
ATOM     21  C   LIG    1        0.034   3.798   0.023  0.00  0.00    +0.340 A 
ATOM     22  N   LIG    1        1.163   3.109   0.008  0.00  0.00    -0.530 NA
ATOM     23  C   LIG    1        1.169   1.789   0.001  0.00  0.00    +0.310 A 
ATOM     24  C   LIG    1       -0.013   1.076   0.008  0.00  0.00    -0.050 A 
ATOM     25  C   LIG    1       -1.220   1.761   0.017  0.00  0.00    +0.120 A 
ATOM     26  C   LIG    1       -1.193   3.145   0.030  0.00  0.00    -0.110 A 
ATOM     27 CL   LIG    1       -2.673   4.054   0.049  0.00  0.00    -0.040 Cl
ENDBRANCH  20  21
ENDBRANCH  19  20
ENDBRANCH  15  19
ENDBRANCH   1  15
TORSDOF 6
