REMARK  Name = ZINCpe00000VVGBc.0
REMARK                            x       y       z     vdW  Elec       q    Type
REMARK                         _______ _______ _______ _____ _____    ______ ____
ROOT
ATOM      1  C   LIG    1        0.002  -0.004   0.002  0.00  0.00    +0.040 A 
ATOM      2  C   LIG    1        1.200  -0.708  -0.117  0.00  0.00    +0.040 A 
ATOM      3  C   LIG    1        1.171  -2.104  -0.120  0.00  0.00    +0.250 A 
ATOM      4  N   LIG    1        0.031  -2.772  -0.012  0.00  0.00    -0.490 NA
ATOM      5  C   LIG    1       -1.130  -2.152   0.103  0.00  0.00    +0.410 A 
ATOM      6  N   LIG    1       -2.315  -2.860   0.216  0.00  0.00    -0.530 N 
ATOM      7  C   LIG    1       -2.286  -4.325   0.207  0.00  0.00    +0.370 C 
ATOM      8  C   LIG    1       -3.489  -2.220   0.351  0.00  0.00    +0.710 A 
ATOM      9  O   LIG    1       -4.503  -2.883   0.452  0.00  0.00    -0.520 OA
ATOM     10  N   LIG    1       -3.593  -0.882   0.366  0.00  0.00    -0.560 N 
ATOM     11  C   LIG    1       -4.913  -0.264   0.503  0.00  0.00    +0.360 C 
ATOM     12  C   LIG    1       -2.499  -0.096   0.257  0.00  0.00    +0.560 A 
ATOM     13  O   LIG    1       -2.597   1.115   0.272  0.00  0.00    -0.460 OA
ATOM     14  C   LIG    1       -1.185  -0.747   0.120  0.00  0.00    -0.200 A 
ENDROOT
BRANCH   3  15
ATOM     15  C   LIG    1        2.443  -2.856  -0.246  0.00  0.00    +0.140 A 
ATOM     16  C   LIG    1        2.425  -4.248  -0.250  0.00  0.00    +0.030 A 
ATOM     17  C   LIG    1        3.621  -4.936  -0.369  0.00  0.00    +0.060 A 
ATOM     18  C   LIG    1        4.796  -4.208  -0.481  0.00  0.00    -0.010 A 
ATOM     19  C   LIG    1        4.740  -2.825  -0.470  0.00  0.00    +0.280 A 
ATOM     20  N   LIG    1        3.588  -2.196  -0.361  0.00  0.00    -0.460 NA
ENDBRANCH   3  15
BRANCH   1  21
ATOM     21  C   LIG    1       -0.018   1.477   0.010  0.00  0.00    +0.510 C 
ATOM     22  O   LIG    1       -0.745   2.079  -0.754  0.00  0.00    -0.450 OA
BRANCH  21  23
ATOM     23  O   LIG    1        0.774   2.156   0.861  0.00  0.00    -0.350 OA
BRANCH  23  25
ATOM     24  C   LIG    1        1.667   4.198   1.844  0.00  0.00    +0.070 C 
ATOM     25  C   LIG    1        0.703   3.606   0.814  0.00  0.00    +0.210 C 
ENDBRANCH  23  25
ENDBRANCH  21  23
ENDBRANCH   1  21
TORSDOF 4
