REMARK  Name = ZINCkj00000y7DOW.1
REMARK                            x       y       z     vdW  Elec       q    Type
REMARK                         _______ _______ _______ _____ _____    ______ ____
ROOT
ATOM      1  C   LIG    1       -1.526  -1.536   6.127  0.00  0.00    +0.140 C 
ATOM      2  C   LIG    1       -0.933  -0.468   5.559  0.00  0.00    +0.040 C 
ENDROOT
BRANCH   1   6
ATOM      3  C   LIG    1       -0.759  -2.476  10.191  0.00  0.00    -0.110 A 
ATOM      4  C   LIG    1       -1.627  -3.275   9.441  0.00  0.00    +0.090 A 
ATOM      5  C   LIG    1       -1.876  -2.971   8.127  0.00  0.00    +0.050 A 
ATOM      6  C   LIG    1       -1.260  -1.862   7.537  0.00  0.00    -0.070 A 
ATOM      7  C   LIG    1       -0.386  -1.067   8.287  0.00  0.00    +0.040 A 
ATOM      8  C   LIG    1       -0.143  -1.368   9.602  0.00  0.00    +0.050 A 
BRANCH   3  12
ATOM      9  N   LIG    1        0.346  -2.034  12.330  0.00  0.00    -0.850 N 
ATOM     10  H   LIG    1        0.522  -2.249  13.259  0.00  0.00    +0.410 HD
ATOM     11  H   LIG    1        0.773  -1.265  11.921  0.00  0.00    +0.400 HD
ATOM     12  C   LIG    1       -0.491  -2.804  11.606  0.00  0.00    +0.560 C 
ATOM     13  O   LIG    1       -1.026  -3.768  12.119  0.00  0.00    -0.530 OA
ENDBRANCH   3  12
ENDBRANCH   1   6
BRANCH   2  14
ATOM     14  C   LIG    1       -1.198  -0.143   4.154  0.00  0.00    +0.270 A 
ATOM     15  N   LIG    1       -0.690   0.869   3.466  0.00  0.00    -0.460 NA
ATOM     16  C   LIG    1       -1.214   0.765   2.236  0.00  0.00    +0.130 A 
ATOM     17  N   LIG    1       -2.000  -0.272   2.227  0.00  0.00    -0.380 NA
ATOM     18  O   LIG    1       -2.004  -0.812   3.313  0.00  0.00    +0.100 OA
BRANCH  16  19
ATOM     19  C   LIG    1       -0.946   1.687   1.075  0.00  0.00    +0.340 C 
ATOM     20  C   LIG    1       -0.013   1.086   0.008  0.00  0.00    +0.100 C 
ATOM     21  C   LIG    1       -0.966   1.698  -1.034  0.00  0.00    +0.330 C 
ATOM     22  N   LIG    1       -1.996   1.654   0.028  0.00  0.00    -0.540 N 
ATOM     23  H   LIG    1       -2.523   0.794   0.029  0.00  0.00    +0.440 HD
ATOM     24  H   LIG    1       -2.587   2.471   0.037  0.00  0.00    +0.430 HD
ENDBRANCH  16  19
ENDBRANCH   2  14
TORSDOF 4
