REMARK  Name = ZINCqH0000005eiB.0
REMARK                            x       y       z     vdW  Elec       q    Type
REMARK                         _______ _______ _______ _____ _____    ______ ____
ROOT
ATOM      1  C   LIG    1       -2.088  -3.060  -1.462  0.00  0.00    +0.290 C 
ATOM      2  N   LIG    1       -0.638  -2.864  -1.396  0.00  0.00    -0.600 N 
ATOM      3  C   LIG    1        0.183  -3.668  -2.099  0.00  0.00    +0.490 C 
ATOM      4  O   LIG    1        1.375  -3.443  -2.127  0.00  0.00    -0.510 OA
ENDROOT
BRANCH   3   5
ATOM      5  C   LIG    1       -0.378  -4.847  -2.852  0.00  0.00    +0.100 C 
ATOM      6  C   LIG    1       -1.423  -4.359  -3.858  0.00  0.00    +0.090 C 
ATOM      7  C   LIG    1       -1.034  -5.816  -1.865  0.00  0.00    +0.060 C 
BRANCH   5   8
ATOM      8  O   LIG    1        0.676  -5.515  -3.546  0.00  0.00    -0.280 OA
BRANCH   8   9
ATOM      9  C   LIG    1        1.647  -6.090  -2.788  0.00  0.00    +0.140 A 
ATOM     10  C   LIG    1        1.645  -5.920  -1.411  0.00  0.00    -0.050 A 
ATOM     11  C   LIG    1        2.631  -6.508  -0.642  0.00  0.00    +0.050 A 
ATOM     12  C   LIG    1        3.625  -7.258  -1.245  0.00  0.00    -0.070 A 
ATOM     13  C   LIG    1        3.631  -7.425  -2.619  0.00  0.00    +0.070 A 
ATOM     14 CL   LIG    1        4.865  -7.991  -0.277  0.00  0.00    -0.070 Cl
ATOM     15  C   LIG    1        2.645  -6.842  -3.391  0.00  0.00    +0.000 A 
ENDBRANCH   8   9
ENDBRANCH   5   8
ENDBRANCH   3   5
BRANCH   2  16
ATOM     16  C   LIG    1       -0.081  -1.793  -0.565  0.00  0.00    +0.340 C 
BRANCH  16  17
ATOM     17  C   LIG    1        0.041  -0.514  -1.396  0.00  0.00    +0.130 C 
ATOM     18  C   LIG    1        0.712   0.584  -0.560  0.00  0.00    +0.230 C 
ATOM     19  O   LIG    1        0.798   1.767  -1.362  0.00  0.00    -0.300 OA
ATOM     20  C   LIG    1       -0.322   2.125  -2.047  0.00  0.00    +0.050 A 
ATOM     21  C   LIG    1       -0.434   3.415  -2.542  0.00  0.00    +0.020 A 
ATOM     22  C   LIG    1       -1.564   3.792  -3.244  0.00  0.00    +0.010 A 
ATOM     23  C   LIG    1       -2.585   2.884  -3.453  0.00  0.00    +0.010 A 
ATOM     24  C   LIG    1       -2.482   1.598  -2.957  0.00  0.00    +0.020 A 
ATOM     25  C   LIG    1       -1.350   1.212  -2.256  0.00  0.00    +0.050 A 
ATOM     26  O   LIG    1       -1.262  -0.058  -1.774  0.00  0.00    -0.300 OA
ENDBRANCH  16  17
ENDBRANCH   2  16
TORSDOF 5
