REMARK  Name = ZINCrH000004q5e1.0
REMARK                            x       y       z     vdW  Elec       q    Type
REMARK                         _______ _______ _______ _____ _____    ______ ____
ROOT
ATOM      1  C   LIG    1        1.140   2.151   0.003  0.00  0.00    +0.570 C 
ATOM      2  N   LIG    1       -0.018   1.461   0.010  0.00  0.00    -0.730 N 
ATOM      3  H   LIG    1       -0.864   1.934   0.017  0.00  0.00    +0.410 HD
ATOM      4  O   LIG    1        2.201   1.557  -0.011  0.00  0.00    -0.540 OA
ENDROOT
BRANCH   1  13
ATOM      5  C   LIG    1        4.803   6.541  -0.008  0.00  0.00    +0.180 C 
ATOM      6  C   LIG    1        3.313   6.768   0.007  0.00  0.00    +0.110 A 
ATOM      7  N   LIG    1        2.713   7.923   0.019  0.00  0.00    -0.250 NA
ATOM      8  N   LIG    1        1.326   7.744   0.031  0.00  0.00    -0.500 N 
ATOM      9  H   LIG    1        0.667   8.457   0.042  0.00  0.00    +0.440 HD
ATOM     10  C   LIG    1        1.045   6.405   0.026  0.00  0.00    +0.160 A 
ATOM     11  C   LIG    1       -0.142   5.672   0.034  0.00  0.00    -0.010 A 
ATOM     12  C   LIG    1       -0.105   4.310   0.020  0.00  0.00    +0.090 A 
ATOM     13  C   LIG    1        1.120   3.627   0.011  0.00  0.00    -0.180 A 
ATOM     14  C   LIG    1        2.315   4.337   0.003  0.00  0.00    +0.190 A 
ATOM     15  C   LIG    1        2.284   5.732   0.011  0.00  0.00    -0.190 A 
ENDBRANCH   1  13
BRANCH   2  16
ATOM     16  C   LIG    1        0.002  -0.004   0.002  0.00  0.00    +0.290 C 
BRANCH  16  17
ATOM     17  C   LIG    1       -1.433  -0.534   0.013  0.00  0.00    +0.130 C 
BRANCH  17  18
ATOM     18  C   LIG    1       -1.413  -2.041   0.005  0.00  0.00    -0.150 A 
ATOM     19  C   LIG    1       -0.375  -2.714  -0.613  0.00  0.00    +0.060 A 
ATOM     20  C   LIG    1       -0.354  -4.096  -0.616  0.00  0.00    +0.030 A 
ATOM     21  C   LIG    1       -1.376  -4.805  -0.011  0.00  0.00    -0.020 A 
ATOM     22  C   LIG    1       -2.416  -4.131   0.602  0.00  0.00    +0.030 A 
ATOM     23 CL   LIG    1       -1.352  -6.541  -0.021  0.00  0.00    -0.060 Cl
ATOM     24  C   LIG    1       -2.435  -2.749   0.609  0.00  0.00    +0.080 A 
ENDBRANCH  17  18
BRANCH  17  25
ATOM     25  C   LIG    1       -2.173  -0.027  -1.227  0.00  0.00    +0.470 C 
ATOM     26  F   LIG    1       -2.192   1.372  -1.219  0.00  0.00    -0.170 F 
ATOM     27  F   LIG    1       -3.486  -0.511  -1.217  0.00  0.00    -0.170 F 
ATOM     28  F   LIG    1       -1.518  -0.478  -2.378  0.00  0.00    -0.160 F 
ENDBRANCH  17  25
BRANCH  17  29
ATOM     29  O   LIG    1       -2.102  -0.073   1.189  0.00  0.00    -0.530 OA
ATOM     30  H   LIG    1       -1.687  -0.357   2.014  0.00  0.00    +0.400 HD
ENDBRANCH  17  29
ENDBRANCH  16  17
ENDBRANCH   2  16
TORSDOF 6
