REMARK  Name = ZINCrg000000sACU.0
REMARK                            x       y       z     vdW  Elec       q    Type
REMARK                         _______ _______ _______ _____ _____    ______ ____
ROOT
ATOM      1  C   LIG    1        4.298  -0.461  -0.041  0.00  0.00    +0.360 C 
ATOM      2  N   LIG    1        3.455   0.738  -0.027  0.00  0.00    -0.510 N 
ATOM      3  C   LIG    1        4.023   1.958  -0.026  0.00  0.00    +0.710 A 
ATOM      4  N   LIG    1        3.283   3.081  -0.013  0.00  0.00    -0.640 N 
ATOM      5  H   LIG    1        3.725   3.944  -0.013  0.00  0.00    +0.450 HD
ATOM      6  C   LIG    1        1.935   3.024  -0.000  0.00  0.00    +0.600 A 
ATOM      7  C   LIG    1        1.298   1.764  -0.001  0.00  0.00    -0.090 A 
ATOM      8  N   LIG    1       -0.016   1.343   0.009  0.00  0.00    -0.360 N 
ATOM      9  C   LIG    1        0.002  -0.004   0.002  0.00  0.00    +0.320 A 
ATOM     10  N   LIG    1        1.240  -0.429  -0.012  0.00  0.00    -0.410 NA
ATOM     11  O   LIG    1        1.276   4.048   0.011  0.00  0.00    -0.490 OA
ATOM     12  O   LIG    1        5.236   2.048  -0.037  0.00  0.00    -0.510 OA
ATOM     13  C   LIG    1        2.076   0.613  -0.015  0.00  0.00    +0.330 A 
ENDROOT
BRANCH   9  14
ATOM     14  N   LIG    1       -1.197  -0.873   0.009  0.00  0.00    +0.060 N 
ATOM     15  O   LIG    1       -1.071  -2.084   0.002  0.00  0.00    -0.060 OA
ATOM     16  O   LIG    1       -2.308  -0.376   0.023  0.00  0.00    -0.120 OA
ENDBRANCH   9  14
BRANCH   8  17
ATOM     17  C   LIG    1       -1.206   2.199   0.020  0.00  0.00    +0.450 C 
BRANCH  17  18
ATOM     18  C   LIG    1       -1.606   2.485   1.444  0.00  0.00    -0.010 A 
ATOM     19  N   LIG    1       -1.852   1.607   2.375  0.00  0.00    -0.340 NA
ATOM     20  O   LIG    1       -2.151   2.132   3.423  0.00  0.00    +0.130 OA
ATOM     21  C   LIG    1       -2.141   3.473   3.321  0.00  0.00    +0.030 A 
ATOM     22  C   LIG    1       -1.781   3.755   2.032  0.00  0.00    -0.010 A 
BRANCH  21  23
ATOM     23  C   LIG    1       -2.451   4.447   4.390  0.00  0.00    -0.030 A 
ATOM     24  C   LIG    1       -2.392   5.816   4.129  0.00  0.00    +0.040 A 
ATOM     25  C   LIG    1       -2.689   6.720   5.128  0.00  0.00    +0.010 A 
ATOM     26  C   LIG    1       -3.033   6.270   6.391  0.00  0.00    +0.030 A 
ATOM     27  C   LIG    1       -3.087   4.914   6.658  0.00  0.00    +0.010 A 
ATOM     28  C   LIG    1       -2.799   4.000   5.666  0.00  0.00    +0.040 A 
ENDBRANCH  21  23
ENDBRANCH  17  18
ENDBRANCH   8  17
TORSDOF 4
