REMARK  Name = ZINCqH0000004Mc5.0
REMARK                            x       y       z     vdW  Elec       q    Type
REMARK                         _______ _______ _______ _____ _____    ______ ____
ROOT
ATOM      1  N   LIG    1        4.758   0.459   2.814  0.00  0.00    -0.630 N 
ATOM      2  C   LIG    1        4.246   0.481   1.568  0.00  0.00    +0.710 C 
ATOM      3  N   LIG    1        3.054   1.067   1.339  0.00  0.00    -0.740 N 
ATOM      4  H   LIG    1        2.564   1.472   2.072  0.00  0.00    +0.390 HD
ATOM      5  O   LIG    1        4.859  -0.027   0.649  0.00  0.00    -0.570 OA
ATOM      6  C   LIG    1        4.018   1.071   3.921  0.00  0.00    +0.270 C 
ENDROOT
BRANCH   1   7
ATOM      7  C   LIG    1        6.053  -0.178   3.063  0.00  0.00    +0.410 C 
BRANCH   7  10
ATOM      8  C   LIG    1        8.621   2.023   1.720  0.00  0.00    +0.060 A 
ATOM      9  N   LIG    1        7.686   1.133   1.733  0.00  0.00    -0.450 NA
ATOM     10  C   LIG    1        7.153   0.840   2.901  0.00  0.00    +0.050 A 
ATOM     11  C   LIG    1        7.662   1.523   3.931  0.00  0.00    -0.070 A 
ATOM     12  S   LIG    1        8.913   2.594   3.304  0.00  0.00    +0.110 S 
BRANCH   8  14
ATOM     13  C   LIG    1        8.609   3.684  -0.122  0.00  0.00    +0.040 C 
ATOM     14  C   LIG    1        9.349   2.491   0.486  0.00  0.00    +0.130 C 
ENDBRANCH   8  14
ENDBRANCH   7  10
ENDBRANCH   1   7
BRANCH   3  15
ATOM     15  C   LIG    1        2.497   1.092  -0.015  0.00  0.00    +0.360 C 
BRANCH  15  16
ATOM     16  C   LIG    1        1.167   1.800   0.001  0.00  0.00    -0.180 A 
ATOM     17  C   LIG    1       -0.013   1.076   0.008  0.00  0.00    +0.120 A 
ATOM     18  C   LIG    1       -1.215   1.770   0.017  0.00  0.00    -0.070 A 
ATOM     19  C   LIG    1       -1.198   3.150   0.030  0.00  0.00    +0.310 A 
ATOM     20  N   LIG    1       -0.057   3.813   0.023  0.00  0.00    -0.540 NA
ATOM     21  C   LIG    1        1.108   3.188   0.009  0.00  0.00    +0.340 A 
BRANCH  21  22
ATOM     22  O   LIG    1        2.257   3.909   0.002  0.00  0.00    -0.290 OA
BRANCH  22  23
ATOM     23  C   LIG    1        2.130   5.332   0.011  0.00  0.00    +0.170 C 
ATOM     24  C   LIG    1        2.141   5.873  -1.434  0.00  0.00    +0.000 C 
ATOM     25  C   LIG    1        2.929   7.203  -1.336  0.00  0.00    +0.020 C 
ATOM     26  C   LIG    1        4.039   6.867  -0.309  0.00  0.00    +0.020 C 
ATOM     27  C   LIG    1        3.337   5.965   0.726  0.00  0.00    +0.040 C 
ENDBRANCH  22  23
ENDBRANCH  21  22
ENDBRANCH  15  16
ENDBRANCH   3  15
TORSDOF 7
