REMARK  Name = ZINCrg000000othR.0
REMARK                            x       y       z     vdW  Elec       q    Type
REMARK                         _______ _______ _______ _____ _____    ______ ____
ROOT
ATOM      1  N   LIG    1        1.113   5.855  -0.668  0.00  0.00    -0.710 N 
ATOM      2  H   LIG    1        1.756   5.236  -1.045  0.00  0.00    +0.410 HD
ATOM      3  C   LIG    1        1.307   7.184  -0.785  0.00  0.00    +0.500 C 
ATOM      4  O   LIG    1        0.502   7.958  -0.313  0.00  0.00    -0.510 OA
ENDROOT
BRANCH   1   5
ATOM      5  C   LIG    1       -0.070   5.347   0.031  0.00  0.00    +0.250 C 
BRANCH   5   6
ATOM      6  C   LIG    1       -0.050   3.840   0.022  0.00  0.00    -0.100 A 
ATOM      7  C   LIG    1        1.156   3.165   0.008  0.00  0.00    +0.030 A 
ATOM      8  C   LIG    1        1.175   1.783   0.000  0.00  0.00    +0.010 A 
ATOM      9  C   LIG    1       -0.013   1.076   0.008  0.00  0.00    +0.020 A 
ATOM     10  C   LIG    1       -1.219   1.751   0.017  0.00  0.00    +0.010 A 
ATOM     11  C   LIG    1       -1.238   3.133   0.029  0.00  0.00    +0.040 A 
ENDBRANCH   5   6
BRANCH   5  13
ATOM     12  C   LIG    1       -1.339   5.342  -2.122  0.00  0.00    +0.030 C 
ATOM     13  C   LIG    1       -1.333   5.844  -0.677  0.00  0.00    +0.050 C 
ENDBRANCH   5  13
BRANCH   5  14
ATOM     14  C   LIG    1       -0.065   5.842   1.454  0.00  0.00    +0.470 C 
ATOM     15  O   LIG    1       -1.106   6.112   2.004  0.00  0.00    -0.490 OA
BRANCH  14  16
ATOM     16  O   LIG    1        1.097   5.982   2.111  0.00  0.00    -0.350 OA
ATOM     17  C   LIG    1        1.027   6.463   3.479  0.00  0.00    +0.260 C 
ENDBRANCH  14  16
ENDBRANCH   5  14
ENDBRANCH   1   5
BRANCH   3  18
ATOM     18  C   LIG    1        2.524   7.707  -1.504  0.00  0.00    +0.410 C 
BRANCH  18  19
ATOM     19  N   LIG    1        2.504   9.172  -1.496  0.00  0.00    -0.420 N 
ATOM     20  N   LIG    1        1.924   9.997  -2.468  0.00  0.00    -0.280 NA
ATOM     21  C   LIG    1        2.112  11.244  -2.103  0.00  0.00    +0.300 A 
ATOM     22  C   LIG    1        1.739  12.474  -2.701  0.00  0.00    +0.040 A 
ATOM     23  C   LIG    1        2.079  13.637  -2.094  0.00  0.00    +0.110 A 
ATOM     24  C   LIG    1        2.795  13.612  -0.879  0.00  0.00    -0.020 A 
ATOM     25  C   LIG    1        3.145  12.443  -0.316  0.00  0.00    +0.300 A 
ATOM     26  N   LIG    1        2.813  11.249  -0.912  0.00  0.00    -0.480 N 
ATOM     27  C   LIG    1        3.046   9.971  -0.553  0.00  0.00    +0.650 A 
ATOM     28  O   LIG    1        3.640   9.602   0.445  0.00  0.00    -0.530 OA
ENDBRANCH  18  19
ENDBRANCH   3  18
TORSDOF 7
