REMARK  Name = ZINCAx0000000920.0
REMARK                            x       y       z     vdW  Elec       q    Type
REMARK                         _______ _______ _______ _____ _____    ______ ____
ROOT
ATOM      1  C   LIG    1        3.862   5.108  -1.000  0.00  0.00    -0.270 C 
ATOM      2  C   LIG    1        2.885   5.744  -1.681  0.00  0.00    +0.260 C 
ATOM      3  N   LIG    1        1.638   5.897  -1.147  0.00  0.00    -0.640 N 
ATOM      4  H   LIG    1        0.968   6.361  -1.673  0.00  0.00    +0.440 HD
ATOM      5  C   LIG    1        1.288   5.441   0.062  0.00  0.00    +0.710 C 
ATOM      6  N   LIG    1        2.153   4.785   0.860  0.00  0.00    -0.710 N 
ATOM      7  H   LIG    1        1.878   4.463   1.733  0.00  0.00    +0.440 HD
ATOM      8  O   LIG    1        0.151   5.625   0.454  0.00  0.00    -0.560 OA
ATOM      9  C   LIG    1        3.527   4.569   0.376  0.00  0.00    +0.340 C 
ENDROOT
BRANCH   9  10
ATOM     10  C   LIG    1        3.788   3.084   0.370  0.00  0.00    -0.110 A 
ATOM     11  C   LIG    1        4.990   2.593   0.843  0.00  0.00    +0.050 A 
ATOM     12  C   LIG    1        5.231   1.231   0.838  0.00  0.00    +0.000 A 
ATOM     13  C   LIG    1        4.271   0.362   0.353  0.00  0.00    +0.010 A 
ATOM     14  C   LIG    1        3.067   0.854  -0.115  0.00  0.00    +0.000 A 
ATOM     15  C   LIG    1        2.827   2.215  -0.110  0.00  0.00    +0.010 A 
ENDBRANCH   9  10
BRANCH   1  16
ATOM     16  C   LIG    1        5.154   4.949  -1.553  0.00  0.00    +0.530 C 
ATOM     17  O   LIG    1        5.398   5.383  -2.664  0.00  0.00    -0.520 OA
BRANCH  16  18
ATOM     18  O   LIG    1        6.116   4.317  -0.849  0.00  0.00    -0.340 OA
BRANCH  18  20
ATOM     19  C   LIG    1        8.350   3.454  -0.527  0.00  0.00    +0.070 C 
ATOM     20  C   LIG    1        7.398   4.193  -1.469  0.00  0.00    +0.200 C 
ENDBRANCH  18  20
ENDBRANCH  16  18
ENDBRANCH   1  16
BRANCH   2  21
ATOM     21  C   LIG    1        3.177   6.295  -3.053  0.00  0.00    +0.350 C 
BRANCH  21  22
ATOM     22  O   LIG    1        2.023   7.037  -3.532  0.00  0.00    -0.370 OA
BRANCH  22  23
ATOM     23  C   LIG    1        2.121   7.598  -4.753  0.00  0.00    +0.520 C 
ATOM     24  O   LIG    1        3.141   7.472  -5.400  0.00  0.00    -0.480 OA
BRANCH  23  25
ATOM     25  C   LIG    1        0.988   8.367  -5.304  0.00  0.00    -0.150 A 
ATOM     26  C   LIG    1       -0.189   8.512  -4.555  0.00  0.00    +0.140 A 
ATOM     27  C   LIG    1       -1.243   9.220  -5.053  0.00  0.00    -0.020 A 
ATOM     28  C   LIG    1       -1.163   9.809  -6.313  0.00  0.00    +0.180 A 
ATOM     29  C   LIG    1        0.012   9.674  -7.080  0.00  0.00    +0.020 A 
ATOM     30  N   LIG    1        0.103  10.240  -8.300  0.00  0.00    -0.400 NA
ATOM     31  C   LIG    1       -0.887  10.922  -8.799  0.00  0.00    +0.120 A 
ATOM     32  C   LIG    1       -2.129  11.087  -8.035  0.00  0.00    +0.500 A 
ATOM     33  O   LIG    1       -3.058  11.723  -8.499  0.00  0.00    -0.500 OA
ATOM     34  C   LIG    1       -0.758  11.543 -10.166  0.00  0.00    +0.180 C 
ATOM     35  N   LIG    1       -2.230  10.524  -6.811  0.00  0.00    -0.510 N 
ATOM     36  C   LIG    1        1.092   8.950  -6.561  0.00  0.00    +0.200 A 
BRANCH  35  37
ATOM     37  C   LIG    1       -3.458  10.672  -6.024  0.00  0.00    +0.290 C 
ATOM     38  C   LIG    1       -3.357  11.927  -5.154  0.00  0.00    +0.040 C 
ENDBRANCH  35  37
ENDBRANCH  23  25
ENDBRANCH  22  23
ENDBRANCH  21  22
ENDBRANCH   2  21
TORSDOF 9
