REMARK  Name = ZINCAx0000000920.1
REMARK                            x       y       z     vdW  Elec       q    Type
REMARK                         _______ _______ _______ _____ _____    ______ ____
ROOT
ATOM      1  C   LIG    1        5.042  -8.444  -0.088  0.00  0.00    +0.050 C 
ATOM      2  C   LIG    1        4.852  -6.949  -0.084  0.00  0.00    +0.260 C 
ATOM      3  N   LIG    1        5.870  -6.155  -0.089  0.00  0.00    -0.480 NA
ATOM      4  C   LIG    1        7.129  -6.621  -0.081  0.00  0.00    +0.660 C 
ATOM      5  N   LIG    1        7.400  -7.901   0.229  0.00  0.00    -0.730 N 
ATOM      6  H   LIG    1        8.309  -8.233   0.165  0.00  0.00    +0.420 HD
ATOM      7  O   LIG    1        8.044  -5.870  -0.361  0.00  0.00    -0.500 OA
ATOM      8  C   LIG    1        6.323  -8.796   0.666  0.00  0.00    +0.330 C 
ENDROOT
BRANCH   8   9
ATOM      9  C   LIG    1        6.095  -8.624   2.146  0.00  0.00    -0.120 A 
ATOM     10  C   LIG    1        6.144  -7.364   2.711  0.00  0.00    +0.010 A 
ATOM     11  C   LIG    1        5.930  -7.206   4.068  0.00  0.00    +0.020 A 
ATOM     12  C   LIG    1        5.677  -8.310   4.860  0.00  0.00    +0.020 A 
ATOM     13  C   LIG    1        5.632  -9.571   4.296  0.00  0.00    +0.010 A 
ATOM     14  C   LIG    1        5.842  -9.728   2.938  0.00  0.00    +0.030 A 
ENDBRANCH   8   9
BRANCH   1  15
ATOM     15  C   LIG    1        5.149  -8.933  -1.509  0.00  0.00    +0.470 C 
ATOM     16  O   LIG    1        6.147  -9.506  -1.877  0.00  0.00    -0.480 OA
BRANCH  15  17
ATOM     17  O   LIG    1        4.135  -8.733  -2.366  0.00  0.00    -0.350 OA
BRANCH  17  19
ATOM     18  C   LIG    1        3.059  -8.913  -4.543  0.00  0.00    +0.060 C 
ATOM     19  C   LIG    1        4.308  -9.232  -3.719  0.00  0.00    +0.210 C 
ENDBRANCH  17  19
ENDBRANCH  15  17
ENDBRANCH   1  15
BRANCH   2  20
ATOM     20  C   LIG    1        3.459  -6.374  -0.067  0.00  0.00    +0.340 C 
BRANCH  20  21
ATOM     21  O   LIG    1        3.534  -4.924  -0.059  0.00  0.00    -0.330 OA
BRANCH  21  22
ATOM     22  C   LIG    1        2.366  -4.251  -0.044  0.00  0.00    +0.520 C 
ATOM     23  O   LIG    1        1.315  -4.859  -0.038  0.00  0.00    -0.500 OA
BRANCH  22  24
ATOM     24  C   LIG    1        2.365  -2.775  -0.036  0.00  0.00    -0.150 A 
ATOM     25  C   LIG    1        3.580  -2.075  -0.044  0.00  0.00    +0.150 A 
ATOM     26  C   LIG    1        3.593  -0.712  -0.036  0.00  0.00    -0.020 A 
ATOM     27  C   LIG    1        2.397   0.004  -0.021  0.00  0.00    +0.180 A 
ATOM     28  C   LIG    1        1.166  -0.683  -0.013  0.00  0.00    +0.010 A 
ATOM     29  N   LIG    1        0.002  -0.004   0.002  0.00  0.00    -0.400 NA
ATOM     30  C   LIG    1       -0.016   1.298   0.009  0.00  0.00    +0.120 A 
ATOM     31  C   LIG    1        1.243   2.053   0.001  0.00  0.00    +0.500 A 
ATOM     32  O   LIG    1        1.230   3.270   0.008  0.00  0.00    -0.500 OA
ATOM     33  C   LIG    1       -1.332   2.031   0.019  0.00  0.00    +0.180 C 
ATOM     34  N   LIG    1        2.415   1.382  -0.014  0.00  0.00    -0.510 N 
ATOM     35  C   LIG    1        1.160  -2.083  -0.020  0.00  0.00    +0.200 A 
BRANCH  34  36
ATOM     36  C   LIG    1        3.687   2.108  -0.023  0.00  0.00    +0.290 C 
ATOM     37  C   LIG    1        4.115   2.369  -1.468  0.00  0.00    +0.040 C 
ENDBRANCH  34  36
ENDBRANCH  22  24
ENDBRANCH  21  22
ENDBRANCH  20  21
ENDBRANCH   2  20
TORSDOF 9
