REMARK  Name = ZINCpk00000y6x2F.0
REMARK                            x       y       z     vdW  Elec       q    Type
REMARK                         _______ _______ _______ _____ _____    ______ ____
ROOT
ATOM      1  C   LIG    1       -0.019   1.545   0.011  0.00  0.00    +0.170 C 
ATOM      2  C   LIG    1        1.497   1.877  -0.002  0.00  0.00    +0.100 C 
ATOM      3  C   LIG    1        2.088   0.760  -0.887  0.00  0.00    +0.350 C 
ATOM      4  N   LIG    1        1.137  -0.361  -0.869  0.00  0.00    -0.610 N 
ATOM      5  C   LIG    1        1.279  -1.523  -1.537  0.00  0.00    +0.520 C 
ATOM      6  O   LIG    1        2.258  -1.709  -2.228  0.00  0.00    -0.500 OA
ATOM      7  C   LIG    1        0.002  -0.004   0.002  0.00  0.00    +0.250 C 
ENDROOT
BRANCH   3   8
ATOM      8  C   LIG    1        3.416   0.314  -0.332  0.00  0.00    +0.170 A 
ATOM      9  N   LIG    1        4.450   1.075  -0.096  0.00  0.00    -0.280 NA
ATOM     10  N   LIG    1        5.411   0.364   0.379  0.00  0.00    -0.280 NA
ATOM     11  C   LIG    1        5.036  -0.883   0.460  0.00  0.00    +0.210 A 
ATOM     12  N   LIG    1        3.760  -0.951   0.011  0.00  0.00    -0.560 N 
ATOM     13  H   LIG    1        3.204  -1.744  -0.051  0.00  0.00    +0.420 HD
BRANCH  11  14
ATOM     14  C   LIG    1        5.869  -2.035   0.960  0.00  0.00    +0.060 C 
ATOM     15  C   LIG    1        5.138  -3.327   1.332  0.00  0.00    +0.030 C 
ATOM     16  C   LIG    1        5.717  -2.432   2.430  0.00  0.00    +0.060 C 
ENDBRANCH  11  14
ENDBRANCH   3   8
BRANCH   1  18
ATOM     17  C   LIG    1       -2.068   2.274  -0.997  0.00  0.00    +0.210 C 
ATOM     18  O   LIG    1       -0.665   2.055  -1.158  0.00  0.00    -0.370 OA
ENDBRANCH   1  18
BRANCH   5  19
ATOM     19  C   LIG    1        0.220  -2.590  -1.427  0.00  0.00    +0.240 C 
BRANCH  19  20
ATOM     20  O   LIG    1        0.596  -3.717  -2.221  0.00  0.00    -0.280 OA
BRANCH  20  21
ATOM     21  C   LIG    1       -0.257  -4.776  -2.231  0.00  0.00    +0.070 A 
ATOM     22  C   LIG    1        0.034  -5.909  -2.984  0.00  0.00    +0.050 A 
ATOM     23  C   LIG    1       -0.862  -6.965  -2.959  0.00  0.00    +0.020 A 
ATOM     24  C   LIG    1       -2.014  -6.854  -2.202  0.00  0.00    +0.220 A 
ATOM     25  N   LIG    1       -2.263  -5.764  -1.503  0.00  0.00    -0.450 NA
ATOM     26  C   LIG    1       -1.433  -4.740  -1.496  0.00  0.00    +0.180 A 
ENDBRANCH  20  21
ENDBRANCH  19  20
ENDBRANCH   5  19
TORSDOF 6
