REMARK  Name = ZINCpk00000y6x2F.1
REMARK                            x       y       z     vdW  Elec       q    Type
REMARK                         _______ _______ _______ _____ _____    ______ ____
ROOT
ATOM      1  C   LIG    1        5.809  -5.511  -0.696  0.00  0.00    +0.180 C 
ATOM      2  C   LIG    1        5.100  -6.760  -0.110  0.00  0.00    +0.090 C 
ATOM      3  C   LIG    1        3.619  -6.328  -0.065  0.00  0.00    +0.350 C 
ATOM      4  N   LIG    1        3.594  -4.858  -0.057  0.00  0.00    -0.600 N 
ATOM      5  C   LIG    1        2.485  -4.092  -0.043  0.00  0.00    +0.540 C 
ATOM      6  O   LIG    1        1.389  -4.611  -0.035  0.00  0.00    -0.500 OA
ATOM      7  C   LIG    1        4.981  -4.361  -0.075  0.00  0.00    +0.250 C 
ENDROOT
BRANCH   3   8
ATOM      8  C   LIG    1        2.968  -6.858   1.186  0.00  0.00    +0.230 A 
ATOM      9  N   LIG    1        3.153  -6.394   2.394  0.00  0.00    -0.300 NA
ATOM     10  N   LIG    1        2.360  -7.172   3.254  0.00  0.00    -0.480 N 
ATOM     11  H   LIG    1        2.279  -7.076   4.215  0.00  0.00    +0.440 HD
ATOM     12  C   LIG    1        1.736  -8.076   2.478  0.00  0.00    +0.320 A 
ATOM     13  N   LIG    1        2.106  -7.873   1.240  0.00  0.00    -0.520 NA
BRANCH  12  14
ATOM     14  C   LIG    1        0.773  -9.134   2.953  0.00  0.00    +0.050 C 
ATOM     15  C   LIG    1       -0.125  -8.790   4.142  0.00  0.00    +0.050 C 
ATOM     16  C   LIG    1        1.038  -9.768   4.320  0.00  0.00    +0.050 C 
ENDBRANCH  12  14
ENDBRANCH   3   8
BRANCH   1  18
ATOM     17  C   LIG    1        6.818  -4.849  -2.767  0.00  0.00    +0.210 C 
ATOM     18  O   LIG    1        5.716  -5.491  -2.122  0.00  0.00    -0.370 OA
ENDBRANCH   1  18
BRANCH   5  19
ATOM     19  C   LIG    1        2.607  -2.590  -0.036  0.00  0.00    +0.250 C 
BRANCH  19  20
ATOM     20  O   LIG    1        1.303  -2.006  -0.021  0.00  0.00    -0.280 OA
BRANCH  20  21
ATOM     21  C   LIG    1        1.235  -0.648  -0.013  0.00  0.00    +0.080 A 
ATOM     22  C   LIG    1        0.002  -0.004   0.002  0.00  0.00    +0.050 A 
ATOM     23  C   LIG    1       -0.017   1.382   0.010  0.00  0.00    +0.020 A 
ATOM     24  C   LIG    1        1.180   2.073   0.002  0.00  0.00    +0.220 A 
ATOM     25  N   LIG    1        2.332   1.431  -0.013  0.00  0.00    -0.450 NA
ATOM     26  C   LIG    1        2.394   0.115  -0.020  0.00  0.00    +0.180 A 
ENDBRANCH  20  21
ENDBRANCH  19  20
ENDBRANCH   5  19
TORSDOF 6
