REMARK  Name = ZINCpe000000SzaD.0
REMARK                            x       y       z     vdW  Elec       q    Type
REMARK                         _______ _______ _______ _____ _____    ______ ____
ROOT
ATOM      1  C   LIG    1       -0.378   2.312  -1.501  0.00  0.00    -0.010 C 
ATOM      2  C   LIG    1        0.392   1.796  -0.283  0.00  0.00    +0.050 C 
ATOM      3  C   LIG    1       -0.284   2.303   0.995  0.00  0.00    +0.290 C 
ATOM      4  N   LIG    1       -0.394   3.766   0.924  0.00  0.00    -1.000 NA
ATOM      5  C   LIG    1       -1.036   4.371  -0.250  0.00  0.00    +0.300 C 
ATOM      6  C   LIG    1       -0.352   3.842  -1.514  0.00  0.00    +0.040 C 
ENDROOT
BRANCH   1  14
ATOM      7  C   LIG    1       -2.268   0.331  -8.208  0.00  0.00    +0.100 C 
ATOM      8  C   LIG    1       -2.820   1.026  -6.990  0.00  0.00    +0.520 C 
ATOM      9  N   LIG    1       -2.160   0.958  -5.817  0.00  0.00    -0.620 N 
ATOM     10  C   LIG    1       -2.724   1.568  -4.605  0.00  0.00    +0.270 C 
ATOM     11  C   LIG    1       -1.692   2.542  -4.022  0.00  0.00    +0.270 C 
ATOM     12  N   LIG    1       -0.396   1.856  -3.933  0.00  0.00    -0.620 N 
ATOM     13  C   LIG    1        0.170   1.250  -5.146  0.00  0.00    +0.280 C 
ATOM     14  C   LIG    1        0.265   1.788  -2.760  0.00  0.00    +0.520 C 
ATOM     15  O   LIG    1        1.376   1.304  -2.717  0.00  0.00    -0.530 OA
ATOM     16  C   LIG    1       -0.864   0.271  -5.728  0.00  0.00    +0.280 C 
ATOM     17  O   LIG    1       -3.859   1.648  -7.066  0.00  0.00    -0.540 OA
ENDBRANCH   1  14
BRANCH   4  18
ATOM     18  S   LIG    1        0.197   4.716   2.146  0.00  0.00    +2.720 S 
ATOM     19  O   LIG    1        0.450   5.992   1.575  0.00  0.00    -0.950 OA
ATOM     20  O   LIG    1        1.193   3.948   2.806  0.00  0.00    -0.940 OA
BRANCH  18  21
ATOM     21  C   LIG    1       -1.108   4.942   3.308  0.00  0.00    -0.800 A 
ATOM     22  C   LIG    1       -1.357   4.146   4.349  0.00  0.00    +0.170 A 
ATOM     23  C   LIG    1       -2.437   4.524   5.128  0.00  0.00    -0.010 A 
ATOM     24  C   LIG    1       -3.070   5.623   4.715  0.00  0.00    +0.010 A 
ATOM     25  S   LIG    1       -2.287   6.247   3.269  0.00  0.00    +0.210 S 
ENDBRANCH  18  21
ENDBRANCH   4  18
TORSDOF 3
