REMARK  Name = ZINCpk00000y3ezZ.0
REMARK                            x       y       z     vdW  Elec       q    Type
REMARK                         _______ _______ _______ _____ _____    ______ ____
ROOT
ATOM      1  C   LIG    1       -1.325   1.930  -0.013  0.00  0.00    +0.040 C 
ATOM      2  C   LIG    1       -1.395   2.809   1.209  0.00  0.00    +0.270 C 
ATOM      3  N   LIG    1       -1.850   2.349   2.326  0.00  0.00    -0.480 NA
ATOM      4  C   LIG    1       -2.296   1.088   2.443  0.00  0.00    +0.490 C 
ATOM      5  N   LIG    1       -2.570   0.340   1.359  0.00  0.00    -0.660 N 
ATOM      6  H   LIG    1       -2.827  -0.589   1.465  0.00  0.00    +0.430 HD
ATOM      7  S   LIG    1       -2.520   0.418   4.002  0.00  0.00    -0.500 S 
ATOM      8  C   LIG    1       -0.930   4.240   1.126  0.00  0.00    +0.190 C 
ATOM      9  C   LIG    1       -2.482   0.927   0.019  0.00  0.00    +0.330 C 
ENDROOT
BRANCH   9  10
ATOM     10  C   LIG    1       -3.771   1.635  -0.310  0.00  0.00    -0.060 A 
ATOM     11  C   LIG    1       -4.644   1.983   0.699  0.00  0.00    +0.010 A 
ATOM     12  C   LIG    1       -5.827   2.637   0.400  0.00  0.00    +0.070 A 
ATOM     13  C   LIG    1       -6.146   2.936  -0.913  0.00  0.00    +0.020 A 
ATOM     14  C   LIG    1       -5.284   2.588  -1.932  0.00  0.00    +0.100 A 
ATOM     15  C   LIG    1       -4.087   1.933  -1.637  0.00  0.00    -0.120 A 
BRANCH  15  16
ATOM     16  C   LIG    1       -3.159   1.558  -2.723  0.00  0.00    +0.510 C 
ATOM     17  O   LIG    1       -2.162   0.911  -2.474  0.00  0.00    -0.500 OA
BRANCH  16  18
ATOM     18  O   LIG    1       -3.418   1.935  -3.990  0.00  0.00    -0.350 OA
ATOM     19  C   LIG    1       -2.462   1.532  -5.006  0.00  0.00    +0.290 C 
ENDBRANCH  16  18
ENDBRANCH  15  16
ENDBRANCH   9  10
BRANCH   1  20
ATOM     20  C   LIG    1       -0.014   1.187  -0.023  0.00  0.00    +0.480 C 
ATOM     21  O   LIG    1       -0.005  -0.022  -0.006  0.00  0.00    -0.480 OA
BRANCH  20  22
ATOM     22  O   LIG    1        1.143   1.866  -0.056  0.00  0.00    -0.340 OA
BRANCH  22  23
ATOM     23  C   LIG    1        2.366   1.085  -0.070  0.00  0.00    +0.240 C 
BRANCH  23  24
ATOM     24  C   LIG    1        3.572   2.025  -0.107  0.00  0.00    +0.200 C 
BRANCH  24  26
ATOM     25  C   LIG    1        4.718   3.699   1.170  0.00  0.00    +0.200 C 
ATOM     26  O   LIG    1        3.622   2.784   1.103  0.00  0.00    -0.390 OA
ENDBRANCH  24  26
ENDBRANCH  23  24
ENDBRANCH  22  23
ENDBRANCH  20  22
ENDBRANCH   1  20
TORSDOF 8
