REMARK  Name = ZINCrD0000073Ohg.0
REMARK                            x       y       z     vdW  Elec       q    Type
REMARK                         _______ _______ _______ _____ _____    ______ ____
ROOT
ATOM      1  C   LIG    1        2.341  -2.890  -0.110  0.00  0.00    +0.420 C 
ATOM      2  O   LIG    1        3.402  -2.313  -0.224  0.00  0.00    -0.430 OA
ENDROOT
BRANCH   1   6
ATOM      3  C   LIG    1       -1.267  -0.675   0.178  0.00  0.00    -0.090 A 
ATOM      4  C   LIG    1       -1.299  -2.066   0.214  0.00  0.00    +0.020 A 
ATOM      5  C   LIG    1       -0.131  -2.787   0.121  0.00  0.00    +0.070 A 
ATOM      6  C   LIG    1        1.095  -2.122  -0.011  0.00  0.00    -0.150 A 
ATOM      7  C   LIG    1        1.128  -0.721  -0.052  0.00  0.00    +0.120 A 
ATOM      8  C   LIG    1       -0.046  -0.003   0.047  0.00  0.00    +0.160 A 
BRANCH   8   9
ATOM      9  N   LIG    1       -0.017   1.397   0.010  0.00  0.00    -0.670 N 
ATOM     10  H   LIG    1       -0.733   1.908   0.419  0.00  0.00    +0.420 HD
ATOM     11  C   LIG    1        1.003   2.034  -0.600  0.00  0.00    +0.510 C 
ATOM     12  O   LIG    1        1.842   1.398  -1.202  0.00  0.00    -0.520 OA
ATOM     13  C   LIG    1        1.100   3.537  -0.532  0.00  0.00    +0.110 C 
ENDBRANCH   8   9
BRANCH   3  15
ATOM     14  C   LIG    1       -4.027  -1.054   0.446  0.00  0.00    +0.150 C 
ATOM     15  S   LIG    1       -2.767   0.242   0.296  0.00  0.00    -0.110 S 
ENDBRANCH   3  15
ENDBRANCH   1   6
BRANCH   1  16
ATOM     16  C   LIG    1        2.303  -4.396  -0.072  0.00  0.00    +0.090 C 
BRANCH  16  17
ATOM     17  S   LIG    1        3.986  -5.046  -0.216  0.00  0.00    +0.110 S 
BRANCH  17  18
ATOM     18  C   LIG    1        3.653  -6.775  -0.144  0.00  0.00    +0.200 A 
ATOM     19  N   LIG    1        2.472  -7.340  -0.013  0.00  0.00    -0.330 NA
ATOM     20  N   LIG    1        2.584  -8.619   0.000  0.00  0.00    -0.020 NA
ATOM     21  N   LIG    1        3.821  -8.963  -0.109  0.00  0.00    -0.070 NA
ATOM     22  N   LIG    1        4.567  -7.776  -0.207  0.00  0.00    -0.310 N 
BRANCH  22  23
ATOM     23  C   LIG    1        5.958  -7.652  -0.342  0.00  0.00    +0.120 A 
ATOM     24  C   LIG    1        6.494  -6.630  -1.113  0.00  0.00    +0.030 A 
ATOM     25  C   LIG    1        7.864  -6.507  -1.240  0.00  0.00    +0.050 A 
ATOM     26  C   LIG    1        8.701  -7.408  -0.607  0.00  0.00    +0.040 A 
ATOM     27  C   LIG    1        8.170  -8.430   0.158  0.00  0.00    +0.040 A 
ATOM     28  C   LIG    1        6.801  -8.555   0.292  0.00  0.00    +0.050 A 
ENDBRANCH  22  23
ENDBRANCH  17  18
ENDBRANCH  16  17
ENDBRANCH   1  16
TORSDOF 7
