REMARK  Name = ZINCvU00000007tK.0
REMARK                            x       y       z     vdW  Elec       q    Type
REMARK                         _______ _______ _______ _____ _____    ______ ____
ROOT
ATOM      1  O   LIG    1        2.515   5.074   0.161  0.00  0.00    -0.430 OA
ATOM      2  C   LIG    1        1.313   4.952   0.002  0.00  0.00    +0.460 A 
ATOM      3  C   LIG    1        0.402   6.104  -0.220  0.00  0.00    -0.210 A 
ATOM      4  C   LIG    1        0.918   7.377  -0.455  0.00  0.00    +0.120 A 
ATOM      5  C   LIG    1        0.058   8.432  -0.665  0.00  0.00    +0.000 A 
ATOM      6  C   LIG    1       -1.315   8.226  -0.643  0.00  0.00    +0.100 A 
ATOM      7  C   LIG    1       -1.836   6.973  -0.409  0.00  0.00    +0.020 A 
ATOM      8  C   LIG    1       -0.986   5.889  -0.191  0.00  0.00    +0.140 A 
ATOM      9  O   LIG    1       -1.525   4.671   0.048  0.00  0.00    -0.180 OA
ATOM     10  C   LIG    1       -0.736   3.579   0.029  0.00  0.00    +0.100 A 
ATOM     11  C   LIG    1       -1.119   2.157   0.018  0.00  0.00    +0.570 C 
ATOM     12  O   LIG    1       -2.261   1.745   0.020  0.00  0.00    -0.420 OA
ATOM     13  N   LIG    1       -0.017   1.380   0.010  0.00  0.00    -0.510 N 
ATOM     14  C   LIG    1        1.163   2.261   0.003  0.00  0.00    +0.370 C 
ATOM     15  C   LIG    1        0.629   3.656   0.013  0.00  0.00    -0.240 A 
ENDROOT
BRANCH  13  16
ATOM     16  C   LIG    1        0.002  -0.004   0.002  0.00  0.00    +0.350 A 
ATOM     17  N   LIG    1       -1.045  -0.753   0.008  0.00  0.00    -0.470 NA
ATOM     18  C   LIG    1       -0.865  -2.089  -0.001  0.00  0.00    +0.100 A 
ATOM     19  C   LIG    1       -1.838  -3.111   0.002  0.00  0.00    +0.120 A 
ATOM     20  C   LIG    1       -1.462  -4.430  -0.010  0.00  0.00    +0.020 A 
ATOM     21  C   LIG    1       -0.118  -4.782  -0.025  0.00  0.00    +0.120 A 
ATOM     22  C   LIG    1        0.850  -3.799  -0.028  0.00  0.00    +0.050 A 
ATOM     23  F   LIG    1        0.240  -6.084  -0.037  0.00  0.00    -0.130 F 
ATOM     24  C   LIG    1        0.484  -2.456  -0.017  0.00  0.00    -0.160 A 
ATOM     25  S   LIG    1        1.459  -0.988  -0.025  0.00  0.00    +0.130 S 
ENDBRANCH  13  16
BRANCH  14  26
ATOM     26  C   LIG    1        1.980   2.026  -1.241  0.00  0.00    -0.120 A 
ATOM     27  C   LIG    1        1.350   1.785  -2.447  0.00  0.00    +0.010 A 
ATOM     28  C   LIG    1        2.100   1.575  -3.589  0.00  0.00    +0.010 A 
ATOM     29  C   LIG    1        3.480   1.594  -3.523  0.00  0.00    +0.030 A 
ATOM     30  C   LIG    1        4.111   1.829  -2.315  0.00  0.00    +0.020 A 
ATOM     31  C   LIG    1        3.361   2.045  -1.174  0.00  0.00    +0.050 A 
ENDBRANCH  14  26
TORSDOF 2
