REMARK  Name = ZINCvU0000000Jec.0
REMARK                            x       y       z     vdW  Elec       q    Type
REMARK                         _______ _______ _______ _____ _____    ______ ____
ROOT
ATOM      1  C   LIG    1        2.591   1.382   0.323  0.00  0.00    +0.200 A 
ATOM      2  N   LIG    1        3.440   2.383   0.245  0.00  0.00    -0.280 NA
ATOM      3  N   LIG    1        2.730   3.571   0.054  0.00  0.00    -0.300 N 
ATOM      4  C   LIG    1        1.412   3.308   0.005  0.00  0.00    +0.300 A 
ATOM      5  C   LIG    1        1.247   1.947   0.164  0.00  0.00    -0.280 A 
ENDROOT
BRANCH   1   9
ATOM      6  C   LIG    1        3.560  -2.716   0.916  0.00  0.00    +0.150 A 
ATOM      7  C   LIG    1        4.403  -1.906   0.167  0.00  0.00    -0.030 A 
ATOM      8  C   LIG    1        4.092  -0.577  -0.027  0.00  0.00    +0.090 A 
ATOM      9  C   LIG    1        2.928  -0.046   0.529  0.00  0.00    -0.080 A 
ATOM     10  C   LIG    1        2.086  -0.861   1.285  0.00  0.00    +0.130 A 
ATOM     11  C   LIG    1        2.400  -2.191   1.470  0.00  0.00    -0.090 A 
BRANCH   6  13
ATOM     12  C   LIG    1        2.958  -4.801   1.885  0.00  0.00    +0.250 C 
ATOM     13  O   LIG    1        3.869  -4.025   1.105  0.00  0.00    -0.320 OA
ENDBRANCH   6  13
ENDBRANCH   1   9
BRANCH   3  14
ATOM     14  C   LIG    1        3.304   4.843  -0.069  0.00  0.00    +0.150 A 
ATOM     15  C   LIG    1        2.495   5.955  -0.263  0.00  0.00    -0.010 A 
ATOM     16  C   LIG    1        3.063   7.209  -0.377  0.00  0.00    +0.050 A 
ATOM     17  C   LIG    1        4.436   7.356  -0.311  0.00  0.00    +0.010 A 
ATOM     18  C   LIG    1        5.245   6.250  -0.124  0.00  0.00    +0.050 A 
ATOM     19  C   LIG    1        4.682   4.994  -0.003  0.00  0.00    +0.030 A 
ENDBRANCH   3  14
BRANCH   5  20
ATOM     20  C   LIG    1       -0.027   1.209   0.178  0.00  0.00    +0.600 C 
ATOM     21  N   LIG    1       -1.191   1.870   0.018  0.00  0.00    -0.670 N 
ATOM     22  H   LIG    1       -1.196   2.839  -0.025  0.00  0.00    +0.410 HD
ATOM     23  O   LIG    1       -0.029   0.002   0.328  0.00  0.00    -0.510 OA
BRANCH  21  24
ATOM     24  C   LIG    1       -2.392   1.158  -0.086  0.00  0.00    +0.130 A 
ATOM     25  C   LIG    1       -3.564   1.695   0.429  0.00  0.00    +0.040 A 
ATOM     26  C   LIG    1       -4.750   0.995   0.321  0.00  0.00    -0.040 A 
ATOM     27  C   LIG    1       -4.769  -0.249  -0.291  0.00  0.00    +0.120 A 
ATOM     28  C   LIG    1       -3.596  -0.790  -0.801  0.00  0.00    -0.050 A 
ATOM     29 CL   LIG    1       -3.620  -2.347  -1.567  0.00  0.00    -0.050 Cl
ATOM     30  C   LIG    1       -2.410  -0.088  -0.699  0.00  0.00    +0.080 A 
BRANCH  27  31
ATOM     31  O   LIG    1       -5.936  -0.940  -0.391  0.00  0.00    -0.300 OA
ATOM     32  C   LIG    1       -7.104  -0.324   0.155  0.00  0.00    +0.240 C 
ENDBRANCH  27  31
ENDBRANCH  21  24
ENDBRANCH   5  20
TORSDOF 6
