REMARK  Name = ZINCtj00001n1k0w.0
REMARK                            x       y       z     vdW  Elec       q    Type
REMARK                         _______ _______ _______ _____ _____    ______ ____
ROOT
ATOM      1  O   LIG    1       -1.844   1.027   3.188  0.00  0.00    -0.510 OA
ATOM      2  C   LIG    1       -1.465   0.628   2.105  0.00  0.00    +0.580 C 
ATOM      3  N   LIG    1       -1.525   1.437   1.029  0.00  0.00    -0.590 N 
ATOM      4  C   LIG    1       -1.849   2.841   1.226  0.00  0.00    +0.280 C 
ATOM      5  C   LIG    1       -2.921   3.283   0.250  0.00  0.00    +0.050 C 
ATOM      6  C   LIG    1       -2.778   2.756  -1.133  0.00  0.00    +0.200 C 
ATOM      7  C   LIG    1       -2.204   1.376  -1.359  0.00  0.00    +0.230 C 
ATOM      8  N   LIG    1       -1.409   1.551  -2.600  0.00  0.00    -0.730 N 
ATOM      9  H   LIG    1       -1.001   0.837  -3.115  0.00  0.00    +0.440 HD
ATOM     10  C   LIG    1       -1.348   2.859  -2.893  0.00  0.00    +0.710 C 
ATOM     11  O   LIG    1       -0.700   3.303  -3.820  0.00  0.00    -0.580 OA
ATOM     12  N   LIG    1       -2.071   3.633  -2.064  0.00  0.00    -0.630 N 
ATOM     13  C   LIG    1       -1.261   0.880  -0.280  0.00  0.00    +0.290 C 
ENDROOT
BRANCH  12  14
ATOM     14  C   LIG    1       -2.139   5.096  -2.091  0.00  0.00    +0.290 C 
ATOM     15  C   LIG    1       -2.664   5.560  -3.453  0.00  0.00    +0.060 C 
ATOM     16  C   LIG    1       -2.656   7.090  -3.502  0.00  0.00    +0.260 C 
ATOM     17  N   LIG    1       -1.287   7.582  -3.311  0.00  0.00    -0.380 N 
ATOM     18  C   LIG    1       -0.803   7.202  -1.978  0.00  0.00    +0.260 C 
ATOM     19  H   LIG    1       -0.685   7.179  -4.013  0.00  0.00    +0.430 HD
ATOM     20  C   LIG    1       -0.739   5.678  -1.870  0.00  0.00    +0.050 C 
BRANCH  17  21
ATOM     21  C   LIG    1       -1.273   9.046  -3.437  0.00  0.00    +0.260 C 
BRANCH  21  22
ATOM     22  C   LIG    1       -1.826   9.445  -4.806  0.00  0.00    -0.040 C 
ATOM     23  C   LIG    1       -0.778   9.402  -5.930  0.00  0.00    +0.020 C 
ATOM     24  C   LIG    1       -1.414  10.698  -6.464  0.00  0.00    +0.030 C 
ATOM     25  C   LIG    1       -1.887  10.966  -5.026  0.00  0.00    +0.040 C 
ENDBRANCH  21  22
ENDBRANCH  17  21
ENDBRANCH  12  14
BRANCH   2  26
ATOM     26  C   LIG    1       -0.937  -0.750   1.967  0.00  0.00    +0.010 A 
ATOM     27  C   LIG    1       -1.036  -1.646   3.030  0.00  0.00    +0.310 A 
ATOM     28  N   LIG    1       -0.564  -2.873   2.902  0.00  0.00    -0.430 NA
ATOM     29  C   LIG    1       -0.000  -3.251   1.769  0.00  0.00    +0.270 A 
ATOM     30  C   LIG    1        0.100  -2.361   0.709  0.00  0.00    +0.230 A 
ATOM     31  N   LIG    1       -0.373  -1.137   0.826  0.00  0.00    -0.410 NA
ENDBRANCH   2  26
TORSDOF 4
