REMARK  Name = ZINCrH000004mBka.0
REMARK                            x       y       z     vdW  Elec       q    Type
REMARK                         _______ _______ _______ _____ _____    ______ ____
ROOT
ATOM      1  N   LIG    1        3.223   4.554  -2.871  0.00  0.00    -0.750 N 
ATOM      2  H   LIG    1        4.099   4.633  -2.461  0.00  0.00    +0.400 HD
ATOM      3  C   LIG    1        2.157   4.207  -2.122  0.00  0.00    +0.710 C 
ATOM      4  N   LIG    1        2.309   3.970  -0.804  0.00  0.00    -0.730 N 
ATOM      5  H   LIG    1        3.184   4.048  -0.395  0.00  0.00    +0.400 HD
ATOM      6  O   LIG    1        1.060   4.109  -2.635  0.00  0.00    -0.580 OA
ENDROOT
BRANCH   1   7
ATOM      7  C   LIG    1        3.058   4.813  -4.303  0.00  0.00    +0.280 C 
BRANCH   7   8
ATOM      8  C   LIG    1        4.411   5.185  -4.913  0.00  0.00    +0.070 C 
BRANCH   8  12
ATOM      9  C   LIG    1        3.932   5.940  -9.092  0.00  0.00    +0.130 A 
ATOM     10  C   LIG    1        3.797   6.976  -8.179  0.00  0.00    -0.020 A 
ATOM     11  C   LIG    1        3.952   6.729  -6.829  0.00  0.00    +0.060 A 
ATOM     12  C   LIG    1        4.242   5.451  -6.387  0.00  0.00    -0.120 A 
ATOM     13  C   LIG    1        4.383   4.418  -7.295  0.00  0.00    +0.060 A 
ATOM     14  C   LIG    1        4.222   4.659  -8.646  0.00  0.00    -0.080 A 
BRANCH   9  16
ATOM     15  C   LIG    1        3.933   5.066 -11.303  0.00  0.00    +0.250 C 
ATOM     16  O   LIG    1        3.780   6.180 -10.421  0.00  0.00    -0.320 OA
ENDBRANCH   9  16
ENDBRANCH   8  12
ENDBRANCH   7   8
ENDBRANCH   1   7
BRANCH   4  17
ATOM     17  C   LIG    1        1.151   3.592   0.010  0.00  0.00    +0.370 C 
BRANCH  17  18
ATOM     18  C   LIG    1        1.388   4.000   1.441  0.00  0.00    +0.120 A 
ATOM     19  C   LIG    1        0.558   4.933   2.032  0.00  0.00    -0.010 A 
ATOM     20  C   LIG    1        0.783   5.298   3.351  0.00  0.00    +0.070 A 
ATOM     21  C   LIG    1        1.845   4.715   4.025  0.00  0.00    -0.030 A 
ATOM     22  C   LIG    1        2.636   3.793   3.367  0.00  0.00    +0.260 A 
ATOM     23  N   LIG    1        2.390   3.466   2.113  0.00  0.00    -0.470 NA
ENDBRANCH  17  18
BRANCH  17  24
ATOM     24  C   LIG    1        0.951   2.100  -0.061  0.00  0.00    -0.090 A 
ATOM     25  C   LIG    1       -0.325   1.577  -0.149  0.00  0.00    +0.020 A 
ATOM     26  C   LIG    1       -0.508   0.208  -0.214  0.00  0.00    +0.000 A 
ATOM     27  C   LIG    1        0.586  -0.637  -0.192  0.00  0.00    +0.000 A 
ATOM     28  C   LIG    1        1.862  -0.114  -0.104  0.00  0.00    -0.010 A 
ATOM     29  C   LIG    1        2.045   1.255  -0.040  0.00  0.00    +0.040 A 
ENDBRANCH  17  24
ENDBRANCH   4  17
TORSDOF 7
