REMARK  Name = ZINCCC0000000bwy.0
REMARK                            x       y       z     vdW  Elec       q    Type
REMARK                         _______ _______ _______ _____ _____    ______ ____
ROOT
ATOM      1  C   LIG    1        1.226   0.842   6.837  0.00  0.00    -0.660 A 
ATOM      2  C   LIG    1        2.350   0.171   6.382  0.00  0.00    +0.130 A 
ATOM      3  C   LIG    1        2.536  -0.026   5.031  0.00  0.00    +0.060 A 
ATOM      4  C   LIG    1        1.596   0.447   4.119  0.00  0.00    -0.140 A 
ATOM      5  S   LIG    1        1.541   0.360   2.360  0.00  0.00    +0.050 S 
ATOM      6  C   LIG    1        0.013   1.230   2.352  0.00  0.00    +0.310 A 
ATOM      7  N   LIG    1       -0.344   1.521   3.555  0.00  0.00    -0.490 NA
ATOM      8  C   LIG    1        0.458   1.126   4.564  0.00  0.00    +0.090 A 
ATOM      9  C   LIG    1        0.289   1.315   5.952  0.00  0.00    +0.180 A 
ENDROOT
BRANCH   6  10
ATOM     10  N   LIG    1       -0.700   1.559   1.216  0.00  0.00    -0.440 N 
ATOM     11  C   LIG    1       -2.071   1.038   1.287  0.00  0.00    +0.220 C 
ATOM     12  C   LIG    1       -2.872   1.544   0.085  0.00  0.00    +0.060 C 
ATOM     13  C   LIG    1       -2.194   1.077  -1.207  0.00  0.00    +0.000 C 
ATOM     14  C   LIG    1       -0.752   1.593  -1.232  0.00  0.00    +0.060 C 
ATOM     15  C   LIG    1       -0.013   1.086   0.008  0.00  0.00    +0.210 C 
BRANCH  14  16
ATOM     16  C   LIG    1       -0.059   1.089  -2.472  0.00  0.00    -0.090 A 
ATOM     17  C   LIG    1        0.071  -0.270  -2.688  0.00  0.00    +0.010 A 
ATOM     18  C   LIG    1        0.703  -0.731  -3.827  0.00  0.00    +0.010 A 
ATOM     19  C   LIG    1        1.213   0.166  -4.746  0.00  0.00    +0.000 A 
ATOM     20  C   LIG    1        1.087   1.526  -4.528  0.00  0.00    +0.000 A 
ATOM     21  C   LIG    1        0.451   1.987  -3.391  0.00  0.00    +0.010 A 
ENDBRANCH  14  16
BRANCH  13  22
ATOM     22  C   LIG    1       -2.956   1.630  -2.413  0.00  0.00    +0.180 C 
BRANCH  22  23
ATOM     23  O   LIG    1       -4.265   1.058  -2.453  0.00  0.00    -0.570 OA
ATOM     24  H   LIG    1       -4.806   1.364  -3.193  0.00  0.00    +0.380 HD
ENDBRANCH  22  23
ENDBRANCH  13  22
ENDBRANCH   6  10
BRANCH   1  25
ATOM     25  S   LIG    1        0.996   1.090   8.566  0.00  0.00    +2.690 S 
ATOM     26  O   LIG    1        1.749   0.077   9.220  0.00  0.00    -0.940 OA
ATOM     27  O   LIG    1       -0.400   1.270   8.764  0.00  0.00    -0.950 OA
BRANCH  25  28
ATOM     28  N   LIG    1        1.714   2.530   8.954  0.00  0.00    -1.110 NA
ATOM     29  H   LIG    1        2.482   2.546   9.546  0.00  0.00    +0.420 HD
BRANCH  28  33
ATOM     30  N   LIG    1        1.625   6.532   7.638  0.00  0.00    -0.530 NA
ATOM     31  C   LIG    1        0.842   6.217   8.840  0.00  0.00    +0.200 C 
ATOM     32  C   LIG    1        1.337   4.899   9.442  0.00  0.00    +0.060 C 
ATOM     33  C   LIG    1        1.188   3.783   8.405  0.00  0.00    +0.240 C 
ATOM     34  C   LIG    1        1.973   4.158   7.145  0.00  0.00    +0.030 C 
ATOM     35  C   LIG    1        1.460   5.497   6.610  0.00  0.00    +0.170 C 
BRANCH  30  36
ATOM     36  C   LIG    1        1.272   7.857   7.113  0.00  0.00    +0.190 C 
BRANCH  36  37
ATOM     37  C   LIG    1        1.915   8.049   5.737  0.00  0.00    +0.250 C 
BRANCH  37  39
ATOM     38  C   LIG    1        2.274   9.605   3.948  0.00  0.00    +0.320 C 
ATOM     39  N   LIG    1        1.561   9.374   5.212  0.00  0.00    -0.390 N 
ATOM     40  C   LIG    1        0.113   9.437   4.976  0.00  0.00    +0.320 C 
ATOM     41  H   LIG    1        1.824  10.082   5.880  0.00  0.00    +0.430 HD
ENDBRANCH  37  39
ENDBRANCH  36  37
ENDBRANCH  30  36
ENDBRANCH  28  33
ENDBRANCH  25  28
ENDBRANCH   1  25
TORSDOF 10
