REMARK  Name = ZINCbu0000000GDy.0
REMARK                            x       y       z     vdW  Elec       q    Type
REMARK                         _______ _______ _______ _____ _____    ______ ____
ROOT
ATOM      1  C   LIG    1        1.174   2.088   0.002  0.00  0.00    -0.180 A 
ATOM      2  C   LIG    1        2.379   1.413  -0.013  0.00  0.00    +0.050 A 
ATOM      3  C   LIG    1        2.398   0.030  -0.021  0.00  0.00    +0.060 A 
ATOM      4  C   LIG    1        1.210  -0.679  -0.013  0.00  0.00    +0.010 A 
ATOM      5  C   LIG    1        0.002  -0.004   0.002  0.00  0.00    +0.030 A 
ATOM      6 CL   LIG    1        1.234  -2.414  -0.022  0.00  0.00    -0.020 Cl
ATOM      7  C   LIG    1       -0.017   1.380   0.010  0.00  0.00    +0.150 A 
ATOM      8  F   LIG    1       -1.196   2.040   0.019  0.00  0.00    -0.120 F 
ENDROOT
BRANCH   1  10
ATOM      9  C   LIG    1        1.035   4.096   1.451  0.00  0.00    +0.110 C 
ATOM     10  C   LIG    1        1.154   3.595   0.010  0.00  0.00    +0.240 C 
BRANCH  10  11
ATOM     11  N   LIG    1        2.397   4.104  -0.585  0.00  0.00    -0.640 N 
ATOM     12  H   LIG    1        3.186   3.775  -0.048  0.00  0.00    +0.430 HD
ATOM     13  H   LIG    1        2.384   5.112  -0.579  0.00  0.00    +0.440 HD
ATOM     14  H   LIG    1        2.476   3.773  -1.535  0.00  0.00    +0.440 HD
ENDBRANCH  10  11
ENDBRANCH   1  10
TORSDOF 2
