REMARK  Name = ZINCpe000027pGT2.0
REMARK                            x       y       z     vdW  Elec       q    Type
REMARK                         _______ _______ _______ _____ _____    ______ ____
ROOT
ATOM      1  C   LIG    1       -3.342   5.419   1.356  0.00  0.00    +0.520 C 
ATOM      2  N   LIG    1       -3.575   4.161   0.932  0.00  0.00    -0.600 N 
ATOM      3  O   LIG    1       -3.959   6.345   0.873  0.00  0.00    -0.520 OA
ENDROOT
BRANCH   1   4
ATOM      4  C   LIG    1       -2.315   5.675   2.429  0.00  0.00    +0.140 C 
BRANCH   4   8
ATOM      5  O   LIG    1       -3.527   9.566   4.894  0.00  0.00    -0.510 OA
ATOM      6  C   LIG    1       -2.888   9.069   3.985  0.00  0.00    +0.550 A 
ATOM      7  C   LIG    1       -2.968   7.678   3.732  0.00  0.00    -0.110 A 
ATOM      8  C   LIG    1       -2.249   7.152   2.718  0.00  0.00    +0.220 A 
ATOM      9  N   LIG    1       -1.455   7.967   1.957  0.00  0.00    -0.630 N 
ATOM     10  H   LIG    1       -0.935   7.588   1.230  0.00  0.00    +0.430 HD
ATOM     11  C   LIG    1       -1.392   9.288   2.203  0.00  0.00    +0.700 A 
ATOM     12  O   LIG    1       -0.684   9.994   1.511  0.00  0.00    -0.540 OA
ATOM     13  N   LIG    1       -2.098   9.838   3.209  0.00  0.00    -0.660 N 
ATOM     14  H   LIG    1       -2.038  10.792   3.375  0.00  0.00    +0.430 HD
ENDBRANCH   4   8
ENDBRANCH   1   4
BRANCH   2  15
ATOM     15  C   LIG    1       -2.830   3.042   1.515  0.00  0.00    +0.300 C 
BRANCH  15  16
ATOM     16  C   LIG    1       -1.552   2.804   0.708  0.00  0.00    -0.060 C 
ATOM     17  C   LIG    1       -0.753   1.593   1.264  0.00  0.00    +0.020 C 
ATOM     18  C   LIG    1       -0.013   1.086   0.008  0.00  0.00    +0.190 C 
ATOM     19  O   LIG    1       -0.722   1.569  -1.139  0.00  0.00    -0.380 OA
ATOM     20  C   LIG    1       -1.880   2.309  -0.724  0.00  0.00    +0.200 C 
ENDBRANCH  15  16
ENDBRANCH   2  15
BRANCH   2  21
ATOM     21  C   LIG    1       -4.573   3.912  -0.111  0.00  0.00    +0.290 C 
BRANCH  21  22
ATOM     22  C   LIG    1       -5.939   3.674   0.536  0.00  0.00    -0.020 C 
ATOM     23  C   LIG    1       -5.897   2.390   1.368  0.00  0.00    +0.060 C 
ATOM     24  C   LIG    1       -7.284   2.002   1.790  0.00  0.00    -0.060 C 
ATOM     25  C   LIG    1       -8.363   2.460   1.242  0.00  0.00    -0.050 C 
ATOM     26  C   LIG    1       -8.379   3.453   0.117  0.00  0.00    +0.050 C 
ATOM     27  C   LIG    1       -7.005   3.510  -0.554  0.00  0.00    +0.030 C 
ENDBRANCH  21  22
ENDBRANCH   2  21
TORSDOF 6
