REMARK  Name = ZINCbu0000001MVO.1
REMARK                            x       y       z     vdW  Elec       q    Type
REMARK                         _______ _______ _______ _____ _____    ______ ____
ROOT
ATOM      1  C   LIG    1       -0.013   1.086   0.008  0.00  0.00    +0.220 C 
ATOM      2  C   LIG    1       -0.718   1.572   1.248  0.00  0.00    +0.060 C 
ATOM      3  C   LIG    1       -2.068   1.830   1.369  0.00  0.00    +0.060 A 
ATOM      4  C   LIG    1       -3.162   1.732   0.485  0.00  0.00    +0.140 A 
ATOM      5  C   LIG    1       -4.404   2.063   0.928  0.00  0.00    -0.070 A 
ATOM      6  C   LIG    1       -4.580   2.492   2.259  0.00  0.00    +0.110 A 
ATOM      7  C   LIG    1       -3.530   2.577   3.097  0.00  0.00    +0.250 A 
ATOM      8 BR   LIG    1       -5.889   1.950  -0.237  0.00  0.00    +0.020 Br
ATOM      9  N   LIG    1       -2.270   2.248   2.670  0.00  0.00    -0.330 N 
ATOM     10  C   LIG    1       -1.058   2.238   3.279  0.00  0.00    +0.500 C 
ATOM     11  N   LIG    1       -0.150   1.836   2.425  0.00  0.00    -0.440 N 
ATOM     12  H   LIG    1        0.796   1.744   2.621  0.00  0.00    +0.470 HD
ENDROOT
TORSDOF 0
