REMARK  Name = ZINCpk00000eaR0u.0
REMARK                            x       y       z     vdW  Elec       q    Type
REMARK                         _______ _______ _______ _____ _____    ______ ____
ROOT
ATOM      1  N   LIG    1        2.323   0.998  -0.015  0.00  0.00    -0.740 N 
ATOM      2  H   LIG    1        2.336   0.028  -0.020  0.00  0.00    +0.400 HD
ATOM      3  C   LIG    1        1.147   1.655   0.000  0.00  0.00    +0.710 C 
ATOM      4  N   LIG    1       -0.011   0.966   0.007  0.00  0.00    -0.750 N 
ATOM      5  H   LIG    1        0.002  -0.004   0.002  0.00  0.00    +0.390 HD
ATOM      6  O   LIG    1        1.130   2.871   0.007  0.00  0.00    -0.580 OA
ENDROOT
BRANCH   1  16
ATOM      7  C   LIG    1        4.435  -0.605   0.294  0.00  0.00    +0.040 C 
ATOM      8  C   LIG    1        4.741   0.878   0.509  0.00  0.00    +0.030 C 
ATOM      9  C   LIG    1        5.950   1.290  -0.304  0.00  0.00    -0.090 A 
ATOM     10  C   LIG    1        7.300   1.092  -0.068  0.00  0.00    +0.020 A 
ATOM     11  C   LIG    1        8.239   1.564  -0.965  0.00  0.00    +0.000 A 
ATOM     12  C   LIG    1        7.830   2.238  -2.100  0.00  0.00    +0.000 A 
ATOM     13  C   LIG    1        6.484   2.437  -2.337  0.00  0.00    +0.010 A 
ATOM     14  C   LIG    1        5.541   1.964  -1.440  0.00  0.00    -0.090 A 
ATOM     15  C   LIG    1        4.028   2.055  -1.468  0.00  0.00    +0.070 C 
ATOM     16  C   LIG    1        3.582   1.747  -0.023  0.00  0.00    +0.270 C 
ENDBRANCH   1  16
BRANCH   4  17
ATOM     17  C   LIG    1       -1.290   1.681   0.017  0.00  0.00    +0.290 C 
BRANCH  17  18
ATOM     18  C   LIG    1       -2.439   0.671   0.017  0.00  0.00    +0.160 C 
BRANCH  18  19
ATOM     19  N   LIG    1       -3.721   1.388   0.027  0.00  0.00    -0.510 NA
ATOM     20  C   LIG    1       -3.957   2.067  -1.261  0.00  0.00    +0.190 C 
ATOM     21  C   LIG    1       -5.304   1.549  -1.812  0.00  0.00    +0.030 C 
ATOM     22  C   LIG    1       -6.013   1.020  -0.548  0.00  0.00    +0.250 C 
ATOM     23  O   LIG    1       -6.942  -0.013  -0.882  0.00  0.00    -0.360 OA
ATOM     24  C   LIG    1       -8.021   0.146   0.074  0.00  0.00    +0.200 C 
ATOM     25  C   LIG    1       -8.069   1.685   0.247  0.00  0.00    +0.200 C 
ATOM     26  O   LIG    1       -6.681   2.071   0.141  0.00  0.00    -0.350 OA
ATOM     27  C   LIG    1       -4.845   0.461   0.286  0.00  0.00    +0.190 C 
ENDBRANCH  18  19
ENDBRANCH  17  18
ENDBRANCH   4  17
TORSDOF 4
