REMARK  Name = ZINCvU00000009rM.0
REMARK                            x       y       z     vdW  Elec       q    Type
REMARK                         _______ _______ _______ _____ _____    ______ ____
ROOT
ATOM      1  C   LIG    1        4.835   1.066  -0.247  0.00  0.00    -0.150 A 
ATOM      2  C   LIG    1        4.856  -0.330  -0.251  0.00  0.00    +0.170 A 
ATOM      3  C   LIG    1        6.055  -0.999  -0.375  0.00  0.00    -0.690 A 
ATOM      4  C   LIG    1        7.239  -0.290  -0.486  0.00  0.00    +0.180 A 
ATOM      5  C   LIG    1        7.228   1.093  -0.478  0.00  0.00    +0.020 A 
ATOM      6  C   LIG    1        6.034   1.776  -0.360  0.00  0.00    +0.070 A 
ATOM      7 CL   LIG    1        6.021   3.512  -0.349  0.00  0.00    -0.010 Cl
ENDROOT
BRANCH   1  10
ATOM      8  N   LIG    1        2.399   1.101  -0.011  0.00  0.00    -0.670 N 
ATOM      9  H   LIG    1        2.416   0.134   0.050  0.00  0.00    +0.410 HD
ATOM     10  C   LIG    1        3.553   1.789  -0.119  0.00  0.00    +0.560 C 
ATOM     11  O   LIG    1        3.539   3.005  -0.112  0.00  0.00    -0.490 OA
BRANCH   8  15
ATOM     12  C   LIG    1       -1.241   3.133   0.060  0.00  0.00    +0.120 A 
ATOM     13  C   LIG    1       -0.122   3.693   0.659  0.00  0.00    -0.060 A 
ATOM     14  C   LIG    1        1.085   3.024   0.631  0.00  0.00    +0.060 A 
ATOM     15  C   LIG    1        1.177   1.784   0.012  0.00  0.00    +0.100 A 
ATOM     16  C   LIG    1        0.055   1.221  -0.583  0.00  0.00    +0.030 A 
ATOM     17  C   LIG    1       -1.150   1.895  -0.559  0.00  0.00    +0.010 A 
BRANCH  12  18
ATOM     18  O   LIG    1       -2.428   3.795   0.084  0.00  0.00    -0.320 OA
BRANCH  18  20
ATOM     19  C   LIG    1       -3.860   5.654   0.663  0.00  0.00    +0.070 C 
ATOM     20  C   LIG    1       -2.449   5.066   0.738  0.00  0.00    +0.170 C 
ENDBRANCH  18  20
ENDBRANCH  12  18
ENDBRANCH   8  15
ENDBRANCH   1  10
BRANCH   3  21
ATOM     21  S   LIG    1        6.082  -2.760  -0.387  0.00  0.00    +2.680 S 
ATOM     22  O   LIG    1        7.279  -3.139  -1.052  0.00  0.00    -0.940 OA
ATOM     23  O   LIG    1        4.792  -3.178  -0.811  0.00  0.00    -0.940 OA
BRANCH  21  24
ATOM     24  N   LIG    1        6.242  -3.259   1.184  0.00  0.00    -0.940 N 
BRANCH  24  25
ATOM     25  C   LIG    1        7.510  -3.350   1.762  0.00  0.00    +0.130 A 
ATOM     26  C   LIG    1        7.821  -2.589   2.882  0.00  0.00    +0.010 A 
ATOM     27  C   LIG    1        9.074  -2.685   3.454  0.00  0.00    +0.020 A 
ATOM     28  C   LIG    1       10.023  -3.530   2.907  0.00  0.00    +0.020 A 
ATOM     29  C   LIG    1        9.718  -4.285   1.789  0.00  0.00    +0.020 A 
ATOM     30  C   LIG    1        8.465  -4.198   1.216  0.00  0.00    +0.020 A 
ENDBRANCH  24  25
BRANCH  24  31
ATOM     31  C   LIG    1        5.053  -3.604   1.968  0.00  0.00    +0.300 C 
ATOM     32  C   LIG    1        4.816  -5.114   1.897  0.00  0.00    +0.020 C 
ENDBRANCH  24  31
ENDBRANCH  21  24
ENDBRANCH   3  21
TORSDOF 8
