REMARK  Name = ZINCrH000004uVnd.0
REMARK                            x       y       z     vdW  Elec       q    Type
REMARK                         _______ _______ _______ _____ _____    ______ ____
ROOT
ATOM      1  O   LIG    1        2.200   1.560   0.082  0.00  0.00    -0.570 OA
ATOM      2  C   LIG    1        1.140   2.151   0.003  0.00  0.00    +0.710 C 
ATOM      3  N   LIG    1        1.123   3.495  -0.092  0.00  0.00    -0.630 N 
ATOM      4  C   LIG    1        2.374   4.260  -0.205  0.00  0.00    +0.310 C 
ATOM      5  C   LIG    1        2.252   5.207  -1.409  0.00  0.00    +0.190 C 
ATOM      6  N   LIG    1        1.039   6.022  -1.263  0.00  0.00    -0.490 N 
ATOM      7  C   LIG    1       -0.169   5.186  -1.280  0.00  0.00    +0.190 C 
ATOM      8  C   LIG    1       -0.147   4.237  -0.078  0.00  0.00    +0.280 C 
ATOM      9  N   LIG    1       -0.018   1.461   0.010  0.00  0.00    -0.740 N 
ATOM     10  H   LIG    1       -0.864   1.934  -0.011  0.00  0.00    +0.390 HD
ENDROOT
BRANCH   6  11
ATOM     11  C   LIG    1        0.978   7.010  -2.248  0.00  0.00    +0.130 A 
ATOM     12  C   LIG    1       -0.132   7.096  -3.079  0.00  0.00    -0.050 A 
ATOM     13  C   LIG    1       -0.192   8.074  -4.053  0.00  0.00    +0.050 A 
ATOM     14  C   LIG    1        0.850   8.969  -4.203  0.00  0.00    -0.040 A 
ATOM     15  C   LIG    1        1.962   8.887  -3.376  0.00  0.00    +0.130 A 
ATOM     16  C   LIG    1        2.023   7.912  -2.394  0.00  0.00    -0.040 A 
BRANCH  15  17
ATOM     17  O   LIG    1        2.986   9.768  -3.525  0.00  0.00    -0.500 OA
ATOM     18  H   LIG    1        2.895  10.571  -2.993  0.00  0.00    +0.390 HD
ENDBRANCH  15  17
ENDBRANCH   6  11
BRANCH   9  19
ATOM     19  C   LIG    1        0.002  -0.004   0.041  0.00  0.00    +0.310 C 
BRANCH  19  20
ATOM     20  C   LIG    1       -1.274  -0.537  -0.557  0.00  0.00    -0.090 A 
ATOM     21  C   LIG    1       -2.478   0.084  -0.281  0.00  0.00    +0.010 A 
ATOM     22  C   LIG    1       -3.649  -0.403  -0.833  0.00  0.00    +0.000 A 
ATOM     23  C   LIG    1       -3.616  -1.514  -1.653  0.00  0.00    +0.000 A 
ATOM     24  C   LIG    1       -2.413  -2.138  -1.925  0.00  0.00    +0.010 A 
ATOM     25  C   LIG    1       -1.242  -1.649  -1.376  0.00  0.00    +0.010 A 
ENDBRANCH  19  20
BRANCH  19  26
ATOM     26  C   LIG    1        0.125  -0.481   1.490  0.00  0.00    -0.020 C 
ATOM     27  C   LIG    1       -0.697   0.355   2.485  0.00  0.00    +0.010 C 
ATOM     28  C   LIG    1        0.497   0.233   3.449  0.00  0.00    -0.010 C 
ATOM     29  C   LIG    1        1.382   0.041   2.206  0.00  0.00    +0.030 C 
ENDBRANCH  19  26
ENDBRANCH   9  19
TORSDOF 5
