REMARK  Name = ZINCpk00000y6wTy.1
REMARK                            x       y       z     vdW  Elec       q    Type
REMARK                         _______ _______ _______ _____ _____    ______ ____
ROOT
ATOM      1  C   LIG    1        3.581   0.739  -0.029  0.00  0.00    +0.330 C 
ATOM      2  N   LIG    1        4.088  -0.488  -0.631  0.00  0.00    -0.720 N 
ATOM      3  H   LIG    1        3.626  -0.838  -1.409  0.00  0.00    +0.400 HD
ATOM      4  C   LIG    1        5.149  -1.159  -0.187  0.00  0.00    +0.520 C 
ATOM      5  C   LIG    1        5.926  -0.762   1.035  0.00  0.00    +0.080 C 
ATOM      6  C   LIG    1        5.619   0.693   1.398  0.00  0.00    +0.010 C 
ATOM      7  O   LIG    1        5.503  -2.144  -0.798  0.00  0.00    -0.550 OA
ATOM      8  C   LIG    1        4.097   0.880   1.404  0.00  0.00    +0.180 C 
ENDROOT
BRANCH   1  14
ATOM      9  C   LIG    1        1.751  -1.809  -0.024  0.00  0.00    +0.330 C 
ATOM     10  N   LIG    1        1.287  -0.420  -0.013  0.00  0.00    -0.460 N 
ATOM     11  C   LIG    1        0.002  -0.004   0.002  0.00  0.00    +0.390 A 
ATOM     12  N   LIG    1       -0.016   1.301   0.009  0.00  0.00    -0.490 NA
ATOM     13  C   LIG    1        1.244   1.760  -0.000  0.00  0.00    +0.190 A 
ATOM     14  C   LIG    1        2.075   0.700  -0.014  0.00  0.00    -0.040 A 
ENDBRANCH   1  14
BRANCH   8  15
ATOM     15  N   LIG    1        3.766   2.216   1.918  0.00  0.00    -0.670 NA
ATOM     16  H   LIG    1        4.430   2.902   1.593  0.00  0.00    +0.360 HD
BRANCH  15  17
ATOM     17  C   LIG    1        3.688   2.211   3.385  0.00  0.00    +0.300 C 
BRANCH  17  18
ATOM     18  C   LIG    1        3.348   3.595   3.874  0.00  0.00    +0.280 A 
ATOM     19  N   LIG    1        4.218   4.514   4.177  0.00  0.00    -0.490 NA
ATOM     20  C   LIG    1        3.574   5.639   4.578  0.00  0.00    +0.050 A 
ATOM     21  C   LIG    1        4.006   6.897   5.005  0.00  0.00    +0.070 A 
ATOM     22  C   LIG    1        3.091   7.848   5.358  0.00  0.00    +0.000 A 
ATOM     23  C   LIG    1        1.731   7.579   5.298  0.00  0.00    +0.030 A 
ATOM     24  C   LIG    1        1.281   6.344   4.880  0.00  0.00    +0.010 A 
ATOM     25  C   LIG    1        2.196   5.366   4.517  0.00  0.00    +0.050 A 
ATOM     26  N   LIG    1        2.086   4.065   4.068  0.00  0.00    -0.480 N 
ATOM     27  C   LIG    1        0.841   3.327   3.841  0.00  0.00    +0.330 C 
ENDBRANCH  17  18
ENDBRANCH  15  17
ENDBRANCH   8  15
TORSDOF 4
