REMARK  Name = ZINCqH0000001CqW.0
REMARK                            x       y       z     vdW  Elec       q    Type
REMARK                         _______ _______ _______ _____ _____    ______ ____
ROOT
ATOM      1  C   LIG    1        1.375   4.144  -1.165  0.00  0.00    +0.490 C 
ATOM      2  O   LIG    1        1.368   3.498  -2.185  0.00  0.00    -0.490 OA
ENDROOT
BRANCH   1   3
ATOM      3  O   LIG    1        1.397   3.522   0.024  0.00  0.00    -0.340 OA
BRANCH   3  10
ATOM      4  C   LIG    1        2.155   1.553   1.242  0.00  0.00    +0.000 C 
ATOM      5  C   LIG    1        2.171   0.023   1.224  0.00  0.00    +0.030 C 
ATOM      6  C   LIG    1        0.734  -0.501   1.238  0.00  0.00    +0.020 C 
ATOM      7  C   LIG    1       -0.009   0.015   0.004  0.00  0.00    -0.020 C 
ATOM      8  C   LIG    1       -0.025   1.545   0.021  0.00  0.00    +0.020 C 
ATOM      9  C   LIG    1       -1.447  -0.510   0.017  0.00  0.00    +0.030 C 
ATOM     10  C   LIG    1        1.412   2.070   0.008  0.00  0.00    +0.180 C 
BRANCH   4  12
ATOM     11  C   LIG    1        4.294   1.676   2.527  0.00  0.00    +0.030 C 
ATOM     12  C   LIG    1        3.592   2.078   1.228  0.00  0.00    -0.010 C 
ATOM     13  C   LIG    1        4.342   1.480   0.036  0.00  0.00    +0.010 C 
ENDBRANCH   4  12
ENDBRANCH   3  10
ENDBRANCH   1   3
BRANCH   1  14
ATOM     14  C   LIG    1        1.359   5.650  -1.227  0.00  0.00    +0.150 C 
BRANCH  14  15
ATOM     15  S   LIG    1        1.330   6.182  -2.956  0.00  0.00    +0.130 S 
BRANCH  15  16
ATOM     16  C   LIG    1        1.315   7.931  -2.738  0.00  0.00    +0.200 A 
ATOM     17  N   LIG    1        1.324   8.576  -1.591  0.00  0.00    -0.330 NA
ATOM     18  N   LIG    1        1.309   9.845  -1.789  0.00  0.00    -0.020 NA
ATOM     19  N   LIG    1        1.290  10.103  -3.052  0.00  0.00    -0.070 NA
ATOM     20  N   LIG    1        1.298   8.866  -3.721  0.00  0.00    -0.310 N 
BRANCH  20  21
ATOM     21  C   LIG    1        1.289   8.647  -5.106  0.00  0.00    +0.120 A 
ATOM     22  C   LIG    1        1.989   7.576  -5.645  0.00  0.00    +0.030 A 
ATOM     23  C   LIG    1        1.973   7.359  -7.009  0.00  0.00    +0.050 A 
ATOM     24  C   LIG    1        1.271   8.214  -7.838  0.00  0.00    +0.040 A 
ATOM     25  C   LIG    1        0.577   9.285  -7.304  0.00  0.00    +0.040 A 
ATOM     26  C   LIG    1        0.585   9.504  -5.941  0.00  0.00    +0.050 A 
ENDBRANCH  20  21
ENDBRANCH  15  16
ENDBRANCH  14  15
ENDBRANCH   1  14
TORSDOF 7
