REMARK  Name = ZINCtV00001bB3Lr.0
REMARK                            x       y       z     vdW  Elec       q    Type
REMARK                         _______ _______ _______ _____ _____    ______ ____
ROOT
ATOM      1  N   LIG    1        4.311   8.279   0.234  0.00  0.00    -0.510 N 
ATOM      2  C   LIG    1        3.772   9.643   0.270  0.00  0.00    +0.360 C 
ATOM      3  C   LIG    1        2.273   9.512   0.165  0.00  0.00    -0.080 A 
ATOM      4  C   LIG    1        1.250  10.431   0.150  0.00  0.00    +0.040 A 
ATOM      5  C   LIG    1       -0.063  10.003   0.041  0.00  0.00    +0.060 A 
ATOM      6  C   LIG    1       -0.350   8.652  -0.053  0.00  0.00    +0.020 A 
ATOM      7  C   LIG    1        0.668   7.722  -0.040  0.00  0.00    +0.080 A 
ATOM      8  C   LIG    1        1.995   8.145   0.070  0.00  0.00    -0.150 A 
ATOM      9  C   LIG    1        3.269   7.406   0.111  0.00  0.00    +0.510 C 
ATOM     10  N   LIG    1        3.386   6.092   0.044  0.00  0.00    -0.610 NA
ENDROOT
BRANCH   1  15
ATOM     11  C   LIG    1        9.797   6.872   0.540  0.00  0.00    +0.090 C 
ATOM     12  C   LIG    1        8.339   7.246   0.459  0.00  0.00    -0.110 A 
ATOM     13  C   LIG    1        7.965   8.576   0.508  0.00  0.00    +0.040 A 
ATOM     14  C   LIG    1        6.629   8.922   0.434  0.00  0.00    -0.020 A 
ATOM     15  C   LIG    1        5.663   7.932   0.309  0.00  0.00    +0.160 A 
ATOM     16  C   LIG    1        6.043   6.597   0.265  0.00  0.00    +0.030 A 
ATOM     17  C   LIG    1        7.379   6.258   0.334  0.00  0.00    -0.060 A 
ATOM     18  C   LIG    1        7.793   4.810   0.279  0.00  0.00    +0.090 C 
ENDBRANCH   1  15
BRANCH  10  19
ATOM     19  C   LIG    1        2.304   5.333  -0.192  0.00  0.00    +0.690 C 
ATOM     20  N   LIG    1        1.799   5.249  -1.439  0.00  0.00    -0.680 N 
ATOM     21  H   LIG    1        2.254   5.684  -2.177  0.00  0.00    +0.410 HD
ATOM     22  O   LIG    1        1.778   4.721   0.720  0.00  0.00    -0.530 OA
BRANCH  20  23
ATOM     23  C   LIG    1        0.619   4.533  -1.670  0.00  0.00    +0.170 A 
ATOM     24  C   LIG    1       -0.284   4.972  -2.629  0.00  0.00    +0.010 A 
ATOM     25  C   LIG    1       -1.448   4.263  -2.855  0.00  0.00    +0.070 A 
ATOM     26  C   LIG    1       -1.718   3.121  -2.123  0.00  0.00    -0.050 A 
ATOM     27  C   LIG    1       -0.816   2.678  -1.170  0.00  0.00    -0.010 A 
ATOM     28 CL   LIG    1       -1.155   1.240  -0.258  0.00  0.00    -0.040 Cl
ATOM     29 CL   LIG    1       -3.185   2.237  -2.405  0.00  0.00    -0.050 Cl
ATOM     30  C   LIG    1        0.350   3.383  -0.940  0.00  0.00    +0.060 A 
ENDBRANCH  20  23
ENDBRANCH  10  19
TORSDOF 3
