REMARK  Name = ZINCvU000000070O.0
REMARK                            x       y       z     vdW  Elec       q    Type
REMARK                         _______ _______ _______ _____ _____    ______ ____
ROOT
ATOM      1  C   LIG    1       -4.123   1.775   0.031  0.00  0.00    +0.010 A 
ATOM      2  N   LIG    1       -4.117   3.071   0.038  0.00  0.00    -0.290 NA
ATOM      3  N   LIG    1       -5.356   3.673   0.047  0.00  0.00    -0.290 NA
ATOM      4  C   LIG    1       -6.371   2.866   0.048  0.00  0.00    +0.010 A 
ATOM      5  S   LIG    1       -5.789   1.205   0.029  0.00  0.00    +0.160 S 
ENDROOT
BRANCH   1   6
ATOM      6  S   LIG    1       -2.692   0.747   0.019  0.00  0.00    +0.090 S 
BRANCH   6   7
ATOM      7  C   LIG    1       -1.330   1.944   0.019  0.00  0.00    +0.080 C 
BRANCH   7   8
ATOM      8  C   LIG    1       -0.014   1.209   0.009  0.00  0.00    +0.420 C 
ATOM      9  O   LIG    1        0.002  -0.004   0.002  0.00  0.00    -0.440 OA
BRANCH   8  13
ATOM     10  C   LIG    1        3.624   3.376  -0.016  0.00  0.00    +0.170 A 
ATOM     11  C   LIG    1        3.646   1.986  -0.023  0.00  0.00    -0.030 A 
ATOM     12  C   LIG    1        2.471   1.279  -0.015  0.00  0.00    +0.130 A 
ATOM     13  C   LIG    1        1.247   1.960   0.001  0.00  0.00    -0.210 A 
ATOM     14  C   LIG    1        1.231   3.361   0.003  0.00  0.00    +0.110 A 
ATOM     15  C   LIG    1        2.412   4.058  -0.001  0.00  0.00    -0.080 A 
BRANCH  10  16
ATOM     16  O   LIG    1        4.790   4.070  -0.024  0.00  0.00    -0.310 OA
BRANCH  16  18
ATOM     17  C   LIG    1        6.101   6.100  -0.028  0.00  0.00    +0.070 C 
ATOM     18  C   LIG    1        4.696   5.496  -0.017  0.00  0.00    +0.190 C 
ENDBRANCH  16  18
ENDBRANCH  10  16
ENDBRANCH   8  13
ENDBRANCH   7   8
ENDBRANCH   6   7
ENDBRANCH   1   6
BRANCH   4  19
ATOM     19  S   LIG    1       -8.064   3.355   0.059  0.00  0.00    +0.090 S 
BRANCH  19  20
ATOM     20  C   LIG    1       -7.965   5.166   0.069  0.00  0.00    +0.080 C 
BRANCH  20  21
ATOM     21  C   LIG    1       -9.357   5.745   0.079  0.00  0.00    +0.420 C 
ATOM     22  O   LIG    1      -10.320   5.007   0.079  0.00  0.00    -0.440 OA
BRANCH  21  23
ATOM     23  C   LIG    1       -9.547   7.201   0.087  0.00  0.00    -0.210 A 
ATOM     24  C   LIG    1       -8.437   8.054   0.093  0.00  0.00    +0.110 A 
ATOM     25  C   LIG    1       -8.619   9.413   0.097  0.00  0.00    -0.080 A 
ATOM     26  C   LIG    1       -9.905   9.944   0.106  0.00  0.00    +0.170 A 
ATOM     27  C   LIG    1      -11.011   9.101   0.106  0.00  0.00    -0.030 A 
ATOM     28  C   LIG    1      -10.839   7.741   0.097  0.00  0.00    +0.130 A 
BRANCH  26  29
ATOM     29  O   LIG    1      -10.080  11.289   0.115  0.00  0.00    -0.310 OA
BRANCH  29  30
ATOM     30  C   LIG    1       -8.901  12.097   0.115  0.00  0.00    +0.190 C 
ATOM     31  C   LIG    1       -9.296  13.575   0.126  0.00  0.00    +0.070 C 
ENDBRANCH  29  30
ENDBRANCH  26  29
ENDBRANCH  21  23
ENDBRANCH  20  21
ENDBRANCH  19  20
ENDBRANCH   4  19
TORSDOF 12
