REMARK  Name = ZINCvU000000095U.0
REMARK                            x       y       z     vdW  Elec       q    Type
REMARK                         _______ _______ _______ _____ _____    ______ ____
ROOT
ATOM      1  C   LIG    1        5.912   1.229   4.174  0.00  0.00    +0.060 C 
ENDROOT
BRANCH   1   2
ATOM      2  C   LIG    1        5.882  -0.175   3.626  0.00  0.00    -0.100 A 
ATOM      3  C   LIG    1        5.873  -1.254   4.490  0.00  0.00    +0.040 A 
ATOM      4  C   LIG    1        5.841  -2.541   3.988  0.00  0.00    +0.010 A 
ATOM      5  C   LIG    1        5.827  -2.750   2.622  0.00  0.00    +0.020 A 
ATOM      6  C   LIG    1        5.841  -1.671   1.757  0.00  0.00    +0.010 A 
ATOM      7  C   LIG    1        5.868  -0.384   2.260  0.00  0.00    +0.060 A 
ENDBRANCH   1   2
BRANCH   1  10
ATOM      8  N   LIG    1        8.315   1.758   4.422  0.00  0.00    -0.660 N 
ATOM      9  H   LIG    1        8.374   1.810   3.455  0.00  0.00    +0.420 HD
ATOM     10  C   LIG    1        7.152   1.415   5.010  0.00  0.00    +0.550 C 
ATOM     11  O   LIG    1        7.103   1.258   6.211  0.00  0.00    -0.490 OA
BRANCH   8  16
ATOM     12  C   LIG    1       10.412   2.914   7.227  0.00  0.00    -0.150 A 
ATOM     13  C   LIG    1       11.685   2.587   6.749  0.00  0.00    +0.060 A 
ATOM     14  C   LIG    1       11.825   1.993   5.512  0.00  0.00    +0.030 A 
ATOM     15  C   LIG    1       10.710   1.714   4.744  0.00  0.00    +0.020 A 
ATOM     16  C   LIG    1        9.440   2.039   5.207  0.00  0.00    +0.130 A 
ATOM     17  C   LIG    1        9.286   2.636   6.447  0.00  0.00    +0.090 A 
BRANCH  12  19
ATOM     18  C   LIG    1       11.475   3.847   9.385  0.00  0.00    +0.080 C 
ATOM     19  C   LIG    1       10.259   3.549   8.546  0.00  0.00    +0.390 C 
ATOM     20  O   LIG    1        9.154   3.831   8.959  0.00  0.00    -0.450 OA
ENDBRANCH  12  19
ENDBRANCH   8  16
ENDBRANCH   1  10
BRANCH   1  21
ATOM     21  S   LIG    1        4.446   1.509   5.198  0.00  0.00    +0.150 S 
BRANCH  21  22
ATOM     22  C   LIG    1        3.187   1.381   3.972  0.00  0.00    +0.120 A 
ATOM     23  N   LIG    1        3.369   1.146   2.694  0.00  0.00    -0.270 NA
ATOM     24  N   LIG    1        2.229   1.115   2.098  0.00  0.00    -0.270 NA
ATOM     25  C   LIG    1        1.275   1.338   2.968  0.00  0.00    +0.260 A 
ATOM     26  O   LIG    1        1.861   1.508   4.174  0.00  0.00    -0.200 OA
BRANCH  25  27
ATOM     27  C   LIG    1       -0.174   1.388   2.685  0.00  0.00    -0.150 A 
ATOM     28  C   LIG    1       -0.782   1.220   1.478  0.00  0.00    +0.080 A 
ATOM     29  O   LIG    1       -2.106   1.346   1.650  0.00  0.00    -0.170 OA
ATOM     30  C   LIG    1       -2.398   1.585   2.937  0.00  0.00    +0.190 A 
ATOM     31  C   LIG    1       -0.085   0.945   0.171  0.00  0.00    +0.200 C 
ATOM     32  C   LIG    1       -1.258   1.630   3.646  0.00  0.00    -0.020 A 
ENDBRANCH  25  27
ENDBRANCH  21  22
ENDBRANCH   1  21
TORSDOF 7
