REMARK  Name = ZINCpk00000e9TVB.0
REMARK                            x       y       z     vdW  Elec       q    Type
REMARK                         _______ _______ _______ _____ _____    ______ ____
ROOT
ATOM      1  C   LIG    1        0.754   4.595   3.200  0.00  0.00    +0.070 A 
ATOM      2  N   LIG    1        0.755   4.150   1.966  0.00  0.00    -0.200 NA
ATOM      3  N   LIG    1        1.775   3.642   1.385  0.00  0.00    -0.370 N 
ATOM      4  C   LIG    1        2.982   3.513   1.974  0.00  0.00    +0.520 A 
ATOM      5  C   LIG    1        3.136   3.975   3.361  0.00  0.00    -0.140 A 
ATOM      6  C   LIG    1        4.337   3.888   4.057  0.00  0.00    +0.090 A 
ATOM      7  C   LIG    1        4.400   4.345   5.356  0.00  0.00    +0.030 A 
ATOM      8  C   LIG    1        3.280   4.888   5.972  0.00  0.00    +0.060 A 
ATOM      9  C   LIG    1        2.080   4.984   5.299  0.00  0.00    +0.080 A 
ATOM     10  O   LIG    1        3.920   3.025   1.372  0.00  0.00    -0.490 OA
ATOM     11  C   LIG    1        1.996   4.529   3.988  0.00  0.00    -0.040 A 
ENDROOT
BRANCH   1  15
ATOM     12  C   LIG    1       -2.828   5.778   3.644  0.00  0.00    +0.300 C 
ATOM     13  N   LIG    1       -1.608   5.217   3.060  0.00  0.00    -0.710 N 
ATOM     14  H   LIG    1       -1.614   4.886   2.148  0.00  0.00    +0.410 HD
ATOM     15  C   LIG    1       -0.475   5.161   3.789  0.00  0.00    +0.590 C 
ATOM     16  O   LIG    1       -0.467   5.576   4.931  0.00  0.00    -0.520 OA
ENDBRANCH   1  15
BRANCH   3  17
ATOM     17  C   LIG    1        1.626   3.179   0.003  0.00  0.00    +0.510 C 
BRANCH  17  18
ATOM     18  C   LIG    1        1.208   1.732  -0.000  0.00  0.00    +0.120 A 
ATOM     19  N   LIG    1       -0.015   1.282   0.009  0.00  0.00    -0.250 NA
ATOM     20  N   LIG    1        0.002  -0.004   0.002  0.00  0.00    -0.280 NA
ATOM     21  C   LIG    1        1.237  -0.420  -0.012  0.00  0.00    +0.190 A 
ATOM     22  O   LIG    1        2.027   0.667  -0.014  0.00  0.00    -0.210 OA
BRANCH  21  23
ATOM     23  C   LIG    1        1.694  -1.855  -0.024  0.00  0.00    +0.090 C 
ATOM     24  C   LIG    1        0.808  -2.777  -0.879  0.00  0.00    +0.060 C 
ATOM     25  C   LIG    1        0.974  -3.832   0.228  0.00  0.00    +0.030 C 
ATOM     26  C   LIG    1        1.221  -2.663   1.196  0.00  0.00    +0.050 C 
ENDBRANCH  21  23
ENDBRANCH  17  18
ENDBRANCH   3  17
TORSDOF 4
