REMARK  Name = ZINCpk00000e99k0.0
REMARK                            x       y       z     vdW  Elec       q    Type
REMARK                         _______ _______ _______ _____ _____    ______ ____
ROOT
ATOM      1  C   LIG    1       -0.612   1.634  -1.314  0.00  0.00    +0.080 C 
ATOM      2  C   LIG    1        0.618   1.589  -2.255  0.00  0.00    +0.280 C 
ATOM      3  N   LIG    1        1.761   1.959  -1.400  0.00  0.00    -0.620 N 
ATOM      4  C   LIG    1        1.423   1.651  -0.003  0.00  0.00    +0.250 C 
ATOM      5  C   LIG    1        2.922   2.492  -1.829  0.00  0.00    +0.530 C 
ATOM      6  O   LIG    1        3.092   2.705  -3.010  0.00  0.00    -0.510 OA
ATOM      7  C   LIG    1       -0.013   1.086   0.008  0.00  0.00    +0.010 C 
ENDROOT
BRANCH   1  10
ATOM      8  N   LIG    1       -3.663   0.012  -2.478  0.00  0.00    -0.360 N 
ATOM      9  C   LIG    1       -3.003   1.095  -2.017  0.00  0.00    +0.240 A 
ATOM     10  C   LIG    1       -1.712   0.738  -1.821  0.00  0.00    -0.230 A 
ATOM     11  C   LIG    1       -1.582  -0.612  -2.166  0.00  0.00    +0.240 A 
ATOM     12  N   LIG    1       -2.751  -1.048  -2.560  0.00  0.00    -0.290 NA
BRANCH   8  14
ATOM     13  C   LIG    1       -5.908  -0.322  -1.566  0.00  0.00    +0.040 C 
ATOM     14  C   LIG    1       -5.085  -0.046  -2.826  0.00  0.00    +0.250 C 
ATOM     15  C   LIG    1       -5.517   1.289  -3.435  0.00  0.00    +0.050 C 
ENDBRANCH   8  14
ENDBRANCH   1  10
BRANCH   5  16
ATOM     16  C   LIG    1        4.010   2.823  -0.839  0.00  0.00    +0.240 C 
BRANCH  16  17
ATOM     17  O   LIG    1        5.133   3.372  -1.532  0.00  0.00    -0.280 OA
BRANCH  17  18
ATOM     18  C   LIG    1        6.208   3.727  -0.780  0.00  0.00    +0.080 A 
ATOM     19  C   LIG    1        7.342   4.263  -1.381  0.00  0.00    +0.050 A 
ATOM     20  C   LIG    1        8.411   4.615  -0.572  0.00  0.00    +0.020 A 
ATOM     21  C   LIG    1        8.321   4.412   0.792  0.00  0.00    +0.220 A 
ATOM     22  N   LIG    1        7.233   3.897   1.329  0.00  0.00    -0.450 NA
ATOM     23  C   LIG    1        6.192   3.554   0.596  0.00  0.00    +0.180 A 
ENDBRANCH  17  18
ENDBRANCH  16  17
ENDBRANCH   5  16
BRANCH   7  24
ATOM     24  C   LIG    1       -0.791   1.608   1.217  0.00  0.00    +0.190 C 
BRANCH  24  25
ATOM     25  O   LIG    1       -0.251   1.041   2.413  0.00  0.00    -0.570 OA
ATOM     26  H   LIG    1       -0.697   1.329   3.221  0.00  0.00    +0.380 HD
ENDBRANCH  24  25
ENDBRANCH   7  24
TORSDOF 7
