REMARK  Name = ZINCrH00000No4Jc.0
REMARK                            x       y       z     vdW  Elec       q    Type
REMARK                         _______ _______ _______ _____ _____    ______ ____
ROOT
ATOM      1  N   LIG    1        4.873   5.076  -0.017  0.00  0.00    -0.670 N 
ATOM      2  H   LIG    1        5.508   4.346  -0.076  0.00  0.00    +0.410 HD
ATOM      3  C   LIG    1        3.562   4.817   0.164  0.00  0.00    +0.550 C 
ATOM      4  O   LIG    1        2.779   5.733   0.334  0.00  0.00    -0.530 OA
ENDROOT
BRANCH   1  10
ATOM      5  C   LIG    1        9.098  11.140   0.517  0.00  0.00    +0.140 C 
ATOM      6  C   LIG    1        8.074  10.056   0.298  0.00  0.00    +0.080 A 
ATOM      7  C   LIG    1        8.221   8.773   0.663  0.00  0.00    -0.060 A 
ATOM      8  C   LIG    1        6.998   8.071   0.264  0.00  0.00    -0.090 A 
ATOM      9  C   LIG    1        6.561   6.750   0.370  0.00  0.00    +0.030 A 
ATOM     10  C   LIG    1        5.317   6.400  -0.120  0.00  0.00    +0.120 A 
ATOM     11  C   LIG    1        4.505   7.361  -0.721  0.00  0.00    +0.040 A 
ATOM     12  C   LIG    1        4.924   8.668  -0.825  0.00  0.00    +0.010 A 
ATOM     13  C   LIG    1        6.173   9.039  -0.338  0.00  0.00    +0.080 A 
ATOM     14  N   LIG    1        6.857  10.235  -0.301  0.00  0.00    -0.590 N 
ATOM     15  H   LIG    1        6.525  11.078  -0.648  0.00  0.00    +0.410 HD
ENDBRANCH   1  10
BRANCH   3  16
ATOM     16  C   LIG    1        3.083   3.437   0.155  0.00  0.00    -0.060 C 
ATOM     17  C   LIG    1        1.770   3.177   0.337  0.00  0.00    +0.170 C 
BRANCH  17  18
ATOM     18  C   LIG    1        1.288   1.788   0.329  0.00  0.00    -0.050 A 
ATOM     19  C   LIG    1       -0.019   1.386   0.501  0.00  0.00    +0.250 A 
ATOM     20  N   LIG    1       -0.022   0.038   0.423  0.00  0.00    -0.350 N 
ATOM     21  N   LIG    1        1.304  -0.359   0.202  0.00  0.00    -0.060 NA
ATOM     22  N   LIG    1        2.046   0.691   0.152  0.00  0.00    -0.220 NA
BRANCH  20  23
ATOM     23  C   LIG    1       -1.188  -0.841   0.547  0.00  0.00    +0.380 C 
BRANCH  23  24
ATOM     24  C   LIG    1       -1.280  -1.726  -0.669  0.00  0.00    -0.120 A 
ATOM     25  C   LIG    1       -2.005  -1.313  -1.772  0.00  0.00    +0.020 A 
ATOM     26  C   LIG    1       -2.085  -2.123  -2.889  0.00  0.00    +0.010 A 
ATOM     27  C   LIG    1       -1.450  -3.351  -2.900  0.00  0.00    +0.030 A 
ATOM     28  C   LIG    1       -0.730  -3.766  -1.795  0.00  0.00    +0.010 A 
ATOM     29  C   LIG    1       -0.645  -2.954  -0.680  0.00  0.00    +0.050 A 
ENDBRANCH  23  24
ENDBRANCH  20  23
ENDBRANCH  17  18
ENDBRANCH   3  16
TORSDOF 5
