REMARK  Name = ZINCrD000000fGL1.0
REMARK                            x       y       z     vdW  Elec       q    Type
REMARK                         _______ _______ _______ _____ _____    ______ ____
ROOT
ATOM      1  C   LIG    1       -0.796   1.662  -1.205  0.00  0.00    +0.510 C 
ATOM      2  N   LIG    1       -0.372   1.388  -2.454  0.00  0.00    -0.730 N 
ATOM      3  H   LIG    1        0.419   0.844  -2.589  0.00  0.00    +0.400 HD
ATOM      4  O   LIG    1       -1.786   2.342  -1.036  0.00  0.00    -0.520 OA
ENDROOT
BRANCH   2   5
ATOM      5  C   LIG    1       -1.106   1.913  -3.608  0.00  0.00    +0.290 C 
ATOM      6  C   LIG    1       -2.260   0.969  -3.951  0.00  0.00    +0.040 C 
BRANCH   5   7
ATOM      7  C   LIG    1       -0.176   2.019  -4.789  0.00  0.00    -0.100 A 
ATOM      8  C   LIG    1        0.757   1.026  -5.024  0.00  0.00    +0.040 A 
ATOM      9  C   LIG    1        1.608   1.118  -6.108  0.00  0.00    +0.000 A 
ATOM     10  C   LIG    1        1.532   2.213  -6.957  0.00  0.00    +0.140 A 
ATOM     11  C   LIG    1        0.597   3.211  -6.717  0.00  0.00    +0.010 A 
ATOM     12  C   LIG    1       -0.254   3.111  -5.633  0.00  0.00    +0.060 A 
BRANCH  10  13
ATOM     13  N   LIG    1        2.397   2.312  -8.057  0.00  0.00    -0.410 N 
ATOM     14  C   LIG    1        3.367   1.411  -8.413  0.00  0.00    +0.120 A 
ATOM     15  C   LIG    1        3.955   1.891  -9.525  0.00  0.00    +0.160 A 
ATOM     16  N   LIG    1        3.370   3.057  -9.838  0.00  0.00    -0.480 NA
ATOM     17  C   LIG    1        2.435   3.320  -8.966  0.00  0.00    +0.400 A 
ENDBRANCH  10  13
ENDBRANCH   5   7
ENDBRANCH   2   5
BRANCH   1  18
ATOM     18  C   LIG    1       -0.042   1.122  -0.017  0.00  0.00    +0.060 C 
BRANCH  18  19
ATOM     19  C   LIG    1       -0.728   1.576   1.273  0.00  0.00    +0.350 C 
BRANCH  19  22
ATOM     20  C   LIG    1       -4.342   0.858   2.305  0.00  0.00    +0.090 C 
ATOM     21  C   LIG    1       -3.010   1.541   2.125  0.00  0.00    +0.520 C 
ATOM     22  N   LIG    1       -2.061   0.974   1.355  0.00  0.00    -0.720 N 
ATOM     23  H   LIG    1       -2.260   0.167   0.855  0.00  0.00    +0.400 HD
ATOM     24  O   LIG    1       -2.793   2.600   2.674  0.00  0.00    -0.540 OA
ENDBRANCH  19  22
BRANCH  19  25
ATOM     25  C   LIG    1        0.094   1.140   2.459  0.00  0.00    -0.200 A 
ATOM     26  C   LIG    1        0.859   1.943   3.200  0.00  0.00    +0.020 A 
ATOM     27  C   LIG    1        1.521   1.317   4.243  0.00  0.00    +0.010 A 
ATOM     28  C   LIG    1        1.300   0.006   4.343  0.00  0.00    -0.050 A 
ATOM     29  S   LIG    1        0.197  -0.505   3.072  0.00  0.00    +0.100 S 
ENDBRANCH  19  25
ENDBRANCH  18  19
ENDBRANCH   1  18
TORSDOF 7
