REMARK  Name = ZINCvU0000000H1f.0
REMARK                            x       y       z     vdW  Elec       q    Type
REMARK                         _______ _______ _______ _____ _____    ______ ____
ROOT
ATOM      1  C   LIG    1        2.170   6.018   0.960  0.00  0.00    +0.150 A 
ATOM      2  N   LIG    1        0.949   6.500   0.993  0.00  0.00    -0.290 NA
ATOM      3  N   LIG    1        0.980   7.754   1.271  0.00  0.00    -0.270 NA
ATOM      4  C   LIG    1        2.212   8.147   1.432  0.00  0.00    +0.220 A 
ATOM      5  N   LIG    1        3.016   7.054   1.245  0.00  0.00    -0.420 N 
ENDROOT
BRANCH   5   6
ATOM      6  C   LIG    1        4.416   7.008   1.325  0.00  0.00    +0.110 A 
ATOM      7  C   LIG    1        5.051   7.250   2.535  0.00  0.00    +0.050 A 
ATOM      8  C   LIG    1        6.429   7.198   2.614  0.00  0.00    +0.050 A 
ATOM      9  C   LIG    1        7.177   6.916   1.484  0.00  0.00    -0.020 A 
ATOM     10  C   LIG    1        6.546   6.680   0.275  0.00  0.00    +0.060 A 
ATOM     11 CL   LIG    1        8.909   6.857   1.584  0.00  0.00    -0.050 Cl
ATOM     12  C   LIG    1        5.168   6.725   0.193  0.00  0.00    +0.060 A 
ENDBRANCH   5   6
BRANCH   4  13
ATOM     13  C   LIG    1        2.667   9.544   1.768  0.00  0.00    +0.270 C 
ATOM     14  C   LIG    1        2.384   9.832   3.243  0.00  0.00    +0.030 C 
BRANCH  13  15
ATOM     15  N   LIG    1        1.941  10.510   0.932  0.00  0.00    -0.530 NA
ATOM     16  C   LIG    1        2.519  11.854   1.058  0.00  0.00    +0.200 C 
ATOM     17  C   LIG    1        0.509  10.520   1.263  0.00  0.00    +0.200 C 
ENDBRANCH  13  15
ENDBRANCH   4  13
BRANCH   1  18
ATOM     18  S   LIG    1        2.630   4.352   0.621  0.00  0.00    +0.090 S 
BRANCH  18  19
ATOM     19  C   LIG    1        0.995   3.620   0.361  0.00  0.00    +0.110 C 
BRANCH  19  21
ATOM     20  N   LIG    1        0.050   1.378  -0.084  0.00  0.00    -0.540 N 
ATOM     21  C   LIG    1        1.144   2.154   0.047  0.00  0.00    +0.540 C 
ATOM     22  O   LIG    1        2.249   1.672  -0.087  0.00  0.00    -0.500 OA
BRANCH  20  23
ATOM     23  C   LIG    1        0.189  -0.002  -0.268  0.00  0.00    +0.150 A 
ATOM     24  C   LIG    1       -0.930  -0.824  -0.243  0.00  0.00    -0.030 A 
ATOM     25  C   LIG    1       -0.790  -2.185  -0.430  0.00  0.00    +0.030 A 
ATOM     26  C   LIG    1        0.465  -2.731  -0.631  0.00  0.00    -0.020 A 
ATOM     27  C   LIG    1        1.582  -1.917  -0.651  0.00  0.00    +0.020 A 
ATOM     28  C   LIG    1        1.448  -0.554  -0.470  0.00  0.00    +0.010 A 
ENDBRANCH  20  23
BRANCH  20  30
ATOM     29  C   LIG    1       -2.063   1.587  -1.297  0.00  0.00    +0.040 C 
ATOM     30  C   LIG    1       -1.284   1.980  -0.040  0.00  0.00    +0.220 C 
ATOM     31  C   LIG    1       -2.030   1.479   1.198  0.00  0.00    +0.040 C 
ENDBRANCH  20  30
ENDBRANCH  19  21
ENDBRANCH  18  19
ENDBRANCH   1  18
TORSDOF 8
