REMARK  Name = ZINCrH000004lgzu.0
REMARK                            x       y       z     vdW  Elec       q    Type
REMARK                         _______ _______ _______ _____ _____    ______ ____
ROOT
ATOM      1  C   LIG    1        4.270   5.670  -0.009  0.00  0.00    +0.230 A 
ATOM      2  N   LIG    1        2.963   5.606   0.004  0.00  0.00    -0.370 NA
ATOM      3  O   LIG    1        2.597   4.450   0.002  0.00  0.00    +0.090 OA
ATOM      4  C   LIG    1        3.662   3.633  -0.014  0.00  0.00    +0.240 A 
ATOM      5  N   LIG    1        4.736   4.404  -0.015  0.00  0.00    -0.440 NA
ENDROOT
BRANCH   4   6
ATOM      6  C   LIG    1        3.639   2.158  -0.022  0.00  0.00    -0.040 A 
ATOM      7  C   LIG    1        4.821   1.431  -0.038  0.00  0.00    +0.110 A 
ATOM      8  C   LIG    1        4.797   0.043  -0.045  0.00  0.00    +0.010 A 
ATOM      9  C   LIG    1        3.628  -0.655  -0.038  0.00  0.00    +0.080 A 
ATOM     10  C   LIG    1        2.394   0.016  -0.021  0.00  0.00    -0.060 A 
ATOM     11  C   LIG    1        1.179  -0.690  -0.013  0.00  0.00    +0.030 A 
ATOM     12  C   LIG    1        0.002  -0.004   0.002  0.00  0.00    +0.010 A 
ATOM     13  C   LIG    1       -0.017   1.388   0.010  0.00  0.00    +0.030 A 
ATOM     14  C   LIG    1        1.143   2.105   0.002  0.00  0.00    +0.020 A 
ATOM     15  C   LIG    1        2.371   1.432  -0.013  0.00  0.00    -0.020 A 
ENDBRANCH   4   6
BRANCH   1  19
ATOM     16  C   LIG    1        6.523   9.172  -0.015  0.00  0.00    +0.300 A 
ATOM     17  C   LIG    1        7.144   7.926  -0.028  0.00  0.00    +0.250 A 
ATOM     18  N   LIG    1        6.417   6.826  -0.020  0.00  0.00    -0.360 NA
ATOM     19  C   LIG    1        5.090   6.907  -0.011  0.00  0.00    +0.100 A 
ATOM     20  C   LIG    1        4.470   8.154   0.002  0.00  0.00    +0.320 A 
ATOM     21  N   LIG    1        5.200   9.254  -0.000  0.00  0.00    -0.490 NA
BRANCH  16  22
ATOM     22  O   LIG    1        7.273  10.302  -0.016  0.00  0.00    -0.290 OA
BRANCH  22  23
ATOM     23  C   LIG    1        6.570  11.546  -0.002  0.00  0.00    +0.210 C 
BRANCH  23  24
ATOM     24  C   LIG    1        7.575  12.700  -0.006  0.00  0.00    +0.050 C 
BRANCH  24  25
ATOM     25  C   LIG    1        6.823  14.032   0.009  0.00  0.00    +0.170 C 
BRANCH  25  27
ATOM     26  C   LIG    1        7.159  16.405   0.019  0.00  0.00    +0.200 C 
ATOM     27  O   LIG    1        7.762  15.109   0.006  0.00  0.00    -0.390 OA
ENDBRANCH  25  27
ENDBRANCH  24  25
ENDBRANCH  23  24
ENDBRANCH  22  23
ENDBRANCH  16  22
ENDBRANCH   1  19
TORSDOF 7
