REMARK  Name = ZINCrD0000075tbE.0
REMARK                            x       y       z     vdW  Elec       q    Type
REMARK                         _______ _______ _______ _____ _____    ______ ____
ROOT
ATOM      1  C   LIG    1        5.759   8.074   0.462  0.00  0.00    +0.110 C 
ENDROOT
BRANCH   1   3
ATOM      2  O   LIG    1        3.737   6.883   0.708  0.00  0.00    -0.510 OA
ATOM      3  C   LIG    1        4.948   6.824   0.686  0.00  0.00    +0.540 C 
ATOM      4  N   LIG    1        5.569   5.641   0.862  0.00  0.00    -0.520 N 
ATOM      5  H   LIG    1        6.538   5.594   0.845  0.00  0.00    +0.430 HD
BRANCH   4   6
ATOM      6  N   LIG    1        4.815   4.478   1.070  0.00  0.00    -0.520 N 
ATOM      7  H   LIG    1        3.846   4.525   1.087  0.00  0.00    +0.430 HD
ATOM      8  C   LIG    1        5.436   3.295   1.246  0.00  0.00    +0.570 C 
ATOM      9  O   LIG    1        6.650   3.236   1.224  0.00  0.00    -0.530 OA
BRANCH   8  10
ATOM     10  C   LIG    1        4.640   2.068   1.465  0.00  0.00    -0.190 A 
ATOM     11  C   LIG    1        5.273   0.833   1.649  0.00  0.00    +0.140 A 
ATOM     12  C   LIG    1        4.482  -0.285   1.851  0.00  0.00    -0.030 A 
ATOM     13  C   LIG    1        3.106  -0.148   1.859  0.00  0.00    +0.300 A 
ATOM     14  N   LIG    1        2.537   1.030   1.688  0.00  0.00    -0.480 NA
ATOM     15  C   LIG    1        3.246   2.122   1.493  0.00  0.00    +0.300 A 
ENDBRANCH   8  10
ENDBRANCH   4   6
ENDBRANCH   1   3
BRANCH   1  16
ATOM     16  S   LIG    1        4.644   9.491   0.262  0.00  0.00    -0.140 S 
BRANCH  16  17
ATOM     17  C   LIG    1        5.786  10.877   0.007  0.00  0.00    +0.110 C 
BRANCH  17  18
ATOM     18  C   LIG    1        5.006  12.165  -0.056  0.00  0.00    -0.060 A 
ATOM     19  C   LIG    1        3.932  12.281  -0.918  0.00  0.00    +0.030 A 
ATOM     20  C   LIG    1        3.214  13.461  -0.973  0.00  0.00    +0.010 A 
ATOM     21  C   LIG    1        3.577  14.528  -0.172  0.00  0.00    +0.010 A 
ATOM     22  C   LIG    1        4.654  14.414   0.686  0.00  0.00    +0.010 A 
ATOM     23  C   LIG    1        5.369  13.232   0.745  0.00  0.00    +0.020 A 
ENDBRANCH  17  18
BRANCH  17  24
ATOM     24  C   LIG    1        6.536  10.679  -1.285  0.00  0.00    -0.090 A 
ATOM     25  C   LIG    1        5.844  10.415  -2.452  0.00  0.00    +0.030 A 
ATOM     26  C   LIG    1        6.531  10.238  -3.638  0.00  0.00    +0.000 A 
ATOM     27  C   LIG    1        7.911  10.316  -3.655  0.00  0.00    +0.000 A 
ATOM     28  C   LIG    1        8.604  10.576  -2.487  0.00  0.00    +0.000 A 
ATOM     29  C   LIG    1        7.916  10.758  -1.302  0.00  0.00    +0.010 A 
ENDBRANCH  17  24
ENDBRANCH  16  17
ENDBRANCH   1  16
TORSDOF 7
