REMARK  Name = ZINCrD000000CVSA.0
REMARK                            x       y       z     vdW  Elec       q    Type
REMARK                         _______ _______ _______ _____ _____    ______ ____
ROOT
ATOM      1  O   LIG    1        5.126   8.132  -2.240  0.00  0.00    -0.530 OA
ATOM      2  C   LIG    1        5.556   8.306  -1.117  0.00  0.00    +0.700 C 
ATOM      3  N   LIG    1        6.770   8.826  -0.851  0.00  0.00    -0.720 N 
ATOM      4  H   LIG    1        7.431   9.117  -1.499  0.00  0.00    +0.440 HD
ATOM      5  C   LIG    1        6.895   8.865   0.612  0.00  0.00    +0.170 C 
ATOM      6  C   LIG    1        5.581   8.302   1.106  0.00  0.00    +0.540 C 
ATOM      7  O   LIG    1        5.235   8.149   2.258  0.00  0.00    -0.450 OA
ATOM      8  C   LIG    1        8.055   7.991   1.070  0.00  0.00    +0.060 C 
ATOM      9  C   LIG    1        8.250   8.197   2.578  0.00  0.00    +0.040 C 
ATOM     10  C   LIG    1        8.779   9.611   2.808  0.00  0.00    +0.070 C 
ATOM     11  C   LIG    1        7.918  10.626   2.104  0.00  0.00    -0.050 A 
ATOM     12  C   LIG    1        8.017  11.951   2.504  0.00  0.00    +0.010 A 
ATOM     13  C   LIG    1        7.265  12.929   1.885  0.00  0.00    +0.030 A 
ATOM     14  C   LIG    1        6.406  12.586   0.858  0.00  0.00    +0.010 A 
ATOM     15  C   LIG    1        6.303  11.268   0.461  0.00  0.00    +0.020 A 
ATOM     16  C   LIG    1        7.056  10.283   1.084  0.00  0.00    -0.100 A 
ATOM     17  N   LIG    1        4.876   8.003  -0.004  0.00  0.00    -0.580 N 
ENDROOT
BRANCH  17  18
ATOM     18  C   LIG    1        3.531   7.423   0.006  0.00  0.00    +0.320 C 
BRANCH  18  19
ATOM     19  C   LIG    1        3.633   5.897  -0.003  0.00  0.00    +0.030 C 
BRANCH  19  20
ATOM     20  C   LIG    1        2.227   5.292   0.008  0.00  0.00    +0.200 C 
BRANCH  20  21
ATOM     21  O   LIG    1        2.323   3.866  -0.000  0.00  0.00    -0.310 OA
BRANCH  21  22
ATOM     22  C   LIG    1        1.155   3.169   0.008  0.00  0.00    +0.120 A 
ATOM     23  C   LIG    1        1.175   1.782   0.000  0.00  0.00    +0.020 A 
ATOM     24  C   LIG    1       -0.013   1.076   0.008  0.00  0.00    +0.030 A 
ATOM     25  C   LIG    1       -1.221   1.751   0.017  0.00  0.00    +0.060 A 
ATOM     26  C   LIG    1       -1.242   3.136   0.030  0.00  0.00    +0.030 A 
ATOM     27  F   LIG    1       -2.381   1.059   0.019  0.00  0.00    -0.140 F 
ATOM     28  C   LIG    1       -0.056   3.845   0.022  0.00  0.00    -0.040 A 
ENDBRANCH  21  22
ENDBRANCH  20  21
ENDBRANCH  19  20
ENDBRANCH  18  19
ENDBRANCH  17  18
TORSDOF 5
