REMARK  Name = ZINCrH000004pJws.0
REMARK                            x       y       z     vdW  Elec       q    Type
REMARK                         _______ _______ _______ _____ _____    ______ ____
ROOT
ATOM      1  C   LIG    1       -4.338   2.934   3.413  0.00  0.00    -0.040 A 
ATOM      2  C   LIG    1       -5.289   2.773   2.422  0.00  0.00    +0.020 A 
ATOM      3  C   LIG    1       -6.377   1.948   2.637  0.00  0.00    +0.120 A 
ATOM      4  C   LIG    1       -6.520   1.292   3.845  0.00  0.00    -0.670 A 
ATOM      5  C   LIG    1       -5.571   1.457   4.837  0.00  0.00    +0.120 A 
ATOM      6  C   LIG    1       -4.481   2.278   4.621  0.00  0.00    +0.020 A 
ENDROOT
BRANCH   4   7
ATOM      7  S   LIG    1       -7.910   0.246   4.120  0.00  0.00    +2.690 S 
ATOM      8  O   LIG    1       -7.527  -0.672   5.135  0.00  0.00    -0.950 OA
ATOM      9  O   LIG    1       -8.368  -0.160   2.838  0.00  0.00    -0.950 OA
BRANCH   7  10
ATOM     10  N   LIG    1       -9.110   1.186   4.769  0.00  0.00    -1.000 NA
ATOM     11  C   LIG    1       -9.230   1.347   6.224  0.00  0.00    +0.290 C 
ATOM     12  C   LIG    1       -9.248   2.848   6.550  0.00  0.00    +0.010 C 
ATOM     13  C   LIG    1      -10.362   3.525   5.749  0.00  0.00    +0.020 C 
ATOM     14  C   LIG    1      -10.088   3.361   4.252  0.00  0.00    +0.010 C 
ATOM     15  C   LIG    1      -10.077   1.870   3.900  0.00  0.00    +0.290 C 
ENDBRANCH   7  10
ENDBRANCH   4   7
BRANCH   1  16
ATOM     16  C   LIG    1       -3.149   3.830   3.177  0.00  0.00    +0.260 C 
BRANCH  16  20
ATOM     17  C   LIG    1       -0.692   2.050   1.258  0.00  0.00    +0.180 A 
ATOM     18  N   LIG    1       -0.318   1.822   2.482  0.00  0.00    -0.380 NA
ATOM     19  O   LIG    1       -1.066   2.377   3.259  0.00  0.00    +0.080 OA
ATOM     20  C   LIG    1       -2.022   3.023   2.585  0.00  0.00    +0.180 A 
ATOM     21  N   LIG    1       -1.792   2.821   1.310  0.00  0.00    -0.470 NA
BRANCH  17  26
ATOM     22  C   LIG    1        1.127  -1.242  -1.876  0.00  0.00    +0.030 C 
ATOM     23  C   LIG    1        1.353  -0.422  -0.604  0.00  0.00    -0.020 C 
ATOM     24  C   LIG    1        2.107   0.881  -0.942  0.00  0.00    +0.020 C 
ATOM     25  C   LIG    1        1.477   1.939  -0.002  0.00  0.00    +0.020 C 
ATOM     26  C   LIG    1       -0.019   1.538   0.011  0.00  0.00    +0.110 C 
ATOM     27  C   LIG    1        0.002  -0.004   0.002  0.00  0.00    +0.030 C 
ENDBRANCH  17  26
ENDBRANCH  16  20
ENDBRANCH   1  16
TORSDOF 5
