REMARK  Name = ZINCkj000005f41S.2
REMARK                            x       y       z     vdW  Elec       q    Type
REMARK                         _______ _______ _______ _____ _____    ______ ____
ROOT
ATOM      1  C   LIG    1       -4.647   0.925   0.565  0.00  0.00    +0.260 C 
ENDROOT
BRANCH   1   2
ATOM      2  N   LIG    1       -4.381   0.356   1.889  0.00  0.00    -0.730 N 
ATOM      3  H   LIG    1       -3.812   0.830   2.515  0.00  0.00    +0.400 HD
ATOM      4  C   LIG    1       -4.926  -0.827   2.235  0.00  0.00    +0.650 C 
ATOM      5  O   LIG    1       -5.560  -1.466   1.419  0.00  0.00    -0.550 OA
BRANCH   4   6
ATOM      6  O   LIG    1       -4.768  -1.301   3.486  0.00  0.00    -0.360 OA
BRANCH   6   7
ATOM      7  C   LIG    1       -5.383  -2.581   3.788  0.00  0.00    +0.140 C 
ATOM      8  C   LIG    1       -6.895  -2.484   3.573  0.00  0.00    +0.040 C 
ATOM      9  C   LIG    1       -5.098  -2.952   5.245  0.00  0.00    +0.080 C 
ATOM     10  C   LIG    1       -4.804  -3.655   2.866  0.00  0.00    +0.030 C 
ENDBRANCH   6   7
ENDBRANCH   4   6
ENDBRANCH   1   2
BRANCH   1  11
ATOM     11  C   LIG    1       -5.998   1.643   0.582  0.00  0.00    +0.040 C 
BRANCH  11  13
ATOM     12  C   LIG    1       -6.538   0.959  -1.760  0.00  0.00    +0.010 C 
ATOM     13  C   LIG    1       -6.323   2.151  -0.825  0.00  0.00    -0.020 C 
ATOM     14  C   LIG    1       -7.595   3.000  -0.780  0.00  0.00    +0.030 C 
ENDBRANCH  11  13
ENDBRANCH   1  11
BRANCH   1  15
ATOM     15  C   LIG    1       -3.543   1.923   0.208  0.00  0.00    +0.280 C 
BRANCH  15  16
ATOM     16  N   LIG    1       -2.235   1.262   0.309  0.00  0.00    -0.370 N 
ATOM     17  C   LIG    1       -2.142   0.202  -0.703  0.00  0.00    +0.330 C 
ATOM     18  H   LIG    1       -2.131   0.860   1.229  0.00  0.00    +0.430 HD
BRANCH  16  19
ATOM     19  C   LIG    1       -1.170   2.249   0.084  0.00  0.00    +0.290 C 
BRANCH  19  20
ATOM     20  C   LIG    1        0.172   1.600   0.308  0.00  0.00    +0.510 C 
ATOM     21  O   LIG    1        0.234   0.430   0.625  0.00  0.00    -0.530 OA
ATOM     22  N   LIG    1        1.302   2.317   0.151  0.00  0.00    -0.820 N 
ATOM     23  H   LIG    1        1.252   3.252  -0.102  0.00  0.00    +0.410 HD
ATOM     24  H   LIG    1        2.165   1.898   0.292  0.00  0.00    +0.420 HD
ENDBRANCH  19  20
ENDBRANCH  16  19
ENDBRANCH  15  16
ENDBRANCH   1  15
TORSDOF 9
