REMARK  Name = ZINCkj000005f41S.1
REMARK                            x       y       z     vdW  Elec       q    Type
REMARK                         _______ _______ _______ _____ _____    ______ ____
ROOT
ATOM      1  C   LIG    1       -0.539   1.802   3.642  0.00  0.00    +0.260 C 
ENDROOT
BRANCH   1   2
ATOM      2  N   LIG    1       -1.959   1.470   3.788  0.00  0.00    -0.730 N 
ATOM      3  H   LIG    1       -2.321   0.685   3.349  0.00  0.00    +0.410 HD
ATOM      4  C   LIG    1       -2.761   2.256   4.533  0.00  0.00    +0.650 C 
ATOM      5  O   LIG    1       -2.308   3.240   5.084  0.00  0.00    -0.550 OA
BRANCH   4   6
ATOM      6  O   LIG    1       -4.066   1.951   4.668  0.00  0.00    -0.360 OA
BRANCH   6   7
ATOM      7  C   LIG    1       -4.870   2.842   5.485  0.00  0.00    +0.140 C 
ATOM      8  C   LIG    1       -4.308   2.877   6.907  0.00  0.00    +0.040 C 
ATOM      9  C   LIG    1       -6.314   2.337   5.519  0.00  0.00    +0.080 C 
ATOM     10  C   LIG    1       -4.837   4.250   4.888  0.00  0.00    +0.040 C 
ENDBRANCH   6   7
ENDBRANCH   4   6
ENDBRANCH   1   2
BRANCH   1  11
ATOM     11  C   LIG    1        0.287   0.941   4.600  0.00  0.00    +0.040 C 
BRANCH  11  13
ATOM     12  C   LIG    1        0.665   0.358   7.000  0.00  0.00    +0.030 C 
ATOM     13  C   LIG    1       -0.067   1.302   6.044  0.00  0.00    -0.020 C 
ATOM     14  C   LIG    1        0.358   2.745   6.328  0.00  0.00    +0.030 C 
ENDBRANCH  11  13
ENDBRANCH   1  11
BRANCH   1  15
ATOM     15  C   LIG    1       -0.098   1.530   2.203  0.00  0.00    +0.280 C 
BRANCH  15  16
ATOM     16  N   LIG    1       -0.930   2.313   1.279  0.00  0.00    -0.370 N 
ATOM     17  C   LIG    1       -0.590   1.960  -0.105  0.00  0.00    +0.330 C 
ATOM     18  H   LIG    1       -1.904   2.108   1.449  0.00  0.00    +0.430 HD
BRANCH  16  19
ATOM     19  C   LIG    1       -0.686   3.745   1.494  0.00  0.00    +0.290 C 
BRANCH  19  20
ATOM     20  C   LIG    1       -1.628   4.549   0.634  0.00  0.00    +0.510 C 
ATOM     21  O   LIG    1       -2.424   3.984  -0.086  0.00  0.00    -0.530 OA
ATOM     22  N   LIG    1       -1.585   5.896   0.666  0.00  0.00    -0.820 N 
ATOM     23  H   LIG    1       -2.191   6.413   0.113  0.00  0.00    +0.420 HD
ATOM     24  H   LIG    1       -0.949   6.348   1.242  0.00  0.00    +0.410 HD
ENDBRANCH  19  20
ENDBRANCH  16  19
ENDBRANCH  15  16
ENDBRANCH   1  15
TORSDOF 9
