REMARK  Name = ZINCpe000000Yr07.0
REMARK                            x       y       z     vdW  Elec       q    Type
REMARK                         _______ _______ _______ _____ _____    ______ ____
ROOT
ATOM      1  N   LIG    1        4.100   0.836  -1.414  0.00  0.00    -0.540 NA
ATOM      2  C   LIG    1        3.762  -0.355  -2.205  0.00  0.00    +0.200 C 
ATOM      3  C   LIG    1        4.201  -0.142  -3.655  0.00  0.00    +0.190 C 
ATOM      4  N   LIG    1        5.646   0.119  -3.694  0.00  0.00    -0.520 NA
ATOM      5  C   LIG    1        5.984   1.310  -2.903  0.00  0.00    +0.180 C 
ATOM      6  C   LIG    1        5.546   1.098  -1.452  0.00  0.00    +0.190 C 
ENDROOT
BRANCH   1   7
ATOM      7  C   LIG    1        3.626   0.702  -0.030  0.00  0.00    +0.280 C 
BRANCH   7  13
ATOM      8  C   LIG    1        1.739   3.160   0.002  0.00  0.00    +0.350 C 
ATOM      9  N   LIG    1        1.309   1.760  -0.001  0.00  0.00    -0.360 N 
ATOM     10  N   LIG    1       -0.016   1.304   0.009  0.00  0.00    -0.300 NA
ATOM     11  C   LIG    1        0.002  -0.004   0.002  0.00  0.00    +0.230 A 
ATOM     12  C   LIG    1        1.337  -0.423  -0.013  0.00  0.00    -0.120 A 
ATOM     13  C   LIG    1        2.119   0.681  -0.015  0.00  0.00    +0.090 A 
ENDBRANCH   7  13
ENDBRANCH   1   7
BRANCH   4  14
ATOM     14  C   LIG    1        6.120   0.254  -5.078  0.00  0.00    +0.220 C 
BRANCH  14  15
ATOM     15  C   LIG    1        5.979  -1.068  -5.788  0.00  0.00    +0.520 C 
ATOM     16  N   LIG    1        6.354  -1.183  -7.078  0.00  0.00    -0.730 N 
ATOM     17  H   LIG    1        6.715  -0.416  -7.548  0.00  0.00    +0.410 HD
ATOM     18  O   LIG    1        5.528  -2.028  -5.199  0.00  0.00    -0.500 OA
BRANCH  16  19
ATOM     19  C   LIG    1        6.217  -2.468  -7.768  0.00  0.00    +0.280 C 
ATOM     20  C   LIG    1        7.050  -3.528  -7.045  0.00  0.00    +0.050 C 
ATOM     21  C   LIG    1        6.907  -4.869  -7.766  0.00  0.00    +0.020 C 
ATOM     22  C   LIG    1        7.400  -4.729  -9.207  0.00  0.00    +0.020 C 
ATOM     23  C   LIG    1        6.567  -3.669  -9.931  0.00  0.00    +0.020 C 
ATOM     24  C   LIG    1        6.710  -2.328  -9.210  0.00  0.00    +0.050 C 
BRANCH  19  25
ATOM     25  C   LIG    1        4.802  -2.875  -7.771  0.00  0.00    +0.200 C 
ATOM     26  N   LIG    1        3.710  -3.189  -7.774  0.00  0.00    -0.410 NA
ENDBRANCH  19  25
ENDBRANCH  16  19
ENDBRANCH  14  15
ENDBRANCH   4  14
TORSDOF 6
