REMARK  Name = ZINCrg000000mSaC.0
REMARK                            x       y       z     vdW  Elec       q    Type
REMARK                         _______ _______ _______ _____ _____    ______ ____
ROOT
ATOM      1  C   LIG    1       -0.742   1.585  -1.213  0.00  0.00    +0.520 C 
ATOM      2  N   LIG    1       -0.288   1.272  -2.443  0.00  0.00    -0.610 N 
ATOM      3  C   LIG    1        0.919   0.451  -2.609  0.00  0.00    +0.270 C 
ATOM      4  C   LIG    1        0.564  -0.761  -3.487  0.00  0.00    +0.300 C 
ATOM      5  N   LIG    1       -0.137  -0.282  -4.686  0.00  0.00    -1.000 NA
ATOM      6  C   LIG    1       -1.341   0.545  -4.521  0.00  0.00    +0.300 C 
ATOM      7  C   LIG    1       -0.989   1.752  -3.643  0.00  0.00    +0.280 C 
ATOM      8  O   LIG    1       -1.736   2.268  -1.088  0.00  0.00    -0.530 OA
ENDROOT
BRANCH   5   9
ATOM      9  S   LIG    1        0.420  -0.666  -6.198  0.00  0.00    +2.690 S 
ATOM     10  O   LIG    1       -0.694  -0.563  -7.074  0.00  0.00    -0.940 OA
ATOM     11  O   LIG    1        1.188  -1.853  -6.053  0.00  0.00    -0.940 OA
BRANCH   9  12
ATOM     12  C   LIG    1        1.548   0.601  -6.676  0.00  0.00    -0.650 A 
ATOM     13  C   LIG    1        1.090   1.713  -7.357  0.00  0.00    +0.130 A 
ATOM     14  C   LIG    1        1.974   2.709  -7.728  0.00  0.00    +0.060 A 
ATOM     15  C   LIG    1        3.317   2.588  -7.426  0.00  0.00    -0.130 A 
ATOM     16  C   LIG    1        3.776   1.473  -6.750  0.00  0.00    +0.060 A 
ATOM     17  C   LIG    1        2.891   0.480  -6.375  0.00  0.00    +0.130 A 
BRANCH  15  18
ATOM     18  C   LIG    1        4.282   3.671  -7.835  0.00  0.00    +0.500 C 
ATOM     19  F   LIG    1        5.339   3.724  -6.920  0.00  0.00    -0.170 F 
ATOM     20  F   LIG    1        3.619   4.903  -7.853  0.00  0.00    -0.170 F 
ATOM     21  F   LIG    1        4.783   3.392  -9.111  0.00  0.00    -0.170 F 
ENDBRANCH  15  18
ENDBRANCH   9  12
ENDBRANCH   5   9
BRANCH   1  22
ATOM     22  C   LIG    1       -0.013   1.086   0.008  0.00  0.00    +0.050 C 
BRANCH  22  23
ATOM     23  C   LIG    1       -0.729   1.579   1.267  0.00  0.00    +0.290 C 
BRANCH  23  26
ATOM     24  C   LIG    1        0.256   0.907   4.905  0.00  0.00    +0.100 C 
ATOM     25  C   LIG    1       -0.473   1.407   3.684  0.00  0.00    +0.510 C 
ATOM     26  N   LIG    1       -0.020   1.094   2.454  0.00  0.00    -0.740 N 
ATOM     27  H   LIG    1        0.775   0.547   2.354  0.00  0.00    +0.400 HD
ATOM     28  O   LIG    1       -1.468   2.090   3.808  0.00  0.00    -0.540 OA
ENDBRANCH  23  26
ENDBRANCH  22  23
ENDBRANCH   1  22
TORSDOF 6
