REMARK  Name = ZINCrD0000075kj3.0
REMARK                            x       y       z     vdW  Elec       q    Type
REMARK                         _______ _______ _______ _____ _____    ______ ____
ROOT
ATOM      1  C   LIG    1       -3.183  -0.091   3.393  0.00  0.00    -0.250 A 
ATOM      2  C   LIG    1       -3.857   0.960   4.011  0.00  0.00    +0.230 A 
ATOM      3  C   LIG    1       -4.090   2.130   3.289  0.00  0.00    +0.000 A 
ATOM      4  C   LIG    1       -3.659   2.237   2.006  0.00  0.00    +0.100 A 
ATOM      5  N   LIG    1       -3.008   1.217   1.397  0.00  0.00    -0.470 N 
ATOM      6  C   LIG    1       -2.757   0.066   2.048  0.00  0.00    +0.540 A 
ATOM      7  O   LIG    1       -2.165  -0.839   1.485  0.00  0.00    -0.530 OA
ENDROOT
BRANCH   1  11
ATOM      8  N   LIG    1       -2.168  -2.307   3.552  0.00  0.00    -0.840 N 
ATOM      9  H   LIG    1       -1.933  -3.099   4.058  0.00  0.00    +0.400 HD
ATOM     10  H   LIG    1       -1.865  -2.208   2.636  0.00  0.00    +0.410 HD
ATOM     11  C   LIG    1       -2.917  -1.341   4.121  0.00  0.00    +0.580 C 
ATOM     12  O   LIG    1       -3.374  -1.504   5.237  0.00  0.00    -0.550 OA
ENDBRANCH   1  11
BRANCH   4  13
ATOM     13  C   LIG    1       -3.914   3.511   1.244  0.00  0.00    +0.500 C 
ATOM     14  F   LIG    1       -4.779   3.251   0.175  0.00  0.00    -0.170 F 
ATOM     15  F   LIG    1       -2.703   4.011   0.752  0.00  0.00    -0.130 F 
ATOM     16  F   LIG    1       -4.497   4.456   2.096  0.00  0.00    -0.160 F 
ENDBRANCH   4  13
BRANCH   5  17
ATOM     17  C   LIG    1       -2.564   1.372   0.009  0.00  0.00    +0.410 C 
BRANCH  17  18
ATOM     18  C   LIG    1       -1.114   1.781  -0.012  0.00  0.00    -0.050 A 
ATOM     19  C   LIG    1       -0.059   0.955  -0.128  0.00  0.00    +0.220 A 
ATOM     20  O   LIG    1        1.051   1.718  -0.111  0.00  0.00    -0.190 OA
ATOM     21  C   LIG    1        0.665   2.999   0.022  0.00  0.00    +0.230 A 
ATOM     22  N   LIG    1       -0.646   3.035   0.085  0.00  0.00    -0.430 NA
BRANCH  21  23
ATOM     23  C   LIG    1        1.564   4.170   0.086  0.00  0.00    -0.020 A 
ATOM     24  C   LIG    1        2.947   3.996   0.007  0.00  0.00    +0.060 A 
ATOM     25  C   LIG    1        3.781   5.094   0.067  0.00  0.00    +0.020 A 
ATOM     26  C   LIG    1        3.251   6.364   0.205  0.00  0.00    +0.050 A 
ATOM     27  C   LIG    1        1.881   6.544   0.283  0.00  0.00    +0.030 A 
ATOM     28  C   LIG    1        1.034   5.455   0.219  0.00  0.00    +0.000 A 
ATOM     29 CL   LIG    1       -0.684   5.683   0.310  0.00  0.00    -0.020 Cl
ENDBRANCH  21  23
ENDBRANCH  17  18
ENDBRANCH   5  17
TORSDOF 5
