REMARK  Name = ZINCrD000000CUre.0
REMARK                            x       y       z     vdW  Elec       q    Type
REMARK                         _______ _______ _______ _____ _____    ______ ____
ROOT
ATOM      1  O   LIG    1        5.246   8.363  -2.006  0.00  0.00    -0.540 OA
ATOM      2  C   LIG    1        5.056   8.328  -3.203  0.00  0.00    +0.530 C 
ATOM      3  N   LIG    1        6.112   8.375  -4.017  0.00  0.00    -0.720 N 
ATOM      4  H   LIG    1        6.994   8.444  -3.620  0.00  0.00    +0.410 HD
ATOM      5  C   LIG    1        6.013   8.330  -5.466  0.00  0.00    +0.320 C 
ATOM      6  C   LIG    1        4.654   8.753  -5.949  0.00  0.00    -0.100 A 
ATOM      7  C   LIG    1        4.522   9.196  -7.257  0.00  0.00    +0.020 A 
ATOM      8  C   LIG    1        3.291   9.592  -7.738  0.00  0.00    +0.020 A 
ATOM      9  C   LIG    1        2.182   9.549  -6.914  0.00  0.00    +0.020 A 
ATOM     10  C   LIG    1        2.312   9.108  -5.612  0.00  0.00    +0.020 A 
ATOM     11  C   LIG    1        3.548   8.709  -5.128  0.00  0.00    -0.070 A 
ATOM     12  C   LIG    1        3.646   8.235  -3.702  0.00  0.00    -0.030 C 
ATOM     13  C   LIG    1        2.735   9.099  -2.822  0.00  0.00    +0.070 C 
ATOM     14  C   LIG    1        2.772   8.571  -1.386  0.00  0.00    +0.200 C 
ATOM     15  N   LIG    1        2.316   7.176  -1.363  0.00  0.00    -0.520 NA
ATOM     16  C   LIG    1        3.196   6.317  -2.166  0.00  0.00    +0.170 C 
ATOM     17  C   LIG    1        3.171   6.779  -3.624  0.00  0.00    +0.070 C 
ENDROOT
BRANCH  15  18
ATOM     18  C   LIG    1        2.209   6.679   0.015  0.00  0.00    +0.300 C 
BRANCH  18  19
ATOM     19  C   LIG    1        1.511   5.344   0.015  0.00  0.00    +0.300 A 
ATOM     20  N   LIG    1        0.221   5.177   0.026  0.00  0.00    -0.470 NA
ATOM     21  C   LIG    1       -0.069   3.851   0.022  0.00  0.00    +0.060 A 
ATOM     22  C   LIG    1       -1.263   3.126   0.030  0.00  0.00    +0.090 A 
ATOM     23  C   LIG    1       -1.227   1.749   0.017  0.00  0.00    -0.040 A 
ATOM     24  C   LIG    1       -0.013   1.076   0.008  0.00  0.00    +0.050 A 
ATOM     25  C   LIG    1        1.175   1.777   0.000  0.00  0.00    +0.030 A 
ATOM     26 CL   LIG    1       -2.711   0.848   0.020  0.00  0.00    -0.060 Cl
ATOM     27  C   LIG    1        1.157   3.164   0.007  0.00  0.00    +0.050 A 
ATOM     28  N   LIG    1        2.138   4.137   0.003  0.00  0.00    -0.600 N 
ATOM     29  H   LIG    1        3.096   3.987  -0.006  0.00  0.00    +0.420 HD
ENDBRANCH  18  19
ENDBRANCH  15  18
TORSDOF 2
