REMARK  Name = ZINCrD000000CUre.1
REMARK                            x       y       z     vdW  Elec       q    Type
REMARK                         _______ _______ _______ _____ _____    ______ ____
ROOT
ATOM      1  O   LIG    1       -3.422   5.801   0.980  0.00  0.00    -0.540 OA
ATOM      2  C   LIG    1       -2.438   5.242   0.545  0.00  0.00    +0.530 C 
ATOM      3  N   LIG    1       -1.281   5.906   0.534  0.00  0.00    -0.720 N 
ATOM      4  H   LIG    1       -1.269   6.811   0.882  0.00  0.00    +0.410 HD
ATOM      5  C   LIG    1       -0.038   5.348   0.029  0.00  0.00    +0.320 C 
ATOM      6  C   LIG    1       -0.059   3.846   0.023  0.00  0.00    -0.100 A 
ATOM      7  C   LIG    1        1.150   3.165   0.008  0.00  0.00    +0.020 A 
ATOM      8  C   LIG    1        1.174   1.785   0.000  0.00  0.00    +0.020 A 
ATOM      9  C   LIG    1       -0.013   1.076   0.008  0.00  0.00    +0.020 A 
ATOM     10  C   LIG    1       -1.217   1.752   0.017  0.00  0.00    +0.020 A 
ATOM     11  C   LIG    1       -1.241   3.138   0.030  0.00  0.00    -0.070 A 
ATOM     12  C   LIG    1       -2.575   3.835   0.044  0.00  0.00    -0.030 C 
ATOM     13  C   LIG    1       -3.537   3.062   0.954  0.00  0.00    +0.060 C 
ATOM     14  C   LIG    1       -4.915   3.725   0.911  0.00  0.00    +0.170 C 
ATOM     15  N   LIG    1       -5.419   3.722  -0.469  0.00  0.00    -0.520 NA
ATOM     16  C   LIG    1       -4.537   4.492  -1.356  0.00  0.00    +0.180 C 
ATOM     17  C   LIG    1       -3.147   3.853  -1.379  0.00  0.00    +0.070 C 
ENDROOT
BRANCH  15  18
ATOM     18  C   LIG    1       -6.796   4.228  -0.527  0.00  0.00    +0.300 C 
BRANCH  18  19
ATOM     19  C   LIG    1       -7.713   3.274   0.194  0.00  0.00    +0.300 A 
ATOM     20  N   LIG    1       -8.255   2.217  -0.336  0.00  0.00    -0.470 NA
ATOM     21  C   LIG    1       -9.020   1.583   0.591  0.00  0.00    +0.050 A 
ATOM     22  C   LIG    1       -9.806   0.428   0.564  0.00  0.00    +0.090 A 
ATOM     23  C   LIG    1      -10.481   0.037   1.686  0.00  0.00    +0.020 A 
ATOM     24  C   LIG    1      -10.395   0.777   2.858  0.00  0.00    -0.020 A 
ATOM     25  C   LIG    1       -9.624   1.921   2.907  0.00  0.00    +0.030 A 
ATOM     26 CL   LIG    1      -11.261   0.260   4.270  0.00  0.00    -0.060 Cl
ATOM     27  C   LIG    1       -8.932   2.333   1.776  0.00  0.00    +0.060 A 
ATOM     28  N   LIG    1       -8.098   3.396   1.494  0.00  0.00    -0.600 N 
ATOM     29  H   LIG    1       -7.836   4.100   2.107  0.00  0.00    +0.420 HD
ENDBRANCH  18  19
ENDBRANCH  15  18
TORSDOF 2
