REMARK  Name = ZINCrH000004nOIe.0
REMARK                            x       y       z     vdW  Elec       q    Type
REMARK                         _______ _______ _______ _____ _____    ______ ____
ROOT
ATOM      1  C   LIG    1       -2.748  -4.687   0.003  0.00  0.00    +0.560 C 
ATOM      2  N   LIG    1       -1.862  -3.674   0.073  0.00  0.00    -0.610 N 
ATOM      3  C   LIG    1       -1.006  -3.348  -1.076  0.00  0.00    +0.270 C 
ATOM      4  C   LIG    1        0.455  -3.338  -0.616  0.00  0.00    +0.040 C 
ATOM      5  C   LIG    1        0.605  -2.383   0.571  0.00  0.00    +0.090 C 
ATOM      6  C   LIG    1       -0.264  -2.869   1.732  0.00  0.00    +0.040 C 
ATOM      7  C   LIG    1       -1.733  -2.874   1.298  0.00  0.00    +0.280 C 
ATOM      8  O   LIG    1       -3.377  -5.012   0.991  0.00  0.00    -0.530 OA
ENDROOT
BRANCH   5   9
ATOM      9  C   LIG    1        2.048  -2.344   1.005  0.00  0.00    +0.100 A 
ATOM     10  N   LIG    1        2.705  -3.365   1.409  0.00  0.00    -0.460 NA
ATOM     11  C   LIG    1        3.991  -3.183   1.767  0.00  0.00    +0.080 A 
ATOM     12  C   LIG    1        4.934  -4.118   2.240  0.00  0.00    +0.080 A 
ATOM     13  C   LIG    1        6.200  -3.723   2.550  0.00  0.00    +0.030 A 
ATOM     14  C   LIG    1        6.587  -2.399   2.404  0.00  0.00    +0.040 A 
ATOM     15  C   LIG    1        5.687  -1.464   1.943  0.00  0.00    +0.060 A 
ATOM     16  C   LIG    1        4.387  -1.849   1.623  0.00  0.00    -0.180 A 
ATOM     17  S   LIG    1        3.009  -0.934   1.019  0.00  0.00    +0.100 S 
ENDBRANCH   5   9
BRANCH   1  22
ATOM     18  C   LIG    1       -3.411  -7.434  -2.470  0.00  0.00    -0.670 A 
ATOM     19  C   LIG    1       -3.343  -6.742  -3.666  0.00  0.00    +0.150 A 
ATOM     20  C   LIG    1       -3.083  -5.383  -3.672  0.00  0.00    +0.000 A 
ATOM     21  C   LIG    1       -2.893  -4.708  -2.484  0.00  0.00    +0.100 A 
ATOM     22  C   LIG    1       -2.955  -5.402  -1.274  0.00  0.00    -0.150 A 
ATOM     23  C   LIG    1       -3.218  -6.772  -1.275  0.00  0.00    +0.180 A 
BRANCH  18  25
ATOM     24  C   LIG    1       -5.551  -9.278  -2.381  0.00  0.00    -0.250 C 
ATOM     25  S   LIG    1       -3.743  -9.164  -2.474  0.00  0.00    +2.500 S 
ATOM     26  O   LIG    1       -3.151  -9.637  -1.272  0.00  0.00    -0.930 OA
ATOM     27  O   LIG    1       -3.281  -9.608  -3.742  0.00  0.00    -0.930 OA
ENDBRANCH  18  25
ENDBRANCH   1  22
TORSDOF 3
