REMARK  Name = ZINCAx0000000cFz.0
REMARK                            x       y       z     vdW  Elec       q    Type
REMARK                         _______ _______ _______ _____ _____    ______ ____
ROOT
ATOM      1  C   LIG    1        3.413   2.946  -0.013  0.00  0.00    -0.060 A 
ATOM      2  C   LIG    1        2.926   4.240  -0.002  0.00  0.00    +0.060 A 
ATOM      3  C   LIG    1        1.560   4.477   0.012  0.00  0.00    +0.110 A 
ATOM      4  C   LIG    1        0.678   3.409   0.014  0.00  0.00    -0.140 A 
ATOM      5  C   LIG    1       -0.795   3.287   0.027  0.00  0.00    +0.580 C 
ATOM      6  N   LIG    1       -1.117   1.980   0.018  0.00  0.00    -0.560 N 
ATOM      7  C   LIG    1       -0.014   1.210   0.009  0.00  0.00    +0.580 C 
ATOM      8  O   LIG    1        0.002  -0.004   0.002  0.00  0.00    -0.450 OA
ATOM      9  O   LIG    1       -1.583   4.211   0.040  0.00  0.00    -0.450 OA
ATOM     10  C   LIG    1        1.174   2.089   0.002  0.00  0.00    -0.130 A 
ATOM     11  C   LIG    1        2.541   1.868  -0.012  0.00  0.00    +0.100 A 
ENDROOT
BRANCH   6  12
ATOM     12  C   LIG    1       -2.489   1.465   0.020  0.00  0.00    +0.270 C 
ATOM     13  C   LIG    1       -3.228   1.970  -1.223  0.00  0.00    +0.070 C 
ATOM     14  C   LIG    1       -4.688   1.512  -1.143  0.00  0.00    +0.110 C 
ATOM     15  C   LIG    1       -5.286   1.994   0.153  0.00  0.00    +0.520 C 
ATOM     16  N   LIG    1       -4.528   2.173   1.246  0.00  0.00    -0.670 N 
ATOM     17  H   LIG    1       -4.954   2.476   2.063  0.00  0.00    +0.420 HD
ATOM     18  O   LIG    1       -6.475   2.223   0.210  0.00  0.00    -0.490 OA
ATOM     19  C   LIG    1       -3.205   1.947   1.253  0.00  0.00    +0.520 C 
ATOM     20  O   LIG    1       -2.575   2.137   2.271  0.00  0.00    -0.480 OA
ENDBRANCH   6  12
BRANCH   1  21
ATOM     21  C   LIG    1        4.900   2.706  -0.028  0.00  0.00    +0.100 C 
BRANCH  21  22
ATOM     22  C   LIG    1        5.417   2.617   1.409  0.00  0.00    +0.030 C 
BRANCH  22  23
ATOM     23  C   LIG    1        6.927   2.374   1.394  0.00  0.00    +0.280 C 
BRANCH  23  25
ATOM     24  C   LIG    1        8.732   2.076   3.004  0.00  0.00    +0.600 C 
ATOM     25  N   LIG    1        7.422   2.288   2.771  0.00  0.00    -0.720 N 
ATOM     26  H   LIG    1        6.806   2.385   3.514  0.00  0.00    +0.410 HD
ATOM     27  O   LIG    1        9.504   1.955   2.071  0.00  0.00    -0.510 OA
BRANCH  24  29
ATOM     28  C   LIG    1       10.522   1.775   4.738  0.00  0.00    -0.070 A 
ATOM     29  C   LIG    1        9.228   1.990   4.385  0.00  0.00    -0.040 A 
ATOM     30  O   LIG    1        8.466   2.108   5.492  0.00  0.00    -0.190 OA
ATOM     31  C   LIG    1        9.215   1.983   6.605  0.00  0.00    +0.070 A 
ATOM     32  C   LIG    1        8.918   2.025   7.962  0.00  0.00    +0.030 A 
ATOM     33  C   LIG    1        9.924   1.860   8.890  0.00  0.00    +0.060 A 
ATOM     34  C   LIG    1       11.235   1.651   8.486  0.00  0.00    -0.010 A 
ATOM     35  C   LIG    1       11.551   1.605   7.157  0.00  0.00    +0.070 A 
ATOM     36  C   LIG    1       10.546   1.771   6.201  0.00  0.00    -0.140 A 
BRANCH  28  38
ATOM     37  C   LIG    1       12.328   2.939   3.501  0.00  0.00    +0.030 C 
ATOM     38  C   LIG    1       11.694   1.582   3.812  0.00  0.00    +0.110 C 
ENDBRANCH  28  38
ENDBRANCH  24  29
ENDBRANCH  23  25
ENDBRANCH  22  23
ENDBRANCH  21  22
ENDBRANCH   1  21
TORSDOF 7
