REMARK  Name = ZINCkj000005mn4p.0
REMARK                            x       y       z     vdW  Elec       q    Type
REMARK                         _______ _______ _______ _____ _____    ______ ____
ROOT
ATOM      1  C   LIG    1        4.586   1.652  -1.157  0.00  0.00    +0.720 C 
ATOM      2  N   LIG    1        5.571   2.448  -1.417  0.00  0.00    -0.650 NA
ATOM      3  C   LIG    1        6.476   1.828  -2.395  0.00  0.00    +0.320 C 
ATOM      4  C   LIG    1        5.828   0.460  -2.688  0.00  0.00    +0.250 C 
ATOM      5  H   LIG    1        5.696   3.325  -1.023  0.00  0.00    +0.450 HD
ATOM      6  N   LIG    1        4.630   0.463  -1.832  0.00  0.00    -0.690 NA
ATOM      7  H   LIG    1        3.981  -0.255  -1.761  0.00  0.00    +0.450 HD
ENDROOT
BRANCH   1  13
ATOM      8  C   LIG    1       -1.185   3.047   0.033  0.00  0.00    +0.530 A 
ATOM      9  N   LIG    1       -1.162   1.729   0.017  0.00  0.00    -0.510 NA
ATOM     10  C   LIG    1       -0.013   1.076   0.008  0.00  0.00    +0.350 A 
ATOM     11  C   LIG    1        1.176   1.794   0.001  0.00  0.00    -0.230 A 
ATOM     12  C   LIG    1        2.479   1.041  -0.004  0.00  0.00    +0.390 C 
ATOM     13  N   LIG    1        3.582   1.971  -0.273  0.00  0.00    -0.590 NA
ATOM     14  C   LIG    1        3.571   3.259   0.439  0.00  0.00    +0.320 C 
ATOM     15  C   LIG    1        2.341   4.043  -0.018  0.00  0.00    +0.120 C 
ATOM     16  C   LIG    1        1.115   3.171   0.006  0.00  0.00    +0.190 A 
ATOM     17  N   LIG    1       -0.077   3.758   0.026  0.00  0.00    -0.510 NA
ENDBRANCH   1  13
BRANCH   4  18
ATOM     18  C   LIG    1        6.768  -0.679  -2.287  0.00  0.00    -0.020 C 
ATOM     19  C   LIG    1        8.058  -0.621  -3.132  0.00  0.00    +0.040 C 
ATOM     20  C   LIG    1        8.411  -2.107  -3.389  0.00  0.00    +0.020 C 
ATOM     21  C   LIG    1        7.020  -2.757  -3.600  0.00  0.00    +0.010 C 
ATOM     22  C   LIG    1        6.108  -2.037  -2.585  0.00  0.00    +0.010 C 
ENDBRANCH   4  18
TORSDOF 2
