REMARK  Name = ZINCpe00000ysrDZ.0
REMARK                            x       y       z     vdW  Elec       q    Type
REMARK                         _______ _______ _______ _____ _____    ______ ____
ROOT
ATOM      1  C   LIG    1        2.772   3.954   0.023  0.00  0.00    +0.190 C 
ATOM      2  C   LIG    1        1.265   3.623   0.004  0.00  0.00    +0.260 C 
ATOM      3  N   LIG    1        1.140   2.158   0.003  0.00  0.00    -0.600 N 
ATOM      4  C   LIG    1        2.491   1.569  -0.014  0.00  0.00    +0.280 C 
ATOM      5  C   LIG    1       -0.018   1.468   0.010  0.00  0.00    +0.600 C 
ATOM      6  O   LIG    1       -1.079   2.062   0.018  0.00  0.00    -0.530 OA
ATOM      7  C   LIG    1        3.407   2.660   0.595  0.00  0.00    +0.180 C 
ENDROOT
BRANCH   5   8
ATOM      8  C   LIG    1        0.002  -0.004   0.002  0.00  0.00    +0.000 A 
ATOM      9  C   LIG    1       -1.187  -0.713   0.010  0.00  0.00    +0.140 A 
ATOM     10  C   LIG    1       -1.125  -2.118   0.002  0.00  0.00    +0.020 A 
ATOM     11  C   LIG    1       -2.086  -3.112   0.006  0.00  0.00    -0.010 A 
ATOM     12  C   LIG    1       -1.410  -4.334  -0.006  0.00  0.00    +0.020 A 
ATOM     13  C   LIG    1       -0.078  -4.079  -0.018  0.00  0.00    +0.160 A 
ATOM     14  N   LIG    1        0.116  -2.733  -0.014  0.00  0.00    -0.390 N 
ATOM     15  C   LIG    1        1.248  -1.963  -0.021  0.00  0.00    +0.520 A 
ATOM     16  N   LIG    1        1.185  -0.667  -0.018  0.00  0.00    -0.470 NA
ENDBRANCH   5   8
BRANCH   7  17
ATOM     17  O   LIG    1        4.755   2.507   0.143  0.00  0.00    -0.550 OA
ATOM     18  H   LIG    1        5.161   1.667   0.395  0.00  0.00    +0.390 HD
ENDBRANCH   7  17
BRANCH   1  19
ATOM     19  O   LIG    1        3.037   5.068   0.878  0.00  0.00    -0.280 OA
BRANCH  19  22
ATOM     20  N   LIG    1        3.384   8.446  -0.020  0.00  0.00    -0.360 N 
ATOM     21  C   LIG    1        3.373   7.467   0.922  0.00  0.00    +0.210 A 
ATOM     22  C   LIG    1        3.128   6.293   0.289  0.00  0.00    -0.030 A 
ATOM     23  C   LIG    1        2.993   6.561  -1.080  0.00  0.00    +0.180 A 
ATOM     24  N   LIG    1        3.139   7.849  -1.264  0.00  0.00    -0.270 NA
BRANCH  20  26
ATOM     25  C   LIG    1        4.768  10.360  -0.656  0.00  0.00    +0.040 C 
ATOM     26  C   LIG    1        3.613   9.873   0.221  0.00  0.00    +0.330 C 
ENDBRANCH  20  26
ENDBRANCH  19  22
ENDBRANCH   1  19
TORSDOF 5
