REMARK  Name = ZINCqH0000032m2F.0
REMARK                            x       y       z     vdW  Elec       q    Type
REMARK                         _______ _______ _______ _____ _____    ______ ____
ROOT
ATOM      1  N   LIG    1       -0.486   4.170   1.018  0.00  0.00    -0.700 N 
ATOM      2  H   LIG    1       -0.011   3.950   0.201  0.00  0.00    +0.420 HD
ATOM      3  C   LIG    1       -0.732   5.459   1.327  0.00  0.00    +0.710 C 
ATOM      4  N   LIG    1       -0.399   6.435   0.460  0.00  0.00    -0.730 N 
ATOM      5  H   LIG    1        0.019   6.211  -0.386  0.00  0.00    +0.400 HD
ATOM      6  O   LIG    1       -1.256   5.740   2.388  0.00  0.00    -0.560 OA
ENDROOT
BRANCH   1  12
ATOM      7  C   LIG    1       -1.346   1.938   1.353  0.00  0.00    -0.690 A 
ATOM      8  C   LIG    1       -1.763   0.932   2.203  0.00  0.00    +0.150 A 
ATOM      9  C   LIG    1       -1.757   1.133   3.571  0.00  0.00    -0.010 A 
ATOM     10  C   LIG    1       -1.334   2.341   4.093  0.00  0.00    +0.090 A 
ATOM     11  C   LIG    1       -0.916   3.352   3.249  0.00  0.00    +0.010 A 
ATOM     12  C   LIG    1       -0.915   3.151   1.875  0.00  0.00    +0.260 A 
BRANCH   7  13
ATOM     13  S   LIG    1       -1.354   1.681  -0.390  0.00  0.00    +2.490 S 
ATOM     14  O   LIG    1       -0.049   2.058  -0.805  0.00  0.00    -0.940 OA
ATOM     15  O   LIG    1       -1.816   0.346  -0.545  0.00  0.00    -0.930 OA
BRANCH  13  17
ATOM     16  C   LIG    1       -2.777   2.644  -2.518  0.00  0.00    +0.090 C 
ATOM     17  C   LIG    1       -2.586   2.857  -1.015  0.00  0.00    -0.440 C 
ATOM     18  C   LIG    1       -3.917   2.633  -0.294  0.00  0.00    +0.090 C 
ENDBRANCH  13  17
ENDBRANCH   7  13
ENDBRANCH   1  12
BRANCH   4  19
ATOM     19  C   LIG    1       -0.666   7.836   0.796  0.00  0.00    +0.340 C 
BRANCH  19  20
ATOM     20  C   LIG    1       -0.310   8.724  -0.398  0.00  0.00    -0.110 C 
ATOM     21  C   LIG    1       -1.407   9.636  -0.951  0.00  0.00    +0.050 C 
ATOM     22  C   LIG    1       -0.970   8.400  -1.740  0.00  0.00    +0.030 C 
BRANCH  20  23
ATOM     23  C   LIG    1        1.105   9.241  -0.425  0.00  0.00    -0.050 A 
ATOM     24  C   LIG    1        1.907   9.002  -1.525  0.00  0.00    +0.000 A 
ATOM     25  C   LIG    1        3.204   9.481  -1.552  0.00  0.00    +0.000 A 
ATOM     26  C   LIG    1        3.702  10.188  -0.474  0.00  0.00    +0.000 A 
ATOM     27  C   LIG    1        2.901  10.421   0.629  0.00  0.00    +0.000 A 
ATOM     28  C   LIG    1        1.603   9.948   0.653  0.00  0.00    +0.010 A 
ENDBRANCH  20  23
ENDBRANCH  19  20
ENDBRANCH   4  19
TORSDOF 6
