REMARK  Name = ZINCrH000004mtd5.0
REMARK                            x       y       z     vdW  Elec       q    Type
REMARK                         _______ _______ _______ _____ _____    ______ ____
ROOT
ATOM      1  C   LIG    1        5.785  -0.668  -1.689  0.00  0.00    +0.200 A 
ATOM      2  C   LIG    1        4.665   0.033  -1.253  0.00  0.00    -0.110 A 
ATOM      3  C   LIG    1        3.563  -0.645  -0.783  0.00  0.00    +0.130 A 
ATOM      4  C   LIG    1        3.572  -2.043  -0.734  0.00  0.00    -0.220 A 
ATOM      5  C   LIG    1        4.702  -2.748  -1.175  0.00  0.00    +0.240 A 
ATOM      6  C   LIG    1        5.802  -2.055  -1.650  0.00  0.00    -0.110 A 
ENDROOT
BRANCH   4   7
ATOM      7  C   LIG    1        2.397  -2.772  -0.228  0.00  0.00    +0.570 C 
ATOM      8  N   LIG    1        1.568  -2.183   0.657  0.00  0.00    -0.550 N 
ATOM      9  C   LIG    1        1.867  -0.851   1.213  0.00  0.00    +0.270 C 
ATOM     10  C   LIG    1        1.530  -0.888   2.710  0.00  0.00    +0.260 C 
ATOM     11  O   LIG    1        0.154  -1.242   2.866  0.00  0.00    -0.300 OA
ATOM     12  C   LIG    1       -0.299  -2.332   2.194  0.00  0.00    +0.290 A 
ATOM     13  N   LIG    1       -1.408  -2.933   2.598  0.00  0.00    -0.470 NA
ATOM     14  C   LIG    1       -1.891  -3.992   1.976  0.00  0.00    +0.280 A 
ATOM     15  C   LIG    1       -1.259  -4.521   0.869  0.00  0.00    -0.150 A 
ATOM     16  C   LIG    1       -0.092  -3.926   0.406  0.00  0.00    +0.110 A 
ATOM     17  C   LIG    1       -1.827  -5.730   0.171  0.00  0.00    +0.110 C 
ATOM     18  C   LIG    1        0.391  -2.816   1.083  0.00  0.00    +0.050 A 
ATOM     19  O   LIG    1        2.174  -3.905  -0.608  0.00  0.00    -0.490 OA
ENDBRANCH   4   7
BRANCH   1  21
ATOM     20  C   LIG    1        6.783   1.435  -2.168  0.00  0.00    +0.250 C 
ATOM     21  O   LIG    1        6.866   0.008  -2.155  0.00  0.00    -0.310 OA
ENDBRANCH   1  21
BRANCH   5  22
ATOM     22  O   LIG    1        4.717  -4.104  -1.137  0.00  0.00    -0.270 OA
BRANCH  22  23
ATOM     23  C   LIG    1        5.876  -4.755  -1.660  0.00  0.00    +0.150 C 
ATOM     24  C   LIG    1        5.736  -4.938  -3.186  0.00  0.00    +0.000 C 
ATOM     25  C   LIG    1        6.382  -6.317  -3.464  0.00  0.00    +0.020 C 
ATOM     26  C   LIG    1        5.938  -7.156  -2.240  0.00  0.00    +0.020 C 
ATOM     27  C   LIG    1        6.004  -6.166  -1.059  0.00  0.00    +0.040 C 
ENDBRANCH  22  23
ENDBRANCH   5  22
TORSDOF 4
