REMARK  Name = ZINCkj000005jkP9.0
REMARK                            x       y       z     vdW  Elec       q    Type
REMARK                         _______ _______ _______ _____ _____    ______ ____
ROOT
ATOM      1  C   LIG    1       -1.266  -0.764   0.122  0.00  0.00    -0.040 A 
ATOM      2  C   LIG    1       -2.028  -1.028  -0.980  0.00  0.00    +0.010 A 
ATOM      3  C   LIG    1       -3.270  -1.784  -0.830  0.00  0.00    +0.530 A 
ATOM      4  N   LIG    1       -3.679  -2.212   0.377  0.00  0.00    -0.630 N 
ATOM      5  H   LIG    1       -4.509  -2.708   0.449  0.00  0.00    +0.420 HD
ATOM      6  C   LIG    1       -2.941  -1.960   1.514  0.00  0.00    +0.190 A 
ATOM      7  C   LIG    1       -3.382  -2.413   2.755  0.00  0.00    -0.020 A 
ATOM      8  C   LIG    1       -2.635  -2.155   3.884  0.00  0.00    +0.090 A 
ATOM      9  C   LIG    1       -1.445  -1.446   3.797  0.00  0.00    +0.000 A 
ATOM     10  C   LIG    1       -0.993  -0.993   2.590  0.00  0.00    +0.070 A 
ATOM     11  O   LIG    1       -3.947  -2.025  -1.814  0.00  0.00    -0.510 OA
ATOM     12  C   LIG    1       -1.734  -1.243   1.431  0.00  0.00    -0.120 A 
ENDROOT
BRANCH   1  19
ATOM     13  C   LIG    1        2.336   4.143   0.869  0.00  0.00    +0.110 C 
ATOM     14  C   LIG    1        1.108   3.234   0.952  0.00  0.00    +0.150 C 
ATOM     15  C   LIG    1        1.223   2.122  -0.095  0.00  0.00    +0.330 C 
ATOM     16  N   LIG    1       -0.023   1.341  -0.085  0.00  0.00    -0.630 N 
ATOM     17  C   LIG    1       -1.298   2.068  -0.179  0.00  0.00    +0.320 C 
ATOM     18  C   LIG    1       -1.295   3.184   0.878  0.00  0.00    +0.270 C 
ATOM     19  C   LIG    1        0.002  -0.004   0.002  0.00  0.00    +0.580 C 
ATOM     20  O   LIG    1        1.064  -0.594  -0.018  0.00  0.00    -0.480 OA
ATOM     21  N   LIG    1       -0.104   4.023   0.696  0.00  0.00    -0.510 N 
ATOM     22  H   LIG    1       -0.083   4.372  -0.251  0.00  0.00    +0.430 HD
ATOM     23  H   LIG    1       -0.140   4.800   1.338  0.00  0.00    +0.430 HD
ENDBRANCH   1  19
TORSDOF 1
