REMARK  Name = ZINCvU0000000H6A.0
REMARK                            x       y       z     vdW  Elec       q    Type
REMARK                         _______ _______ _______ _____ _____    ______ ____
ROOT
ATOM      1  C   LIG    1        8.694  -1.525   0.011  0.00  0.00    +0.140 A 
ATOM      2  C   LIG    1        8.605  -0.149  -0.160  0.00  0.00    +0.050 A 
ATOM      3  C   LIG    1        7.369   0.465  -0.184  0.00  0.00    +0.040 A 
ATOM      4  C   LIG    1        6.215  -0.291  -0.038  0.00  0.00    +0.090 A 
ATOM      5  C   LIG    1        6.303  -1.665   0.139  0.00  0.00    +0.040 A 
ATOM      6  C   LIG    1        7.538  -2.281   0.158  0.00  0.00    +0.040 A 
ENDROOT
BRANCH   1   8
ATOM      7  C   LIG    1       10.268  -3.184  -0.947  0.00  0.00    +0.320 C 
ATOM      8  N   LIG    1        9.945  -2.148   0.037  0.00  0.00    -0.950 N 
BRANCH   8   9
ATOM      9  S   LIG    1       11.063  -1.714   1.179  0.00  0.00    +2.690 S 
ATOM     10  O   LIG    1       10.645  -0.457   1.692  0.00  0.00    -0.940 OA
ATOM     11  O   LIG    1       12.340  -1.930   0.594  0.00  0.00    -0.940 OA
BRANCH   9  12
ATOM     12  C   LIG    1       10.924  -2.864   2.507  0.00  0.00    -0.680 A 
ATOM     13  C   LIG    1       10.062  -2.607   3.557  0.00  0.00    +0.150 A 
ATOM     14  C   LIG    1        9.949  -3.511   4.597  0.00  0.00    +0.020 A 
ATOM     15  C   LIG    1       10.707  -4.668   4.592  0.00  0.00    +0.020 A 
ATOM     16  C   LIG    1       11.574  -4.923   3.544  0.00  0.00    +0.020 A 
ATOM     17 CL   LIG    1       10.572  -5.800   5.901  0.00  0.00    -0.050 Cl
ATOM     18  C   LIG    1       11.681  -4.021   2.502  0.00  0.00    +0.140 A 
ENDBRANCH   9  12
ENDBRANCH   8   9
ENDBRANCH   1   8
BRANCH   4  19
ATOM     19  O   LIG    1        4.998   0.314  -0.062  0.00  0.00    -0.290 OA
BRANCH  19  20
ATOM     20  C   LIG    1        4.531   0.702  -1.266  0.00  0.00    +0.510 C 
ATOM     21  O   LIG    1        5.148   0.423  -2.275  0.00  0.00    -0.480 OA
BRANCH  20  22
ATOM     22  C   LIG    1        3.275   1.466  -1.357  0.00  0.00    -0.130 A 
ATOM     23  C   LIG    1        2.499   1.693  -0.228  0.00  0.00    +0.110 A 
ATOM     24  C   LIG    1        1.316   2.414  -0.317  0.00  0.00    +0.000 A 
ATOM     25  C   LIG    1        0.871   2.920  -1.499  0.00  0.00    +0.080 A 
ATOM     26  C   LIG    1        1.604   2.728  -2.683  0.00  0.00    -0.070 A 
ATOM     27  C   LIG    1        1.157   3.244  -3.911  0.00  0.00    +0.030 A 
ATOM     28  C   LIG    1        1.895   3.038  -5.036  0.00  0.00    +0.010 A 
ATOM     29  C   LIG    1        3.088   2.321  -4.990  0.00  0.00    +0.030 A 
ATOM     30  C   LIG    1        3.550   1.805  -3.816  0.00  0.00    +0.040 A 
ATOM     31  C   LIG    1        2.818   1.999  -2.639  0.00  0.00    -0.010 A 
ENDBRANCH  20  22
ENDBRANCH  19  20
ENDBRANCH   4  19
TORSDOF 6
