REMARK  Name = ZINCrH00000No4y6.0
REMARK                            x       y       z     vdW  Elec       q    Type
REMARK                         _______ _______ _______ _____ _____    ______ ____
ROOT
ATOM      1  N   LIG    1        4.024   0.561  -1.538  0.00  0.00    -0.600 N 
ATOM      2  C   LIG    1        4.371  -0.634  -2.057  0.00  0.00    +0.590 C 
ATOM      3  O   LIG    1        4.132  -1.657  -1.442  0.00  0.00    -0.530 OA
ENDROOT
BRANCH   2   4
ATOM      4  C   LIG    1        5.035  -0.702  -3.365  0.00  0.00    -0.220 A 
ATOM      5  C   LIG    1        5.508   0.348  -4.096  0.00  0.00    +0.280 A 
ATOM      6  N   LIG    1        6.057  -0.106  -5.249  0.00  0.00    -0.570 N 
ATOM      7  H   LIG    1        6.459   0.456  -5.930  0.00  0.00    +0.420 HD
ATOM      8  C   LIG    1        5.965  -1.481  -5.317  0.00  0.00    +0.110 A 
ATOM      9  C   LIG    1        6.365  -2.415  -6.267  0.00  0.00    -0.030 A 
ATOM     10  C   LIG    1        6.144  -3.759  -6.045  0.00  0.00    +0.120 A 
ATOM     11  C   LIG    1        5.512  -4.190  -4.885  0.00  0.00    -0.030 A 
ATOM     12  C   LIG    1        5.105  -3.277  -3.937  0.00  0.00    +0.120 A 
ATOM     13  F   LIG    1        6.538  -4.664  -6.968  0.00  0.00    -0.130 F 
ATOM     14  C   LIG    1        5.329  -1.919  -4.144  0.00  0.00    -0.070 A 
ENDBRANCH   2   4
BRANCH   1  15
ATOM     15  C   LIG    1        3.482   0.640  -0.180  0.00  0.00    +0.400 C 
BRANCH  15  22
ATOM     16  C   LIG    1        1.295   3.018  -0.480  0.00  0.00    +0.160 C 
ATOM     17  C   LIG    1        1.022   1.541  -0.360  0.00  0.00    +0.030 A 
ATOM     18  N   LIG    1       -0.143   0.961  -0.357  0.00  0.00    -0.370 NA
ATOM     19  O   LIG    1       -0.043  -0.239  -0.247  0.00  0.00    +0.090 OA
ATOM     20  C   LIG    1        1.239  -0.621  -0.160  0.00  0.00    +0.010 A 
ATOM     21  C   LIG    1        1.753  -2.030  -0.015  0.00  0.00    +0.190 C 
ATOM     22  C   LIG    1        1.982   0.510  -0.230  0.00  0.00    -0.230 A 
ENDBRANCH  15  22
ENDBRANCH   1  15
BRANCH   1  23
ATOM     23  C   LIG    1        4.191   1.780  -2.333  0.00  0.00    +0.280 C 
BRANCH  23  24
ATOM     24  C   LIG    1        5.584   2.363  -2.087  0.00  0.00    +0.130 C 
ATOM     25  C   LIG    1        5.755   3.693  -2.863  0.00  0.00    +0.020 C 
ATOM     26  C   LIG    1        6.854   4.390  -2.015  0.00  0.00    +0.020 C 
ATOM     27  C   LIG    1        6.518   3.911  -0.586  0.00  0.00    +0.190 C 
ATOM     28  O   LIG    1        5.740   2.714  -0.703  0.00  0.00    -0.370 OA
ENDBRANCH  23  24
ENDBRANCH   1  23
TORSDOF 5
