REMARK  Name = ZINCpk00000y6xVL.0
REMARK                            x       y       z     vdW  Elec       q    Type
REMARK                         _______ _______ _______ _____ _____    ______ ____
ROOT
ATOM      1  C   LIG    1       -0.710   1.592   1.132  0.00  0.00    +0.240 C 
ATOM      2  C   LIG    1       -0.169   0.842  -0.087  0.00  0.00    +0.030 C 
ENDROOT
BRANCH   1   4
ATOM      3  C   LIG    1       -1.382   3.794   0.336  0.00  0.00    +0.530 C 
ATOM      4  N   LIG    1       -0.471   3.028   0.968  0.00  0.00    -0.710 N 
ATOM      5  H   LIG    1        0.342   3.427   1.314  0.00  0.00    +0.400 HD
ATOM      6  O   LIG    1       -2.399   3.295  -0.097  0.00  0.00    -0.540 OA
BRANCH   3   7
ATOM      7  C   LIG    1       -1.137   5.271   0.167  0.00  0.00    -0.080 C 
ATOM      8  C   LIG    1        0.148   5.487  -0.635  0.00  0.00    +0.050 C 
ATOM      9  C   LIG    1       -0.994   5.925   1.543  0.00  0.00    +0.050 C 
BRANCH   7  10
ATOM     10  C   LIG    1       -2.314   5.902  -0.578  0.00  0.00    +0.070 C 
BRANCH  10  11
ATOM     11  C   LIG    1       -2.065   7.402  -0.749  0.00  0.00    +0.160 C 
BRANCH  11  13
ATOM     12  C   LIG    1       -3.032   9.398  -1.659  0.00  0.00    +0.200 C 
ATOM     13  O   LIG    1       -3.165   7.992  -1.445  0.00  0.00    -0.390 OA
ENDBRANCH  11  13
ENDBRANCH  10  11
ENDBRANCH   7  10
ENDBRANCH   3   7
ENDBRANCH   1   4
BRANCH   1  14
ATOM     14  C   LIG    1        0.002   1.097   2.392  0.00  0.00    +0.200 C 
BRANCH  14  15
ATOM     15  N   LIG    1       -0.445   1.885   3.549  0.00  0.00    -0.530 NA
ATOM     16  C   LIG    1        0.518   1.790   4.654  0.00  0.00    +0.190 C 
BRANCH  15  17
ATOM     17  C   LIG    1       -1.786   1.470   3.982  0.00  0.00    +0.330 C 
BRANCH  17  18
ATOM     18  C   LIG    1       -2.311   2.450   4.999  0.00  0.00    +0.170 A 
ATOM     19  N   LIG    1       -2.160   2.381   6.299  0.00  0.00    -0.300 NA
ATOM     20  N   LIG    1       -2.748   3.402   6.821  0.00  0.00    -0.130 N 
ATOM     21  N   LIG    1       -3.274   4.111   5.883  0.00  0.00    -0.060 NA
ATOM     22  N   LIG    1       -3.022   3.549   4.749  0.00  0.00    -0.270 NA
BRANCH  20  23
ATOM     23  C   LIG    1       -2.812   3.706   8.253  0.00  0.00    +0.180 C 
ATOM     24  C   LIG    1       -1.395   3.880   8.802  0.00  0.00    +0.080 C 
ATOM     25  C   LIG    1       -3.506   2.556   8.987  0.00  0.00    +0.080 C 
ATOM     26  C   LIG    1       -3.603   4.998   8.465  0.00  0.00    +0.100 C 
ENDBRANCH  20  23
ENDBRANCH  17  18
ENDBRANCH  15  17
ENDBRANCH  14  15
ENDBRANCH   1  14
TORSDOF 10
