REMARK  Name = ZINCpk00000kZN32.1
REMARK                            x       y       z     vdW  Elec       q    Type
REMARK                         _______ _______ _______ _____ _____    ______ ____
ROOT
ATOM      1  C   LIG    1       -0.957  -2.254  -0.001  0.00  0.00    +0.240 C 
ENDROOT
BRANCH   1   2
ATOM      2  C   LIG    1       -2.264  -3.037   0.133  0.00  0.00    -0.020 C 
ATOM      3  C   LIG    1       -2.773  -3.143   1.581  0.00  0.00    +0.020 C 
ATOM      4  C   LIG    1       -3.161  -4.596   1.252  0.00  0.00    -0.010 C 
ATOM      5  C   LIG    1       -2.069  -4.561   0.170  0.00  0.00    +0.020 C 
ENDBRANCH   1   2
BRANCH   1   6
ATOM      6  N   LIG    1       -0.073  -2.584   1.120  0.00  0.00    -0.730 N 
ATOM      7  H   LIG    1       -0.060  -2.020   1.909  0.00  0.00    +0.400 HD
ATOM      8  C   LIG    1        0.721  -3.671   1.056  0.00  0.00    +0.510 C 
ATOM      9  O   LIG    1        0.705  -4.376   0.069  0.00  0.00    -0.520 OA
BRANCH   8  10
ATOM     10  C   LIG    1        1.630  -4.010   2.209  0.00  0.00    +0.060 C 
BRANCH  10  11
ATOM     11  C   LIG    1        2.417  -5.280   1.882  0.00  0.00    +0.040 C 
ATOM     12  C   LIG    1        1.487  -6.468   1.798  0.00  0.00    -0.030 C 
ATOM     13  C   LIG    1        1.981  -7.498   2.429  0.00  0.00    -0.060 C 
ATOM     14  C   LIG    1        3.323  -7.168   3.040  0.00  0.00    +0.040 C 
ATOM     15  C   LIG    1        3.389  -5.623   3.034  0.00  0.00    +0.020 C 
ENDBRANCH  10  11
ENDBRANCH   8  10
ENDBRANCH   1   6
BRANCH   1  16
ATOM     16  C   LIG    1       -1.256  -0.754   0.010  0.00  0.00    +0.270 C 
BRANCH  16  19
ATOM     17  O   LIG    1       -1.075   1.936   0.018  0.00  0.00    -0.540 OA
ATOM     18  C   LIG    1       -0.016   1.344   0.009  0.00  0.00    +0.520 C 
ATOM     19  N   LIG    1        0.002  -0.004   0.002  0.00  0.00    -0.730 N 
ATOM     20  H   LIG    1        0.849  -0.478  -0.009  0.00  0.00    +0.400 HD
BRANCH  18  21
ATOM     21  C   LIG    1        1.278   2.115   0.001  0.00  0.00    +0.060 C 
BRANCH  21  22
ATOM     22  C   LIG    1        0.979   3.615   0.012  0.00  0.00    +0.160 C 
BRANCH  22  23
ATOM     23  C   LIG    1        2.273   4.386   0.004  0.00  0.00    -0.020 A 
ATOM     24  C   LIG    1        2.642   5.340  -0.883  0.00  0.00    +0.160 A 
ATOM     25  N   LIG    1        3.874   5.752  -0.503  0.00  0.00    -0.390 N 
ATOM     26  H   LIG    1        4.407   6.432  -0.944  0.00  0.00    +0.450 HD
ATOM     27  N   LIG    1        4.217   5.086   0.544  0.00  0.00    -0.080 NA
ATOM     28  N   LIG    1        3.281   4.267   0.875  0.00  0.00    -0.260 NA
ENDBRANCH  22  23
ENDBRANCH  21  22
ENDBRANCH  18  21
ENDBRANCH  16  19
ENDBRANCH   1  16
TORSDOF 9
