REMARK  Name = ZINCpk00000kZN32.0
REMARK                            x       y       z     vdW  Elec       q    Type
REMARK                         _______ _______ _______ _____ _____    ______ ____
ROOT
ATOM      1  C   LIG    1        1.021  -2.227  -0.020  0.00  0.00    +0.240 C 
ENDROOT
BRANCH   1   2
ATOM      2  C   LIG    1        2.350  -2.972  -0.162  0.00  0.00    -0.020 C 
ATOM      3  C   LIG    1        2.861  -3.049  -1.610  0.00  0.00    +0.020 C 
ATOM      4  C   LIG    1        3.289  -4.495  -1.298  0.00  0.00    -0.010 C 
ATOM      5  C   LIG    1        2.196  -4.502  -0.216  0.00  0.00    +0.020 C 
ENDBRANCH   1   2
BRANCH   1   6
ATOM      6  N   LIG    1        0.147  -2.568  -1.145  0.00  0.00    -0.730 N 
ATOM      7  H   LIG    1        0.118  -1.996  -1.927  0.00  0.00    +0.400 HD
ATOM      8  C   LIG    1       -0.617  -3.677  -1.092  0.00  0.00    +0.510 C 
ATOM      9  O   LIG    1       -0.582  -4.392  -0.113  0.00  0.00    -0.520 OA
BRANCH   8  10
ATOM     10  C   LIG    1       -1.517  -4.028  -2.249  0.00  0.00    +0.070 C 
BRANCH  10  11
ATOM     11  C   LIG    1       -2.269  -5.323  -1.936  0.00  0.00    +0.040 C 
ATOM     12  C   LIG    1       -1.307  -6.486  -1.865  0.00  0.00    -0.030 C 
ATOM     13  C   LIG    1       -1.774  -7.522  -2.508  0.00  0.00    -0.060 C 
ATOM     14  C   LIG    1       -3.124  -7.222  -3.115  0.00  0.00    +0.040 C 
ATOM     15  C   LIG    1       -3.232  -5.679  -3.092  0.00  0.00    +0.020 C 
ENDBRANCH  10  11
ENDBRANCH   8  10
ENDBRANCH   1   6
BRANCH   1  16
ATOM     16  C   LIG    1        1.281  -0.719  -0.014  0.00  0.00    +0.270 C 
BRANCH  16  19
ATOM     17  O   LIG    1        1.026   1.964   0.003  0.00  0.00    -0.540 OA
ATOM     18  C   LIG    1       -0.016   1.344   0.009  0.00  0.00    +0.510 C 
ATOM     19  N   LIG    1        0.002  -0.004   0.002  0.00  0.00    -0.730 N 
ATOM     20  H   LIG    1       -0.831  -0.500   0.007  0.00  0.00    +0.400 HD
BRANCH  18  21
ATOM     21  C   LIG    1       -1.331   2.079   0.020  0.00  0.00    +0.060 C 
BRANCH  21  22
ATOM     22  C   LIG    1       -1.072   3.587   0.027  0.00  0.00    +0.180 C 
BRANCH  22  23
ATOM     23  C   LIG    1       -2.387   4.323   0.037  0.00  0.00    +0.010 A 
ATOM     24  N   LIG    1       -3.374   4.193  -0.821  0.00  0.00    -0.280 NA
ATOM     25  N   LIG    1       -4.326   4.986  -0.478  0.00  0.00    -0.250 N 
ATOM     26  H   LIG    1       -5.167   5.075  -0.953  0.00  0.00    +0.470 HD
ATOM     27  N   LIG    1       -4.009   5.650   0.576  0.00  0.00    -0.280 NA
ATOM     28  C   LIG    1       -2.805   5.287   0.957  0.00  0.00    +0.180 A 
ENDBRANCH  22  23
ENDBRANCH  21  22
ENDBRANCH  18  21
ENDBRANCH  16  19
ENDBRANCH   1  16
TORSDOF 9
