REMARK  Name = ZINCrH000004rSeF.0
REMARK                            x       y       z     vdW  Elec       q    Type
REMARK                         _______ _______ _______ _____ _____    ______ ____
ROOT
ATOM      1  C   LIG    1        6.114   0.582  -0.066  0.00  0.00    +0.330 C 
ENDROOT
BRANCH   1   2
ATOM      2  N   LIG    1        4.673   0.382   0.111  0.00  0.00    -0.600 N 
ATOM      3  C   LIG    1        3.654   1.437   0.074  0.00  0.00    +0.350 C 
ATOM      4  C   LIG    1        2.330   0.753   0.305  0.00  0.00    -0.080 A 
ATOM      5  C   LIG    1        1.034   1.208   0.378  0.00  0.00    +0.030 A 
ATOM      6  C   LIG    1       -0.001   0.315   0.607  0.00  0.00    +0.040 A 
ATOM      7  C   LIG    1        0.266  -1.033   0.762  0.00  0.00    +0.000 A 
ATOM      8  C   LIG    1        1.562  -1.500   0.690  0.00  0.00    +0.080 A 
ATOM      9  C   LIG    1        2.610  -0.607   0.460  0.00  0.00    -0.150 A 
ATOM     10  C   LIG    1        4.068  -0.797   0.333  0.00  0.00    +0.570 C 
ATOM     11  O   LIG    1        4.639  -1.866   0.418  0.00  0.00    -0.500 OA
ENDBRANCH   1   2
BRANCH   1  12
ATOM     12  C   LIG    1        6.588  -0.208  -1.259  0.00  0.00    -0.120 A 
ATOM     13  C   LIG    1        6.710  -1.582  -1.174  0.00  0.00    +0.070 A 
ATOM     14  C   LIG    1        7.140  -2.307  -2.270  0.00  0.00    +0.000 A 
ATOM     15  C   LIG    1        7.458  -1.656  -3.448  0.00  0.00    +0.020 A 
ATOM     16  C   LIG    1        7.341  -0.281  -3.531  0.00  0.00    +0.000 A 
ATOM     17  C   LIG    1        6.906   0.443  -2.436  0.00  0.00    +0.020 A 
ENDBRANCH   1  12
BRANCH   1  20
ATOM     18  N   LIG    1        8.184   0.199   1.233  0.00  0.00    -0.660 N 
ATOM     19  H   LIG    1        8.676   0.640   0.523  0.00  0.00    +0.420 HD
ATOM     20  C   LIG    1        6.841   0.112   1.168  0.00  0.00    +0.500 C 
ATOM     21  O   LIG    1        6.217  -0.344   2.103  0.00  0.00    -0.440 OA
BRANCH  18  27
ATOM     22  C   LIG    1        7.969  -1.897   5.534  0.00  0.00    +0.130 C 
ATOM     23  C   LIG    1        8.791  -1.355   4.393  0.00  0.00    +0.160 A 
ATOM     24  C   LIG    1       10.169  -1.412   4.459  0.00  0.00    -0.060 A 
ATOM     25  C   LIG    1       10.921  -0.911   3.405  0.00  0.00    +0.100 A 
ATOM     26  C   LIG    1       10.256  -0.369   2.319  0.00  0.00    -0.070 A 
ATOM     27  C   LIG    1        8.866  -0.344   2.320  0.00  0.00    +0.370 A 
ATOM     28  N   LIG    1        8.185  -0.827   3.347  0.00  0.00    -0.480 NA
ENDBRANCH  18  27
ENDBRANCH   1  20
TORSDOF 4
