REMARK  Name = ZINCpk000000n1I8.0
REMARK                            x       y       z     vdW  Elec       q    Type
REMARK                         _______ _______ _______ _____ _____    ______ ____
ROOT
ATOM      1  C   LIG    1       -4.781   0.876   0.030  0.00  0.00    +0.520 C 
ATOM      2  N   LIG    1       -6.035   1.371   0.039  0.00  0.00    -0.620 N 
ATOM      3  C   LIG    1       -6.274   2.822   0.054  0.00  0.00    +0.290 C 
ATOM      4  C   LIG    1       -7.258   3.160  -1.078  0.00  0.00    +0.200 C 
ATOM      5  N   LIG    1       -8.462   2.331  -0.937  0.00  0.00    -0.470 N 
ATOM      6  C   LIG    1       -8.147   0.904  -1.085  0.00  0.00    +0.210 C 
ATOM      7  C   LIG    1       -7.200   0.473   0.040  0.00  0.00    +0.310 C 
ATOM      8  O   LIG    1       -4.603  -0.323   0.023  0.00  0.00    -0.510 OA
ENDROOT
BRANCH   5   9
ATOM      9  C   LIG    1       -9.444   2.721  -1.840  0.00  0.00    +0.260 A 
ATOM     10  C   LIG    1       -9.887   4.041  -1.863  0.00  0.00    +0.210 A 
ATOM     11  N   LIG    1      -10.819   4.407  -2.723  0.00  0.00    -0.420 NA
ATOM     12  C   LIG    1      -11.332   3.522  -3.562  0.00  0.00    +0.190 A 
ATOM     13  C   LIG    1      -10.894   2.212  -3.542  0.00  0.00    +0.250 A 
ATOM     14  N   LIG    1       -9.958   1.838  -2.687  0.00  0.00    -0.480 NA
ENDBRANCH   5   9
BRANCH   1  15
ATOM     15  C   LIG    1       -3.602   1.814   0.029  0.00  0.00    +0.240 C 
BRANCH  15  16
ATOM     16  O   LIG    1       -2.390   1.056   0.019  0.00  0.00    -0.280 OA
BRANCH  16  20
ATOM     17  C   LIG    1        1.146   3.176   0.008  0.00  0.00    -0.210 A 
ATOM     18  C   LIG    1        1.166   1.776   0.001  0.00  0.00    +0.120 A 
ATOM     19  C   LIG    1       -0.013   1.076   0.008  0.00  0.00    -0.020 A 
ATOM     20  C   LIG    1       -1.227   1.754   0.017  0.00  0.00    +0.160 A 
ATOM     21  C   LIG    1       -1.253   3.144   0.030  0.00  0.00    -0.100 A 
ATOM     22  C   LIG    1       -0.080   3.854   0.023  0.00  0.00    +0.110 A 
BRANCH  17  24
ATOM     23  C   LIG    1        2.380   5.439   0.008  0.00  0.00    +0.070 C 
ATOM     24  C   LIG    1        2.405   3.932   0.000  0.00  0.00    +0.400 C 
ATOM     25  O   LIG    1        3.466   3.343  -0.012  0.00  0.00    -0.460 OA
ENDBRANCH  17  24
ENDBRANCH  16  20
ENDBRANCH  15  16
ENDBRANCH   1  15
TORSDOF 5
