REMARK  Name = ZINCrH000004pAbi.0
REMARK                            x       y       z     vdW  Elec       q    Type
REMARK                         _______ _______ _______ _____ _____    ______ ____
ROOT
ATOM      1  C   LIG    1        0.204   1.247  -1.648  0.00  0.00    +0.250 A 
ATOM      2  C   LIG    1        0.634   0.662  -2.832  0.00  0.00    -0.050 A 
ATOM      3  C   LIG    1        0.133   1.104  -4.041  0.00  0.00    +0.190 A 
ATOM      4  C   LIG    1       -0.796   2.127  -4.073  0.00  0.00    -0.690 A 
ATOM      5  C   LIG    1       -1.227   2.712  -2.896  0.00  0.00    +0.250 A 
ATOM      6  C   LIG    1       -0.734   2.272  -1.684  0.00  0.00    -0.670 A 
ENDROOT
BRANCH   4   7
ATOM      7  S   LIG    1       -1.433   2.687  -5.618  0.00  0.00    +2.500 S 
ATOM      8  O   LIG    1       -0.410   2.374  -6.553  0.00  0.00    -0.930 OA
ATOM      9  O   LIG    1       -1.814   4.034  -5.372  0.00  0.00    -0.930 OA
ATOM     10  C   LIG    1       -2.896   1.654  -5.906  0.00  0.00    -0.250 C 
ENDBRANCH   4   7
BRANCH   6  11
ATOM     11  S   LIG    1       -1.289   3.013  -0.185  0.00  0.00    +2.510 S 
ATOM     12  O   LIG    1       -2.191   4.025  -0.608  0.00  0.00    -0.940 OA
ATOM     13  O   LIG    1       -0.092   3.340   0.508  0.00  0.00    -0.920 OA
ATOM     14  C   LIG    1       -2.178   1.685   0.674  0.00  0.00    -0.250 C 
ENDBRANCH   6  11
BRANCH   1  15
ATOM     15  N   LIG    1        0.708   0.803  -0.424  0.00  0.00    -0.520 N 
ATOM     16  C   LIG    1        2.128   1.151  -0.282  0.00  0.00    +0.240 C 
BRANCH  15  17
ATOM     17  C   LIG    1        0.502  -0.643  -0.263  0.00  0.00    +0.150 C 
ATOM     18  C   LIG    1       -0.788  -1.056  -0.973  0.00  0.00    +0.040 C 
BRANCH  17  20
ATOM     19  C   LIG    1        1.722  -0.661   1.917  0.00  0.00    +0.040 C 
ATOM     20  C   LIG    1        0.396  -0.981   1.225  0.00  0.00    +0.050 C 
BRANCH  20  21
ATOM     21  C   LIG    1        0.085  -2.446   1.387  0.00  0.00    -0.070 A 
ATOM     22  C   LIG    1        0.955  -3.396   0.885  0.00  0.00    +0.030 A 
ATOM     23  C   LIG    1        0.673  -4.741   1.038  0.00  0.00    +0.020 A 
ATOM     24  C   LIG    1       -0.485  -5.136   1.683  0.00  0.00    -0.040 A 
ATOM     25  C   LIG    1       -1.358  -4.184   2.180  0.00  0.00    +0.020 A 
ATOM     26 CL   LIG    1       -0.843  -6.824   1.870  0.00  0.00    -0.070 Cl
ATOM     27  C   LIG    1       -1.073  -2.840   2.032  0.00  0.00    +0.030 A 
ENDBRANCH  20  21
ENDBRANCH  17  20
ENDBRANCH  15  17
ENDBRANCH   1  15
TORSDOF 6
