REMARK  Name = ZINCvU0000000Eln.0
REMARK                            x       y       z     vdW  Elec       q    Type
REMARK                         _______ _______ _______ _____ _____    ______ ____
ROOT
ATOM      1  C   LIG    1        1.136   3.594  -0.013  0.00  0.00    +0.230 C 
ENDROOT
BRANCH   1   5
ATOM      2  C   LIG    1        2.849   5.371   3.477  0.00  0.00    +0.220 A 
ATOM      3  C   LIG    1        1.469   5.331   3.321  0.00  0.00    -0.080 A 
ATOM      4  C   LIG    1        0.919   4.756   2.192  0.00  0.00    +0.060 A 
ATOM      5  C   LIG    1        1.740   4.220   1.217  0.00  0.00    -0.140 A 
ATOM      6  C   LIG    1        3.114   4.253   1.371  0.00  0.00    +0.090 A 
ATOM      7  C   LIG    1        3.671   4.832   2.495  0.00  0.00    -0.080 A 
BRANCH   2   9
ATOM      8  C   LIG    1        2.547   6.619   5.597  0.00  0.00    +0.280 C 
ATOM      9  N   LIG    1        3.408   5.951   4.617  0.00  0.00    -0.640 N 
ATOM     10  C   LIG    1        4.856   5.893   4.834  0.00  0.00    +0.280 C 
ENDBRANCH   2   9
ENDBRANCH   1   5
BRANCH   1  11
ATOM     11  N   LIG    1        1.886   4.025  -1.200  0.00  0.00    -0.520 NA
ATOM     12  C   LIG    1        1.938   5.491  -1.287  0.00  0.00    +0.150 C 
ATOM     13  C   LIG    1        2.777   5.896  -2.502  0.00  0.00    +0.220 C 
ATOM     14  O   LIG    1        2.220   5.303  -3.678  0.00  0.00    -0.390 OA
ATOM     15  C   LIG    1        2.155   3.876  -3.628  0.00  0.00    +0.230 C 
ATOM     16  C   LIG    1        1.310   3.450  -2.425  0.00  0.00    +0.150 C 
ENDBRANCH   1  11
BRANCH   1  17
ATOM     17  C   LIG    1        1.201   2.093   0.105  0.00  0.00    -0.080 A 
ATOM     18  C   LIG    1        0.064   1.376   0.429  0.00  0.00    +0.010 A 
ATOM     19  C   LIG    1        0.120   0.000   0.537  0.00  0.00    -0.090 A 
ATOM     20  C   LIG    1        1.319  -0.663   0.319  0.00  0.00    +0.110 A 
ATOM     21  C   LIG    1        2.458   0.058  -0.006  0.00  0.00    -0.090 A 
ATOM     22  C   LIG    1        2.397   1.434  -0.113  0.00  0.00    +0.060 A 
BRANCH  21  23
ATOM     23  C   LIG    1        3.763  -0.659  -0.243  0.00  0.00    -0.020 C 
ATOM     24  C   LIG    1        3.601  -1.640  -1.406  0.00  0.00    +0.030 C 
ATOM     25  C   LIG    1        4.160  -1.426   1.020  0.00  0.00    +0.030 C 
ATOM     26  C   LIG    1        4.851   0.361  -0.584  0.00  0.00    +0.040 C 
ENDBRANCH  21  23
BRANCH  19  27
ATOM     27  C   LIG    1       -1.120  -0.780   0.891  0.00  0.00    -0.020 C 
ATOM     28  C   LIG    1       -0.884  -1.551   2.191  0.00  0.00    +0.030 C 
ATOM     29  C   LIG    1       -1.441  -1.764  -0.235  0.00  0.00    +0.030 C 
ATOM     30  C   LIG    1       -2.293   0.184   1.076  0.00  0.00    +0.030 C 
ENDBRANCH  19  27
BRANCH  20  31
ATOM     31  O   LIG    1        1.377  -2.016   0.425  0.00  0.00    -0.490 OA
ATOM     32  H   LIG    1        1.196  -2.484  -0.402  0.00  0.00    +0.380 HD
ENDBRANCH  20  31
ENDBRANCH   1  17
TORSDOF 7
