REMARK  Name = ZINCpk00000ebEsk.1
REMARK                            x       y       z     vdW  Elec       q    Type
REMARK                         _______ _______ _______ _____ _____    ______ ____
ROOT
ATOM      1  O   LIG    1       -2.142   8.633   4.810  0.00  0.00    -0.500 OA
ATOM      2  C   LIG    1       -3.152   8.567   4.136  0.00  0.00    +0.600 C 
ATOM      3  N   LIG    1       -3.199   7.742   3.071  0.00  0.00    -0.710 N 
ATOM      4  H   LIG    1       -4.005   7.690   2.534  0.00  0.00    +0.410 HD
ENDROOT
BRANCH   2   5
ATOM      5  C   LIG    1       -4.325   9.390   4.483  0.00  0.00    +0.000 A 
ATOM      6  N   LIG    1       -5.476   9.429   3.848  0.00  0.00    -0.200 NA
ATOM      7  N   LIG    1       -6.301  10.244   4.399  0.00  0.00    -0.410 N 
ATOM      8  H   LIG    1       -7.202  10.411   4.080  0.00  0.00    +0.450 HD
ATOM      9  C   LIG    1       -5.742  10.854   5.492  0.00  0.00    +0.050 A 
ATOM     10  C   LIG    1       -6.182  11.795   6.417  0.00  0.00    +0.050 A 
ATOM     11  C   LIG    1       -5.343  12.207   7.427  0.00  0.00    +0.040 A 
ATOM     12  C   LIG    1       -4.055  11.693   7.536  0.00  0.00    +0.080 A 
ATOM     13  C   LIG    1       -3.599  10.759   6.629  0.00  0.00    +0.070 A 
ATOM     14  F   LIG    1       -3.247  12.110   8.535  0.00  0.00    -0.130 F 
ATOM     15  C   LIG    1       -4.438  10.334   5.603  0.00  0.00    -0.080 A 
ENDBRANCH   2   5
BRANCH   3  16
ATOM     16  C   LIG    1       -2.034   6.924   2.726  0.00  0.00    +0.260 C 
ATOM     17  C   LIG    1       -2.095   6.488   1.242  0.00  0.00    +0.050 C 
ATOM     18  C   LIG    1       -1.208   5.218   1.222  0.00  0.00    +0.000 C 
ATOM     19  C   LIG    1       -1.529   4.512   2.556  0.00  0.00    +0.000 C 
ATOM     20  C   LIG    1       -2.054   5.597   3.512  0.00  0.00    +0.150 C 
BRANCH  20  21
ATOM     21  O   LIG    1       -1.204   5.693   4.657  0.00  0.00    -0.550 OA
ATOM     22  H   LIG    1       -1.158   4.882   5.182  0.00  0.00    +0.380 HD
ENDBRANCH  20  21
BRANCH  18  23
ATOM     23  C   LIG    1       -1.581   4.322   0.039  0.00  0.00    +0.330 C 
BRANCH  23  24
ATOM     24  N   LIG    1       -0.711   3.144   0.025  0.00  0.00    -0.370 N 
ATOM     25  C   LIG    1       -1.117   1.857   0.017  0.00  0.00    +0.220 A 
ATOM     26  C   LIG    1       -0.013   1.076   0.008  0.00  0.00    -0.120 A 
ATOM     27  C   LIG    1        1.107   1.914   0.002  0.00  0.00    +0.220 A 
ATOM     28  N   LIG    1        0.690   3.154   0.012  0.00  0.00    -0.290 NA
ENDBRANCH  23  24
ENDBRANCH  18  23
ENDBRANCH   3  16
TORSDOF 5
