REMARK  Name = ZINCpk00000ebEsk.0
REMARK                            x       y       z     vdW  Elec       q    Type
REMARK                         _______ _______ _______ _____ _____    ______ ____
ROOT
ATOM      1  O   LIG    1        2.859  -2.192  -0.038  0.00  0.00    -0.500 OA
ATOM      2  C   LIG    1        1.678  -1.897  -0.025  0.00  0.00    +0.590 C 
ATOM      3  N   LIG    1        0.742  -2.866  -0.021  0.00  0.00    -0.720 N 
ATOM      4  H   LIG    1       -0.199  -2.631  -0.010  0.00  0.00    +0.390 HD
ENDROOT
BRANCH   2   5
ATOM      5  C   LIG    1        1.275  -0.490  -0.013  0.00  0.00    -0.040 A 
ATOM      6  C   LIG    1        2.122   0.627  -0.015  0.00  0.00    -0.070 A 
ATOM      7  C   LIG    1        3.504   0.851  -0.028  0.00  0.00    +0.040 A 
ATOM      8  C   LIG    1        3.976   2.129  -0.026  0.00  0.00    +0.110 A 
ATOM      9  C   LIG    1        3.112   3.227  -0.012  0.00  0.00    +0.020 A 
ATOM     10  C   LIG    1        1.763   3.075   0.001  0.00  0.00    +0.110 A 
ATOM     11  F   LIG    1        5.311   2.340  -0.038  0.00  0.00    -0.130 F 
ATOM     12  C   LIG    1        1.208   1.779   0.000  0.00  0.00    +0.040 A 
ATOM     13  N   LIG    1       -0.015   1.280   0.009  0.00  0.00    -0.250 NA
ATOM     14  N   LIG    1        0.002  -0.004   0.002  0.00  0.00    -0.320 N 
ATOM     15  H   LIG    1       -0.793  -0.560   0.006  0.00  0.00    +0.450 HD
ENDBRANCH   2   5
BRANCH   3  16
ATOM     16  C   LIG    1        1.145  -4.274  -0.033  0.00  0.00    +0.260 C 
ATOM     17  C   LIG    1        0.008  -5.145  -0.607  0.00  0.00    +0.050 C 
ATOM     18  C   LIG    1        0.060  -6.443   0.237  0.00  0.00    +0.000 C 
ATOM     19  C   LIG    1        0.394  -5.916   1.654  0.00  0.00    +0.000 C 
ATOM     20  C   LIG    1        1.390  -4.764   1.405  0.00  0.00    +0.150 C 
BRANCH  20  21
ATOM     21  O   LIG    1        2.731  -5.240   1.538  0.00  0.00    -0.550 OA
ATOM     22  H   LIG    1        2.948  -5.564   2.423  0.00  0.00    +0.380 HD
ENDBRANCH  20  21
BRANCH  18  23
ATOM     23  C   LIG    1       -1.296  -7.150   0.227  0.00  0.00    +0.330 C 
BRANCH  23  24
ATOM     24  N   LIG    1       -1.217  -8.369   1.036  0.00  0.00    -0.370 N 
ATOM     25  C   LIG    1       -2.018  -8.686   2.074  0.00  0.00    +0.220 A 
ATOM     26  C   LIG    1       -1.623  -9.890   2.548  0.00  0.00    -0.120 A 
ATOM     27  C   LIG    1       -0.536 -10.319   1.779  0.00  0.00    +0.220 A 
ATOM     28  N   LIG    1       -0.292  -9.408   0.872  0.00  0.00    -0.290 NA
ENDBRANCH  23  24
ENDBRANCH  18  23
ENDBRANCH   3  16
TORSDOF 5
