REMARK  Name = ZINCbw0000000Hbj.0
REMARK                            x       y       z     vdW  Elec       q    Type
REMARK                         _______ _______ _______ _____ _____    ______ ____
ROOT
ATOM      1  C   LIG    1        1.417   2.055  -0.000  0.00  0.00    -0.040 C 
ATOM      2  C   LIG    1       -0.019   1.526   0.010  0.00  0.00    +0.030 C 
ATOM      3  C   LIG    1        0.002  -0.004   0.002  0.00  0.00    -0.020 C 
ATOM      4  C   LIG    1        0.742  -0.511   1.242  0.00  0.00    +0.010 C 
ATOM      5  C   LIG    1        2.178   0.019   1.231  0.00  0.00    -0.020 C 
ATOM      6  C   LIG    1        2.894  -0.475  -0.028  0.00  0.00    +0.020 C 
ATOM      7  C   LIG    1       -1.433  -0.534   0.013  0.00  0.00    +0.010 C 
ATOM      8  C   LIG    1        2.157   1.548   1.239  0.00  0.00    +0.040 C 
ENDROOT
BRANCH   1  10
ATOM      9  C   LIG    1        2.510   4.335  -0.651  0.00  0.00    +0.060 C 
ATOM     10  C   LIG    1        1.396   3.562   0.008  0.00  0.00    +0.360 C 
ATOM     11  O   LIG    1        0.487   4.151   0.543  0.00  0.00    -0.460 OA
ENDBRANCH   1  10
TORSDOF 1
