REMARK  Name = ZINCpk00001AZj82.0
REMARK                            x       y       z     vdW  Elec       q    Type
REMARK                         _______ _______ _______ _____ _____    ______ ____
ROOT
ATOM      1  S   LIG    1       -0.017   1.417   0.010  0.00  0.00    +2.730 S 
ATOM      2  O   LIG    1        1.162   2.210   0.003  0.00  0.00    -0.920 OA
ATOM      3  O   LIG    1        0.002  -0.004   0.002  0.00  0.00    -0.910 OA
ENDROOT
BRANCH   1   4
ATOM      4  N   LIG    1       -0.900   1.880  -1.312  0.00  0.00    -0.860 NA
ATOM      5  O   LIG    1       -1.963   1.119  -1.934  0.00  0.00    -0.070 OA
ATOM      6  C   LIG    1       -2.768   2.091  -2.519  0.00  0.00    +0.100 C 
ATOM      7  C   LIG    1       -3.842   1.972  -3.549  0.00  0.00    +0.090 C 
ATOM      8  C   LIG    1       -3.816   3.342  -4.292  0.00  0.00    +0.040 C 
ATOM      9  C   LIG    1       -2.586   4.122  -3.701  0.00  0.00    +0.050 C 
ATOM     10  C   LIG    1       -1.689   2.981  -3.244  0.00  0.00    +0.000 C 
ATOM     11  C   LIG    1       -0.735   3.151  -2.075  0.00  0.00    +0.300 C 
BRANCH  11  12
ATOM     12  C   LIG    1       -1.134   4.334  -1.230  0.00  0.00    +0.440 C 
ATOM     13  O   LIG    1       -1.823   4.172  -0.252  0.00  0.00    -0.480 OA
BRANCH  12  14
ATOM     14  O   LIG    1       -0.724   5.567  -1.566  0.00  0.00    -0.350 OA
ATOM     15  C   LIG    1       -1.146   6.659  -0.707  0.00  0.00    +0.280 C 
ENDBRANCH  12  14
ENDBRANCH  11  12
ENDBRANCH   1   4
BRANCH   1  20
ATOM     16  N   LIG    1       -0.410   2.237   2.637  0.00  0.00    -0.310 N 
ATOM     17  N   LIG    1       -1.473   2.547   3.495  0.00  0.00    -0.240 NA
ATOM     18  C   LIG    1       -2.591   2.395   2.833  0.00  0.00    +0.090 A 
ATOM     19  C   LIG    1       -2.276   1.988   1.532  0.00  0.00    +0.040 A 
ATOM     20  C   LIG    1       -0.930   1.894   1.440  0.00  0.00    -0.490 A 
BRANCH  18  21
ATOM     21  C   LIG    1       -3.978   2.623   3.376  0.00  0.00    +0.040 C 
ATOM     22  C   LIG    1       -5.118   2.764   2.365  0.00  0.00    +0.040 C 
ATOM     23  C   LIG    1       -4.617   3.992   3.129  0.00  0.00    +0.040 C 
ENDBRANCH  18  21
BRANCH  16  25
ATOM     24  C   LIG    1        1.572   3.669   2.677  0.00  0.00    +0.050 C 
ATOM     25  C   LIG    1        1.014   2.277   2.979  0.00  0.00    +0.310 C 
ENDBRANCH  16  25
ENDBRANCH   1  20
TORSDOF 6
