REMARK  Name = ZINCqH0000006YOE.0
REMARK                            x       y       z     vdW  Elec       q    Type
REMARK                         _______ _______ _______ _____ _____    ______ ____
ROOT
ATOM      1  N   LIG    1       -0.453   1.393   3.718  0.00  0.00    -0.620 N 
ATOM      2  H   LIG    1       -1.248   1.939   3.817  0.00  0.00    +0.430 HD
ATOM      3  C   LIG    1        0.000   1.080   2.488  0.00  0.00    +0.510 C 
ATOM      4  O   LIG    1        0.994   0.397   2.363  0.00  0.00    -0.500 OA
ENDROOT
BRANCH   1   8
ATOM      5  C   LIG    1        0.637   0.647   7.021  0.00  0.00    +0.140 A 
ATOM      6  C   LIG    1        1.687  -0.073   6.588  0.00  0.00    -0.120 A 
ATOM      7  S   LIG    1        1.671  -0.064   4.826  0.00  0.00    +0.200 S 
ATOM      8  C   LIG    1        0.219   0.932   4.844  0.00  0.00    +0.280 A 
ATOM      9  N   LIG    1       -0.122   1.174   6.071  0.00  0.00    -0.500 NA
BRANCH   5  13
ATOM     10  C   LIG    1       -0.179   1.213  11.158  0.00  0.00    +0.130 A 
ATOM     11  C   LIG    1       -1.011   1.782  10.204  0.00  0.00    -0.020 A 
ATOM     12  C   LIG    1       -0.749   1.601   8.861  0.00  0.00    +0.090 A 
ATOM     13  C   LIG    1        0.352   0.845   8.464  0.00  0.00    -0.060 A 
ATOM     14  C   LIG    1        1.183   0.269   9.425  0.00  0.00    +0.070 A 
ATOM     15  C   LIG    1        0.919   0.460  10.765  0.00  0.00    -0.080 A 
BRANCH  10  17
ATOM     16  C   LIG    1        0.457   0.780  13.407  0.00  0.00    +0.250 C 
ATOM     17  O   LIG    1       -0.440   1.394  12.479  0.00  0.00    -0.320 OA
ENDBRANCH  10  17
ENDBRANCH   5  13
ENDBRANCH   1   8
BRANCH   3  18
ATOM     18  C   LIG    1       -0.729   1.579   1.267  0.00  0.00    +0.070 C 
BRANCH  18  19
ATOM     19  C   LIG    1       -0.013   1.086   0.008  0.00  0.00    +0.140 C 
BRANCH  19  20
ATOM     20  C   LIG    1       -0.742   1.585  -1.213  0.00  0.00    -0.240 A 
ATOM     21  C   LIG    1       -1.742   0.944  -1.860  0.00  0.00    +0.090 A 
ATOM     22  N   LIG    1       -2.126   1.720  -2.896  0.00  0.00    -0.370 N 
ATOM     23  N   LIG    1       -1.328   2.872  -2.890  0.00  0.00    -0.300 NA
ATOM     24  C   LIG    1       -3.185   1.410  -3.859  0.00  0.00    +0.350 C 
ATOM     25  C   LIG    1       -2.327  -0.394  -1.489  0.00  0.00    +0.140 C 
ATOM     26  C   LIG    1       -0.499   2.790  -1.881  0.00  0.00    +0.080 A 
ATOM     27  C   LIG    1        0.539   3.816  -1.504  0.00  0.00    +0.150 C 
ENDBRANCH  19  20
ENDBRANCH  18  19
ENDBRANCH   3  18
TORSDOF 6
