REMARK  Name = ZINCpe00000zauye.0
REMARK                            x       y       z     vdW  Elec       q    Type
REMARK                         _______ _______ _______ _____ _____    ______ ____
ROOT
ATOM      1  C   LIG    1       -1.351  -0.577  -1.524  0.00  0.00    +0.250 C 
ATOM      2  C   LIG    1       -1.398  -0.639   0.012  0.00  0.00    +0.060 C 
ATOM      3  C   LIG    1        0.002  -0.004   0.002  0.00  0.00    +0.100 C 
ATOM      4  C   LIG    1        0.181  -0.610  -1.400  0.00  0.00    +0.000 C 
ENDROOT
BRANCH   1   6
ATOM      5  C   LIG    1       -2.405  -1.671  -3.429  0.00  0.00    +0.590 C 
ATOM      6  N   LIG    1       -1.915  -1.761  -2.177  0.00  0.00    -0.710 N 
ATOM      7  H   LIG    1       -1.935  -2.610  -1.708  0.00  0.00    +0.400 HD
ATOM      8  O   LIG    1       -2.380  -0.607  -4.017  0.00  0.00    -0.520 OA
BRANCH   5  15
ATOM      9  C   LIG    1       -0.714  -3.611  -5.134  0.00  0.00    +0.130 C 
ATOM     10  C   LIG    1       -2.191  -3.776  -4.884  0.00  0.00    -0.060 A 
ATOM     11  C   LIG    1       -2.909  -4.778  -5.377  0.00  0.00    -0.050 A 
ATOM     12  S   LIG    1       -4.586  -4.641  -4.878  0.00  0.00    +0.240 S 
ATOM     13  C   LIG    1       -4.283  -3.215  -3.994  0.00  0.00    -0.150 A 
ATOM     14 CL   LIG    1       -5.485  -2.333  -3.105  0.00  0.00    +0.000 Cl
ATOM     15  C   LIG    1       -2.971  -2.860  -4.084  0.00  0.00    -0.140 A 
ENDBRANCH   5  15
ENDBRANCH   1   6
BRANCH   3  16
ATOM     16  O   LIG    1       -0.017   1.425   0.010  0.00  0.00    -0.530 OA
ATOM     17  H   LIG    1        0.861   1.830   0.004  0.00  0.00    +0.380 HD
ENDBRANCH   3  16
BRANCH   3  18
ATOM     18  C   LIG    1        0.949  -0.591   1.051  0.00  0.00    +0.270 C 
BRANCH  18  19
ATOM     19  N   LIG    1        2.261   0.050   0.938  0.00  0.00    -0.730 N 
ATOM     20  H   LIG    1        2.410   0.734   0.267  0.00  0.00    +0.400 HD
ATOM     21  C   LIG    1        3.261  -0.311   1.766  0.00  0.00    +0.530 C 
ATOM     22  O   LIG    1        3.075  -1.166   2.605  0.00  0.00    -0.510 OA
BRANCH  21  23
ATOM     23  C   LIG    1        4.611   0.349   1.650  0.00  0.00    +0.140 C 
ATOM     24  C   LIG    1        5.238  -0.002   0.297  0.00  0.00    +0.220 C 
ATOM     25  O   LIG    1        6.563   0.534   0.240  0.00  0.00    -0.370 OA
ATOM     26  C   LIG    1        7.416   0.066   1.289  0.00  0.00    +0.200 C 
ATOM     27  C   LIG    1        6.789   0.417   2.641  0.00  0.00    +0.200 C 
ATOM     28  O   LIG    1        5.464  -0.119   2.698  0.00  0.00    -0.350 OA
ENDBRANCH  21  23
ENDBRANCH  18  19
ENDBRANCH   3  18
TORSDOF 6
