REMARK  Name = ZINCpk00000y6wLb.0
REMARK                            x       y       z     vdW  Elec       q    Type
REMARK                         _______ _______ _______ _____ _____    ______ ____
ROOT
ATOM      1  N   LIG    1        5.270  -1.928   0.914  0.00  0.00    -0.730 N 
ATOM      2  H   LIG    1        5.795  -1.151   1.163  0.00  0.00    +0.410 HD
ATOM      3  C   LIG    1        5.546  -3.130   1.457  0.00  0.00    +0.720 C 
ATOM      4  N   LIG    1        6.614  -3.274   2.267  0.00  0.00    -0.620 N 
ATOM      5  C   LIG    1        7.422  -2.110   2.654  0.00  0.00    +0.270 C 
ATOM      6  C   LIG    1        7.517  -2.069   4.187  0.00  0.00    +0.030 C 
ATOM      7  C   LIG    1        8.060  -3.408   4.694  0.00  0.00    +0.030 C 
ATOM      8  C   LIG    1        7.098  -4.532   4.301  0.00  0.00    +0.260 C 
ATOM      9  C   LIG    1        6.995  -4.599   2.774  0.00  0.00    +0.310 C 
ATOM     10  O   LIG    1        4.833  -4.085   1.216  0.00  0.00    -0.580 OA
ENDROOT
BRANCH   8  11
ATOM     11  N   LIG    1        7.602  -5.808   4.815  0.00  0.00    -0.370 N 
ATOM     12  C   LIG    1        8.498  -6.617   4.223  0.00  0.00    +0.470 A 
ATOM     13  N   LIG    1        8.684  -7.653   5.000  0.00  0.00    -0.540 NA
ATOM     14  C   LIG    1        7.922  -7.546   6.087  0.00  0.00    +0.420 A 
ATOM     15  N   LIG    1        7.240  -6.433   6.019  0.00  0.00    -0.320 NA
ENDBRANCH   8  11
BRANCH   1  17
ATOM     16  C   LIG    1        4.685  -2.145  -1.451  0.00  0.00    +0.060 C 
ATOM     17  C   LIG    1        4.176  -1.794  -0.051  0.00  0.00    +0.370 C 
BRANCH  17  18
ATOM     18  C   LIG    1        3.668  -0.376  -0.042  0.00  0.00    +0.120 A 
ATOM     19  N   LIG    1        4.401   0.708  -0.047  0.00  0.00    -0.240 NA
ATOM     20  N   LIG    1        3.652   1.754  -0.037  0.00  0.00    -0.280 NA
ATOM     21  C   LIG    1        2.381   1.386  -0.025  0.00  0.00    +0.200 A 
ATOM     22  C   LIG    1        1.166   2.098  -0.011  0.00  0.00    +0.080 A 
ATOM     23  C   LIG    1       -0.007   1.410  -0.001  0.00  0.00    +0.070 A 
ATOM     24  C   LIG    1        0.009   0.005  -0.005  0.00  0.00    +0.030 A 
ATOM     25  C   LIG    1        1.181  -0.664  -0.018  0.00  0.00    +0.230 A 
ATOM     26  N   LIG    1        2.365   0.013  -0.028  0.00  0.00    -0.380 N 
ENDBRANCH  17  18
ENDBRANCH   1  17
TORSDOF 3
