REMARK  Name = ZINCrH000004n7zE.0
REMARK                            x       y       z     vdW  Elec       q    Type
REMARK                         _______ _______ _______ _____ _____    ______ ____
ROOT
ATOM      1  C   LIG    1        0.218  -2.284  -1.192  0.00  0.00    -0.050 C 
ATOM      2  C   LIG    1       -0.175  -2.155   0.057  0.00  0.00    -0.070 C 
ATOM      3  C   LIG    1       -0.655  -3.310   0.887  0.00  0.00    +0.270 C 
ATOM      4  N   LIG    1       -0.990  -4.452   0.027  0.00  0.00    -0.500 NA
ATOM      5  C   LIG    1        0.124  -4.744  -0.889  0.00  0.00    +0.230 C 
ATOM      6  C   LIG    1        0.228  -3.606  -1.908  0.00  0.00    +0.040 C 
ENDROOT
BRANCH   1  14
ATOM      7  C   LIG    1       -2.046   1.357  -3.091  0.00  0.00    +0.100 A 
ATOM      8  C   LIG    1       -1.178   2.268  -3.685  0.00  0.00    -0.050 A 
ATOM      9  C   LIG    1        0.182   2.050  -3.674  0.00  0.00    +0.030 A 
ATOM     10  C   LIG    1        0.699   0.911  -3.064  0.00  0.00    +0.060 A 
ATOM     11  N   LIG    1        1.982   0.431  -2.896  0.00  0.00    -0.590 N 
ATOM     12  H   LIG    1        2.786   0.870  -3.215  0.00  0.00    +0.420 HD
ATOM     13  C   LIG    1        1.956  -0.751  -2.216  0.00  0.00    +0.250 A 
ATOM     14  C   LIG    1        0.673  -1.082  -1.919  0.00  0.00    -0.150 A 
ATOM     15  C   LIG    1       -0.176  -0.009  -2.464  0.00  0.00    -0.050 A 
ATOM     16  C   LIG    1       -1.551   0.220  -2.480  0.00  0.00    +0.010 A 
BRANCH   7  18
ATOM     17  C   LIG    1       -3.831   2.777  -3.762  0.00  0.00    +0.230 C 
ATOM     18  O   LIG    1       -3.387   1.583  -3.115  0.00  0.00    -0.320 OA
ENDBRANCH   7  18
ENDBRANCH   1  14
BRANCH   4  19
ATOM     19  C   LIG    1       -2.232  -4.204  -0.717  0.00  0.00    +0.140 C 
ATOM     20  C   LIG    1       -2.583  -5.438  -1.550  0.00  0.00    +0.080 C 
BRANCH  19  21
ATOM     21  C   LIG    1       -3.350  -3.917   0.253  0.00  0.00    +0.510 C 
ATOM     22  N   LIG    1       -4.379  -3.130  -0.119  0.00  0.00    -0.640 N 
ATOM     23  H   LIG    1       -4.401  -2.748  -1.010  0.00  0.00    +0.420 HD
ATOM     24  O   LIG    1       -3.323  -4.395   1.367  0.00  0.00    -0.450 OA
BRANCH  22  25
ATOM     25  C   LIG    1       -5.410  -2.866   0.775  0.00  0.00    +0.270 A 
ATOM     26  N   LIG    1       -5.481  -3.329   1.984  0.00  0.00    -0.480 NA
ATOM     27  C   LIG    1       -6.532  -2.973   2.699  0.00  0.00    +0.250 A 
ATOM     28  C   LIG    1       -7.394  -2.179   2.062  0.00  0.00    -0.090 A 
ATOM     29  S   LIG    1       -6.772  -1.889   0.439  0.00  0.00    +0.120 S 
ENDBRANCH  22  25
ENDBRANCH  19  21
ENDBRANCH   4  19
TORSDOF 5
