REMARK  Name = ZINCtj00001eqnnp.0
REMARK                            x       y       z     vdW  Elec       q    Type
REMARK                         _______ _______ _______ _____ _____    ______ ____
ROOT
ATOM      1  O   LIG    1        1.151   2.458   2.038  0.00  0.00    -0.560 OA
ATOM      2  C   LIG    1       -0.037   2.238   2.168  0.00  0.00    +0.650 C 
ATOM      3  N   LIG    1       -0.706   1.562   1.213  0.00  0.00    -0.600 N 
ATOM      4  C   LIG    1       -0.013   1.086   0.008  0.00  0.00    +0.320 C 
ATOM      5  C   LIG    1       -0.759   1.596  -1.228  0.00  0.00    +0.070 C 
ATOM      6  C   LIG    1       -2.228   1.174  -1.143  0.00  0.00    +0.130 C 
ATOM      7  C   LIG    1       -2.868   1.797   0.099  0.00  0.00    -0.010 C 
ATOM      8  C   LIG    1       -2.146   1.289   1.351  0.00  0.00    +0.290 C 
ENDROOT
BRANCH   6   9
ATOM      9  O   LIG    1       -2.309  -0.251  -1.058  0.00  0.00    -0.540 OA
ATOM     10  H   LIG    1       -3.213  -0.590  -1.000  0.00  0.00    +0.390 HD
ENDBRANCH   6   9
BRANCH   6  11
ATOM     11  C   LIG    1       -2.969   1.652  -2.393  0.00  0.00    +0.320 C 
BRANCH  11  12
ATOM     12  N   LIG    1       -4.397   1.353  -2.259  0.00  0.00    -0.280 N 
ATOM     13  C   LIG    1       -5.407   2.247  -2.361  0.00  0.00    +0.170 A 
ATOM     14  C   LIG    1       -6.551   1.548  -2.173  0.00  0.00    -0.000 A 
ATOM     15  N   LIG    1       -6.188   0.278  -1.959  0.00  0.00    -0.250 NA
ATOM     16  N   LIG    1       -4.906   0.196  -2.016  0.00  0.00    -0.070 NA
BRANCH  14  17
ATOM     17  C   LIG    1       -7.955   2.093  -2.195  0.00  0.00    -0.080 C 
ATOM     18  C   LIG    1       -8.314   3.186  -1.165  0.00  0.00    +0.340 C 
ATOM     19  N   LIG    1       -9.823   3.184  -1.161  0.00  0.00    -0.530 N 
ATOM     20  C   LIG    1      -10.207   1.755  -1.292  0.00  0.00    +0.330 C 
ATOM     21  H   LIG    1      -10.177   3.567  -0.297  0.00  0.00    +0.440 HD
ATOM     22  H   LIG    1      -10.162   3.714  -1.949  0.00  0.00    +0.430 HD
ATOM     23  C   LIG    1       -8.771   2.024  -3.487  0.00  0.00    +0.120 C 
ATOM     24  C   LIG    1       -9.185   1.167  -2.289  0.00  0.00    +0.000 C 
ENDBRANCH  14  17
ENDBRANCH  11  12
ENDBRANCH   6  11
BRANCH   2  25
ATOM     25  O   LIG    1       -0.685   2.669   3.267  0.00  0.00    -0.370 OA
BRANCH  25  26
ATOM     26  C   LIG    1        0.099   3.389   4.254  0.00  0.00    +0.290 C 
BRANCH  26  27
ATOM     27  C   LIG    1       -0.788   3.789   5.405  0.00  0.00    -0.100 A 
ATOM     28  C   LIG    1       -1.442   5.007   5.382  0.00  0.00    +0.030 A 
ATOM     29  C   LIG    1       -2.259   5.372   6.436  0.00  0.00    +0.010 A 
ATOM     30  C   LIG    1       -2.414   4.524   7.516  0.00  0.00    +0.020 A 
ATOM     31  C   LIG    1       -1.756   3.309   7.541  0.00  0.00    +0.010 A 
ATOM     32  C   LIG    1       -0.943   2.941   6.486  0.00  0.00    +0.040 A 
ENDBRANCH  26  27
ENDBRANCH  25  26
ENDBRANCH   2  25
TORSDOF 7
