REMARK  Name = ZINCtj0000000Jtu.0
REMARK                            x       y       z     vdW  Elec       q    Type
REMARK                         _______ _______ _______ _____ _____    ______ ____
ROOT
ATOM      1  N   LIG    1       -0.415  -2.118   0.866  0.00  0.00    -0.980 NA
ENDROOT
BRANCH   1   2
ATOM      2  C   LIG    1        0.706  -2.337   1.783  0.00  0.00    +0.290 C 
ATOM      3  C   LIG    1        0.405  -1.690   3.146  0.00  0.00    +0.060 C 
ATOM      4  C   LIG    1        1.710  -1.633   3.965  0.00  0.00    -0.300 C 
ATOM      5  S   LIG    1        3.050  -1.545   2.722  0.00  0.00    +2.390 S 
ATOM      6  O   LIG    1        3.662  -0.264   2.775  0.00  0.00    -0.920 OA
ATOM      7  O   LIG    1        3.849  -2.716   2.808  0.00  0.00    -0.910 OA
ATOM      8  C   LIG    1        1.982  -1.646   1.235  0.00  0.00    -0.320 C 
ENDBRANCH   1   2
BRANCH   1   9
ATOM      9  S   LIG    1       -1.256  -3.411   0.264  0.00  0.00    +2.690 S 
ATOM     10  O   LIG    1       -2.453  -2.887  -0.295  0.00  0.00    -0.940 OA
ATOM     11  O   LIG    1       -1.243  -4.406   1.278  0.00  0.00    -0.930 OA
BRANCH   9  12
ATOM     12  C   LIG    1       -0.323  -4.060  -1.082  0.00  0.00    -0.700 A 
ATOM     13  C   LIG    1        0.225  -5.323  -0.994  0.00  0.00    +0.210 A 
ATOM     14  C   LIG    1        0.965  -5.836  -2.062  0.00  0.00    -0.140 A 
ATOM     15  C   LIG    1        1.145  -5.065  -3.212  0.00  0.00    +0.150 A 
ATOM     16  C   LIG    1        0.592  -3.803  -3.286  0.00  0.00    +0.000 A 
ATOM     17  C   LIG    1       -0.144  -3.304  -2.227  0.00  0.00    +0.050 A 
ATOM     18  C   LIG    1       -0.750  -1.927  -2.318  0.00  0.00    +0.110 C 
BRANCH  14  19
ATOM     19  C   LIG    1        1.553  -7.188  -1.975  0.00  0.00    +0.500 C 
ATOM     20  O   LIG    1        1.394  -7.857  -0.973  0.00  0.00    -0.490 OA
BRANCH  19  21
ATOM     21  O   LIG    1        2.266  -7.680  -3.007  0.00  0.00    -0.350 OA
ATOM     22  C   LIG    1        2.815  -9.015  -2.852  0.00  0.00    +0.290 C 
ENDBRANCH  19  21
ENDBRANCH  14  19
ENDBRANCH   9  12
ENDBRANCH   1   9
BRANCH   1  23
ATOM     23  C   LIG    1       -0.792  -0.756   0.481  0.00  0.00    +0.310 C 
BRANCH  23  24
ATOM     24  C   LIG    1       -1.793  -0.198   1.495  0.00  0.00    +0.230 C 
BRANCH  24  25
ATOM     25  N   LIG    1       -2.270   1.115   1.041  0.00  0.00    -0.380 N 
ATOM     26  H   LIG    1       -2.630   1.036   0.102  0.00  0.00    +0.430 HD
BRANCH  25  28
ATOM     27  C   LIG    1       -0.708   2.306   2.502  0.00  0.00    +0.080 C 
ATOM     28  C   LIG    1       -1.157   2.074   1.059  0.00  0.00    +0.240 C 
ENDBRANCH  25  28
BRANCH  25  29
ATOM     29  C   LIG    1       -3.336   1.585   1.936  0.00  0.00    +0.240 C 
ATOM     30  C   LIG    1       -3.918   2.892   1.393  0.00  0.00    +0.080 C 
ENDBRANCH  25  29
ENDBRANCH  24  25
ENDBRANCH  23  24
ENDBRANCH   1  23
TORSDOF 10
