REMARK  Name = ZINCqH0000035GQR.0
REMARK                            x       y       z     vdW  Elec       q    Type
REMARK                         _______ _______ _______ _____ _____    ______ ____
ROOT
ATOM      1  N   LIG    1       -1.753   2.342   1.404  0.00  0.00    -0.720 N 
ATOM      2  H   LIG    1       -1.199   2.031   2.137  0.00  0.00    +0.400 HD
ATOM      3  C   LIG    1       -2.909   2.986   1.660  0.00  0.00    +0.580 C 
ATOM      4  O   LIG    1       -3.604   3.376   0.740  0.00  0.00    -0.500 OA
ENDROOT
BRANCH   3   5
ATOM      5  C   LIG    1       -3.330   3.216   3.048  0.00  0.00    +0.030 A 
ATOM      6  C   LIG    1       -4.470   3.857   3.428  0.00  0.00    -0.030 A 
ATOM      7  C   LIG    1       -4.488   3.858   4.889  0.00  0.00    -0.110 A 
ATOM      8  C   LIG    1       -5.381   4.355   5.844  0.00  0.00    +0.080 A 
ATOM      9  C   LIG    1       -5.108   4.199   7.173  0.00  0.00    -0.010 A 
ATOM     10  C   LIG    1       -3.950   3.553   7.585  0.00  0.00    +0.050 A 
ATOM     11  C   LIG    1       -3.056   3.055   6.663  0.00  0.00    -0.010 A 
ATOM     12  C   LIG    1       -3.312   3.201   5.302  0.00  0.00    +0.130 A 
ATOM     13 CL   LIG    1       -5.672   4.540   2.379  0.00  0.00    -0.010 Cl
ATOM     14  N   LIG    1       -2.629   2.822   4.171  0.00  0.00    -0.580 N 
ATOM     15  H   LIG    1       -1.782   2.350   4.163  0.00  0.00    +0.420 HD
ENDBRANCH   3   5
BRANCH   1  16
ATOM     16  C   LIG    1       -1.333   2.112   0.020  0.00  0.00    +0.340 C 
BRANCH  16  19
ATOM     17  C   LIG    1        1.211  -0.683  -0.013  0.00  0.00    +0.150 A 
ATOM     18  C   LIG    1        0.002  -0.004   0.002  0.00  0.00    -0.070 A 
ATOM     19  C   LIG    1       -0.017   1.378   0.010  0.00  0.00    -0.040 A 
ATOM     20  C   LIG    1        1.169   2.089   0.002  0.00  0.00    -0.070 A 
ATOM     21  C   LIG    1        2.382   1.418  -0.013  0.00  0.00    +0.150 A 
ATOM     22  C   LIG    1        2.405   0.028  -0.020  0.00  0.00    +0.040 A 
BRANCH  17  24
ATOM     23  C   LIG    1       -0.036  -2.708  -0.012  0.00  0.00    +0.250 C 
ATOM     24  O   LIG    1        1.229  -2.043  -0.020  0.00  0.00    -0.300 OA
ENDBRANCH  17  24
BRANCH  21  25
ATOM     25  O   LIG    1        3.548   2.119  -0.021  0.00  0.00    -0.300 OA
ATOM     26  C   LIG    1        3.448   3.544  -0.013  0.00  0.00    +0.250 C 
ENDBRANCH  21  25
BRANCH  22  27
ATOM     27  O   LIG    1        3.594  -0.634  -0.035  0.00  0.00    -0.310 OA
ATOM     28  C   LIG    1        4.148  -0.943  -1.316  0.00  0.00    +0.230 C 
ENDBRANCH  22  27
ENDBRANCH  16  19
ENDBRANCH   1  16
TORSDOF 6
