REMARK  Name = ZINCvU0000000GPR.0
REMARK                            x       y       z     vdW  Elec       q    Type
REMARK                         _______ _______ _______ _____ _____    ______ ____
ROOT
ATOM      1  C   LIG    1       -0.888   2.824   3.185  0.00  0.00    +0.350 A 
ATOM      2  N   LIG    1       -0.115   2.316   2.246  0.00  0.00    -0.480 NA
ATOM      3  C   LIG    1       -0.862   1.861   1.244  0.00  0.00    +0.230 A 
ATOM      4  N   LIG    1       -2.125   2.072   1.514  0.00  0.00    -0.270 NA
ATOM      5  N   LIG    1       -2.178   2.692   2.773  0.00  0.00    -0.320 N 
ENDROOT
BRANCH   1   9
ATOM      6  N   LIG    1       -0.385   4.456   6.402  0.00  0.00    -0.350 N 
ATOM      7  C   LIG    1        0.889   4.103   6.122  0.00  0.00    +0.300 A 
ATOM      8  C   LIG    1        0.892   3.464   4.932  0.00  0.00    -0.210 A 
ATOM      9  C   LIG    1       -0.435   3.429   4.456  0.00  0.00    +0.160 A 
ATOM     10  I   LIG    1        2.572   2.670   3.964  0.00  0.00    +0.040 I 
ATOM     11  N   LIG    1       -1.200   4.025   5.348  0.00  0.00    -0.250 NA
BRANCH   6  12
ATOM     12  C   LIG    1       -0.836   5.165   7.602  0.00  0.00    +0.330 C 
BRANCH  12  14
ATOM     13  F   LIG    1       -2.037   7.099   8.338  0.00  0.00    -0.200 F 
ATOM     14  C   LIG    1       -1.607   6.422   7.193  0.00  0.00    +0.220 C 
ENDBRANCH  12  14
ENDBRANCH   6  12
ENDBRANCH   1   9
BRANCH   5  15
ATOM     15  C   LIG    1       -3.328   3.100   3.463  0.00  0.00    +0.130 A 
ATOM     16  C   LIG    1       -3.510   2.733   4.789  0.00  0.00    +0.090 A 
ATOM     17  C   LIG    1       -4.643   3.140   5.469  0.00  0.00    +0.020 A 
ATOM     18  C   LIG    1       -5.601   3.903   4.828  0.00  0.00    +0.080 A 
ATOM     19  C   LIG    1       -5.429   4.268   3.505  0.00  0.00    -0.040 A 
ATOM     20  C   LIG    1       -4.295   3.869   2.818  0.00  0.00    +0.130 A 
BRANCH  20  21
ATOM     21  O   LIG    1       -4.125   4.226   1.518  0.00  0.00    -0.300 OA
BRANCH  21  22
ATOM     22  C   LIG    1       -5.156   5.015   0.921  0.00  0.00    +0.600 C 
ATOM     23  F   LIG    1       -6.365   4.311   0.963  0.00  0.00    -0.160 F 
ATOM     24  F   LIG    1       -4.823   5.291  -0.409  0.00  0.00    -0.130 F 
ATOM     25  F   LIG    1       -5.292   6.216   1.627  0.00  0.00    -0.160 F 
ENDBRANCH  21  22
ENDBRANCH  20  21
ENDBRANCH   5  15
BRANCH   3  26
ATOM     26  C   LIG    1       -0.337   1.212  -0.010  0.00  0.00    +0.270 C 
BRANCH  26  27
ATOM     27  C   LIG    1       -0.233  -0.277   0.201  0.00  0.00    -0.180 A 
ATOM     28  C   LIG    1       -1.201  -1.159  -0.050  0.00  0.00    +0.020 A 
ATOM     29  C   LIG    1       -0.875  -2.477   0.219  0.00  0.00    +0.000 A 
ATOM     30  C   LIG    1        0.356  -2.664   0.697  0.00  0.00    -0.060 A 
ATOM     31  S   LIG    1        1.182  -1.116   0.823  0.00  0.00    +0.120 S 
ENDBRANCH  26  27
ENDBRANCH   3  26
TORSDOF 8
