REMARK  Name = ZINCpk00000KfL7H.2
REMARK                            x       y       z     vdW  Elec       q    Type
REMARK                         _______ _______ _______ _____ _____    ______ ____
ROOT
ATOM      1  C   LIG    1       -3.109   5.061   3.459  0.00  0.00    +0.280 C 
ENDROOT
BRANCH   1   2
ATOM      2  C   LIG    1       -2.127   5.738   4.417  0.00  0.00    +0.120 C 
ATOM      3  C   LIG    1       -2.763   5.910   5.820  0.00  0.00    +0.070 C 
ATOM      4  C   LIG    1       -1.967   7.093   6.417  0.00  0.00    +0.160 C 
ATOM      5  C   LIG    1       -1.388   7.842   5.203  0.00  0.00    +0.160 C 
ATOM      6  N   LIG    1       -1.859   7.136   3.992  0.00  0.00    -0.500 NA
BRANCH   4   7
ATOM      7  O   LIG    1       -0.913   6.610   7.252  0.00  0.00    -0.560 OA
ATOM      8  H   LIG    1       -0.352   7.306   7.620  0.00  0.00    +0.380 HD
ENDBRANCH   4   7
BRANCH   6   9
ATOM      9  C   LIG    1       -0.845   7.178   2.930  0.00  0.00    +0.220 C 
BRANCH   9  10
ATOM     10  C   LIG    1       -0.873   8.528   2.262  0.00  0.00    -0.080 A 
ATOM     11  C   LIG    1       -1.688   8.740   1.166  0.00  0.00    +0.020 A 
ATOM     12  C   LIG    1       -1.717   9.980   0.556  0.00  0.00    +0.000 A 
ATOM     13  C   LIG    1       -0.923  11.005   1.036  0.00  0.00    +0.000 A 
ATOM     14  C   LIG    1       -0.105  10.792   2.129  0.00  0.00    +0.000 A 
ATOM     15  C   LIG    1       -0.079   9.553   2.742  0.00  0.00    +0.010 A 
ENDBRANCH   9  10
ENDBRANCH   6   9
ENDBRANCH   1   2
BRANCH   1  18
ATOM     16  O   LIG    1       -4.830   3.345   2.292  0.00  0.00    -0.530 OA
ATOM     17  C   LIG    1       -4.152   2.876   3.181  0.00  0.00    +0.490 C 
ATOM     18  N   LIG    1       -3.260   3.651   3.829  0.00  0.00    -0.720 N 
ATOM     19  H   LIG    1       -2.717   3.276   4.540  0.00  0.00    +0.400 HD
BRANCH  17  20
ATOM     20  C   LIG    1       -4.307   1.426   3.562  0.00  0.00    +0.270 C 
BRANCH  20  21
ATOM     21  C   LIG    1       -4.839   1.331   4.969  0.00  0.00    -0.120 A 
ATOM     22  C   LIG    1       -6.200   1.395   5.199  0.00  0.00    +0.020 A 
ATOM     23  C   LIG    1       -6.688   1.312   6.490  0.00  0.00    +0.020 A 
ATOM     24  C   LIG    1       -5.814   1.155   7.550  0.00  0.00    +0.020 A 
ATOM     25  C   LIG    1       -4.453   1.087   7.319  0.00  0.00    +0.020 A 
ATOM     26  C   LIG    1       -3.965   1.174   6.029  0.00  0.00    +0.020 A 
ENDBRANCH  20  21
BRANCH  20  27
ATOM     27  O   LIG    1       -5.220   0.793   2.663  0.00  0.00    -0.530 OA
ATOM     28  H   LIG    1       -6.104   1.183   2.661  0.00  0.00    +0.380 HD
ENDBRANCH  20  27
ENDBRANCH  17  20
ENDBRANCH   1  18
TORSDOF 8
