REMARK  Name = ZINCrH00000No528.0
REMARK                            x       y       z     vdW  Elec       q    Type
REMARK                         _______ _______ _______ _____ _____    ______ ____
ROOT
ATOM      1  N   LIG    1       -3.827   5.596   0.067  0.00  0.00    -0.960 N 
ATOM      2  H   LIG    1       -3.471   6.498   0.068  0.00  0.00    +0.400 HD
ENDROOT
BRANCH   1   3
ATOM      3  S   LIG    1       -5.465   5.352   0.081  0.00  0.00    +2.720 S 
ATOM      4  O   LIG    1       -5.753   4.497  -1.018  0.00  0.00    -0.940 OA
ATOM      5  O   LIG    1       -6.059   6.632   0.246  0.00  0.00    -0.950 OA
BRANCH   3   9
ATOM      6  C   LIG    1       -6.438   2.996   3.824  0.00  0.00    +0.190 A 
ATOM      7  C   LIG    1       -6.436   4.383   3.856  0.00  0.00    -0.030 A 
ATOM      8  C   LIG    1       -6.138   5.099   2.713  0.00  0.00    +0.170 A 
ATOM      9  C   LIG    1       -5.843   4.435   1.537  0.00  0.00    -0.710 A 
ATOM     10  C   LIG    1       -5.850   3.053   1.500  0.00  0.00    +0.190 A 
ATOM     11  C   LIG    1       -6.141   2.332   2.643  0.00  0.00    -0.090 A 
BRANCH   6  12
ATOM     12  O   LIG    1       -6.731   2.289   4.947  0.00  0.00    -0.310 OA
BRANCH  12  14
ATOM     13  C   LIG    1       -7.065   0.247   6.194  0.00  0.00    +0.070 C 
ATOM     14  C   LIG    1       -6.714   0.865   4.840  0.00  0.00    +0.190 C 
ENDBRANCH  12  14
ENDBRANCH   6  12
ENDBRANCH   3   9
ENDBRANCH   1   3
BRANCH   1  15
ATOM     15  N   LIG    1       -2.955   4.498   0.053  0.00  0.00    -0.210 NA
ATOM     16  C   LIG    1       -1.669   4.690   0.042  0.00  0.00    +0.310 C 
BRANCH  16  17
ATOM     17  C   LIG    1       -0.757   3.543   0.028  0.00  0.00    +0.020 A 
ATOM     18  C   LIG    1        0.608   3.605   0.015  0.00  0.00    +0.010 A 
ATOM     19  C   LIG    1        1.077   2.284   0.004  0.00  0.00    -0.030 A 
ATOM     20  C   LIG    1       -0.018   1.472   0.010  0.00  0.00    +0.050 A 
ATOM     21  O   LIG    1       -1.122   2.245   0.019  0.00  0.00    -0.150 OA
BRANCH  20  22
ATOM     22  C   LIG    1        0.002  -0.004   0.002  0.00  0.00    -0.030 A 
ATOM     23  C   LIG    1        1.220  -0.689  -0.019  0.00  0.00    +0.080 A 
ATOM     24  C   LIG    1        1.232  -2.068  -0.022  0.00  0.00    -0.010 A 
ATOM     25  C   LIG    1        0.040  -2.774  -0.014  0.00  0.00    +0.110 A 
ATOM     26  C   LIG    1       -1.171  -2.100   0.002  0.00  0.00    -0.010 A 
ATOM     27  F   LIG    1        0.058  -4.125  -0.021  0.00  0.00    -0.130 F 
ATOM     28  C   LIG    1       -1.196  -0.722   0.010  0.00  0.00    +0.070 A 
ENDBRANCH  20  22
ENDBRANCH  16  17
ENDBRANCH   1  15
TORSDOF 7
