REMARK  Name = ZINC650000002wvN.0
REMARK                            x       y       z     vdW  Elec       q    Type
REMARK                         _______ _______ _______ _____ _____    ______ ____
ROOT
ATOM      1  C   LIG    1       -0.720   3.028   1.225  0.00  0.00    +0.250 C 
ENDROOT
BRANCH   1   3
ATOM      2  C   LIG    1       -0.013   1.086   0.008  0.00  0.00    +0.320 C 
ATOM      3  N   LIG    1       -0.700   1.560   1.217  0.00  0.00    -0.510 N 
ATOM      4  H   LIG    1       -0.212   1.225   2.034  0.00  0.00    +0.430 HD
ATOM      5  H   LIG    1       -1.647   1.210   1.224  0.00  0.00    +0.430 HD
ENDBRANCH   1   3
BRANCH   1   6
ATOM      6  C   LIG    1       -1.436   3.522   2.483  0.00  0.00    +0.040 C 
BRANCH   6   7
ATOM      7  C   LIG    1       -1.457   5.052   2.492  0.00  0.00    +0.200 C 
BRANCH   7   8
ATOM      8  O   LIG    1       -2.126   5.513   3.668  0.00  0.00    -0.570 OA
ATOM      9  H   LIG    1       -2.177   6.476   3.739  0.00  0.00    +0.400 HD
ENDBRANCH   7   8
ENDBRANCH   6   7
ENDBRANCH   1   6
TORSDOF 4
