REMARK  Name = ZINCrH00000No4vg.0
REMARK                            x       y       z     vdW  Elec       q    Type
REMARK                         _______ _______ _______ _____ _____    ______ ____
ROOT
ATOM      1  C   LIG    1       -0.062   1.117  -2.413  0.00  0.00    +0.300 C 
ENDROOT
BRANCH   1   2
ATOM      2  C   LIG    1        1.050   2.069  -2.767  0.00  0.00    -0.050 A 
ATOM      3  C   LIG    1        0.888   3.438  -2.616  0.00  0.00    +0.030 A 
ATOM      4  C   LIG    1        1.932   4.281  -2.951  0.00  0.00    +0.260 A 
ATOM      5  N   LIG    1        3.069   3.796  -3.410  0.00  0.00    -0.480 NA
ATOM      6  C   LIG    1        3.259   2.501  -3.566  0.00  0.00    +0.140 A 
ATOM      7  C   LIG    1        2.263   1.597  -3.247  0.00  0.00    -0.030 A 
BRANCH   6   8
ATOM      8  C   LIG    1        4.578   1.999  -4.095  0.00  0.00    +0.040 C 
ATOM      9  C   LIG    1        4.341   0.769  -4.972  0.00  0.00    +0.040 C 
ATOM     10  C   LIG    1        5.487   1.623  -2.923  0.00  0.00    +0.030 C 
ENDBRANCH   6   8
ENDBRANCH   1   2
BRANCH   1  15
ATOM     11  N   LIG    1       -1.222   0.090  -4.439  0.00  0.00    -0.300 N 
ATOM     12  N   LIG    1       -2.185   0.442  -5.222  0.00  0.00    -0.080 NA
ATOM     13  N   LIG    1       -2.621   1.595  -4.853  0.00  0.00    -0.070 NA
ATOM     14  N   LIG    1       -1.952   1.997  -3.828  0.00  0.00    -0.270 NA
ATOM     15  C   LIG    1       -1.066   1.077  -3.536  0.00  0.00    +0.170 A 
BRANCH  11  16
ATOM     16  C   LIG    1       -0.448  -1.151  -4.515  0.00  0.00    +0.340 C 
BRANCH  16  18
ATOM     17  C   LIG    1       -0.319  -3.525  -3.749  0.00  0.00    +0.050 C 
ATOM     18  C   LIG    1       -1.128  -2.229  -3.670  0.00  0.00    +0.010 C 
ENDBRANCH  16  18
ENDBRANCH  11  16
ENDBRANCH   1  15
BRANCH   1  19
ATOM     19  N   LIG    1       -0.723   1.572  -1.182  0.00  0.00    -0.660 NA
ATOM     20  H   LIG    1       -1.692   1.290  -1.166  0.00  0.00    +0.360 HD
BRANCH  19  21
ATOM     21  C   LIG    1       -0.013   1.086   0.008  0.00  0.00    +0.310 C 
BRANCH  21  22
ATOM     22  C   LIG    1       -0.718   1.572   1.248  0.00  0.00    -0.010 A 
ATOM     23  C   LIG    1       -1.704   0.925   1.895  0.00  0.00    -0.030 A 
ATOM     24  C   LIG    1       -2.073   1.732   2.996  0.00  0.00    -0.030 A 
ATOM     25  C   LIG    1       -1.284   2.832   2.955  0.00  0.00    -0.020 A 
ATOM     26  O   LIG    1       -0.463   2.724   1.897  0.00  0.00    -0.160 OA
BRANCH  25  27
ATOM     27  S   LIG    1       -1.322   4.172   4.099  0.00  0.00    -0.020 S 
ATOM     28  C   LIG    1       -0.034   5.283   3.470  0.00  0.00    +0.140 C 
ENDBRANCH  25  27
ENDBRANCH  21  22
ENDBRANCH  19  21
ENDBRANCH   1  19
TORSDOF 9
