REMARK  Name = ZINCrH000004sAI4.0
REMARK                            x       y       z     vdW  Elec       q    Type
REMARK                         _______ _______ _______ _____ _____    ______ ____
ROOT
ATOM      1  N   LIG    1       -0.137  11.421   1.729  0.00  0.00    -0.530 N 
ATOM      2  H   LIG    1       -0.153  12.055   0.995  0.00  0.00    +0.430 HD
ATOM      3  C   LIG    1       -0.121  10.097   1.476  0.00  0.00    +0.520 C 
ATOM      4  O   LIG    1       -0.102   9.304   2.393  0.00  0.00    -0.490 OA
ENDROOT
BRANCH   1  15
ATOM      5  C   LIG    1        2.243  12.482   2.723  0.00  0.00    +0.200 C 
ATOM      6  C   LIG    1        1.005  12.406   3.579  0.00  0.00    +0.410 A 
ATOM      7  N   LIG    1        1.056  12.845   4.802  0.00  0.00    -0.490 NA
ATOM      8  C   LIG    1       -0.021  12.802   5.616  0.00  0.00    +0.070 A 
ATOM      9  C   LIG    1       -1.220  12.277   5.143  0.00  0.00    -0.230 A 
ATOM     10  C   LIG    1       -1.254  11.805   3.794  0.00  0.00    +0.570 A 
ATOM     11  O   LIG    1       -2.277  11.338   3.324  0.00  0.00    -0.500 OA
ATOM     12  C   LIG    1       -2.265  12.309   6.146  0.00  0.00    +0.090 A 
ATOM     13  C   LIG    1       -1.902  12.821   7.308  0.00  0.00    -0.050 A 
ATOM     14  S   LIG    1       -0.221  13.320   7.285  0.00  0.00    +0.210 S 
ATOM     15  N   LIG    1       -0.131  11.881   3.053  0.00  0.00    -0.330 N 
ENDBRANCH   1  15
BRANCH   3  16
ATOM     16  C   LIG    1       -0.128   9.603   0.052  0.00  0.00    +0.140 C 
BRANCH  16  17
ATOM     17  C   LIG    1       -0.108   8.096   0.044  0.00  0.00    -0.080 A 
ATOM     18  C   LIG    1       -1.298   7.391   0.051  0.00  0.00    +0.020 A 
ATOM     19  C   LIG    1       -1.285   6.011   0.044  0.00  0.00    +0.020 A 
ATOM     20  C   LIG    1       -0.070   5.328   0.029  0.00  0.00    -0.040 A 
ATOM     21  C   LIG    1        1.125   6.043   0.027  0.00  0.00    +0.020 A 
ATOM     22  C   LIG    1        1.101   7.423   0.029  0.00  0.00    +0.020 A 
BRANCH  20  23
ATOM     23  C   LIG    1       -0.050   3.844   0.022  0.00  0.00    -0.050 A 
ATOM     24  C   LIG    1        1.164   3.161   0.007  0.00  0.00    +0.020 A 
ATOM     25  C   LIG    1        1.177   1.781   0.000  0.00  0.00    +0.000 A 
ATOM     26  C   LIG    1       -0.013   1.076   0.008  0.00  0.00    +0.000 A 
ATOM     27  C   LIG    1       -1.221   1.748   0.017  0.00  0.00    +0.010 A 
ATOM     28  C   LIG    1       -1.246   3.128   0.030  0.00  0.00    +0.020 A 
ENDBRANCH  20  23
ENDBRANCH  16  17
ENDBRANCH   3  16
TORSDOF 4
