REMARK  Name = ZINCDN0000000cR0.0
REMARK                            x       y       z     vdW  Elec       q    Type
REMARK                         _______ _______ _______ _____ _____    ______ ____
ROOT
ATOM      1  CA  LIG    1       -2.425  -2.787   0.062  0.00  0.00    +0.070 C 
ATOM      2  C   LIG    1       -2.160  -4.113  -0.025  0.00  0.00    +0.050 C 
ENDROOT
BRANCH   2   3
ATOM      3  C   LIG    1       -3.240  -5.059  -0.333  0.00  0.00    -0.210 A 
ATOM      4  C   LIG    1       -4.582  -4.904  -0.044  0.00  0.00    +0.320 A 
ATOM      5  N   LIG    1       -5.229  -5.997  -0.495  0.00  0.00    -0.280 N 
ATOM      6  N   LIG    1       -4.314  -6.875  -1.082  0.00  0.00    -0.280 NA
ATOM      7  C   LIG    1       -3.110  -6.352  -1.013  0.00  0.00    +0.130 A 
BRANCH   5   8
ATOM      8  C   LIG    1       -6.608  -6.219  -0.390  0.00  0.00    +0.180 A 
ATOM      9  C   LIG    1       -7.421  -5.274   0.221  0.00  0.00    +0.040 A 
ATOM     10  C   LIG    1       -8.781  -5.493   0.317  0.00  0.00    +0.040 A 
ATOM     11  C   LIG    1       -9.332  -6.658  -0.185  0.00  0.00    -0.010 A 
ATOM     12  C   LIG    1       -8.524  -7.604  -0.789  0.00  0.00    +0.010 A 
ATOM     13  C   LIG    1       -7.164  -7.388  -0.893  0.00  0.00    +0.010 A 
ENDBRANCH   5   8
BRANCH   7  14
ATOM     14  C   LIG    1       -1.856  -6.956  -1.524  0.00  0.00    -0.050 A 
ATOM     15  C   LIG    1       -1.664  -8.340  -1.477  0.00  0.00    +0.090 A 
ATOM     16  C   LIG    1       -0.476  -8.855  -1.967  0.00  0.00    -0.030 A 
ATOM     17  C   LIG    1        0.474  -7.992  -2.482  0.00  0.00    +0.250 A 
ATOM     18  N   LIG    1        0.265  -6.690  -2.513  0.00  0.00    -0.480 NA
ATOM     19  C   LIG    1       -0.852  -6.154  -2.064  0.00  0.00    +0.280 A 
ENDBRANCH   7  14
ENDBRANCH   2   3
BRANCH   1  22
ATOM     20  N   LIG    1       -4.077  -2.099  -1.592  0.00  0.00    -0.670 N 
ATOM     21  H   LIG    1       -3.459  -2.368  -2.289  0.00  0.00    +0.390 HD
ATOM     22  C   LIG    1       -3.752  -2.279  -0.297  0.00  0.00    +0.580 C 
ATOM     23  O   LIG    1       -4.561  -2.020   0.575  0.00  0.00    -0.540 OA
BRANCH  20  24
ATOM     24  CA  LIG    1       -5.365  -1.497  -1.948  0.00  0.00    +0.160 C 
BRANCH  24  25
ATOM     25  C   LIG    1       -6.427  -2.566  -1.979  0.00  0.00    +0.500 C 
ATOM     26  OXT LIG    1       -6.131  -3.711  -2.275  0.00  0.00    -0.680 OA
ATOM     27  O   LIG    1       -7.582  -2.285  -1.710  0.00  0.00    -0.690 OA
ENDBRANCH  24  25
BRANCH  24  28
ATOM     28  CB  LIG    1       -5.259  -0.842  -3.326  0.00  0.00    -0.010 C 
ATOM     29  CG2 LIG    1       -4.180   0.242  -3.294  0.00  0.00    +0.010 C 
BRANCH  28  31
ATOM     30  CD1 LIG    1       -6.535   0.331  -5.125  0.00  0.00    +0.000 C 
ATOM     31  CG1 LIG    1       -6.603  -0.214  -3.698  0.00  0.00    +0.020 C 
ENDBRANCH  28  31
ENDBRANCH  24  28
ENDBRANCH  20  24
ENDBRANCH   1  22
BRANCH   1  32
ATOM     32  N   LIG    1       -1.429  -1.901   0.496  0.00  0.00    -0.650 N 
ATOM     33  H   LIG    1       -0.530  -2.225   0.660  0.00  0.00    +0.410 HD
ATOM     34  C   LIG    1       -1.722  -0.599   0.685  0.00  0.00    +0.540 C 
ATOM     35  O   LIG    1       -2.822  -0.174   0.389  0.00  0.00    -0.480 OA
BRANCH  34  36
ATOM     36  C   LIG    1       -0.706   0.312   1.252  0.00  0.00    -0.130 A 
ATOM     37  C   LIG    1       -1.005   1.661   1.450  0.00  0.00    +0.080 A 
ATOM     38  C   LIG    1       -0.052   2.506   1.980  0.00  0.00    +0.000 A 
ATOM     39  C   LIG    1        1.198   2.019   2.316  0.00  0.00    +0.030 A 
ATOM     40  C   LIG    1        1.502   0.683   2.123  0.00  0.00    +0.000 A 
ATOM     41  C   LIG    1        0.558  -0.173   1.594  0.00  0.00    +0.040 A 
ENDBRANCH  34  36
ENDBRANCH   1  32
TORSDOF 10
