REMARK  Name = ZINCrD0000074pbv.0
REMARK                            x       y       z     vdW  Elec       q    Type
REMARK                         _______ _______ _______ _____ _____    ______ ____
ROOT
ATOM      1  C   LIG    1       -4.824  -3.582   0.271  0.00  0.00    +0.450 C 
ATOM      2  O   LIG    1       -4.624  -3.432   1.458  0.00  0.00    -0.460 OA
ENDROOT
BRANCH   1   6
ATOM      3  C   LIG    1       -8.148  -6.051  -2.698  0.00  0.00    +0.140 C 
ATOM      4  C   LIG    1       -7.403  -5.497  -1.512  0.00  0.00    +0.030 A 
ATOM      5  C   LIG    1       -6.328  -4.693  -1.573  0.00  0.00    -0.010 A 
ATOM      6  C   LIG    1       -5.942  -4.412  -0.184  0.00  0.00    -0.260 A 
ATOM      7  C   LIG    1       -6.854  -5.087   0.606  0.00  0.00    +0.120 A 
ATOM      8  C   LIG    1       -6.878  -5.102   2.113  0.00  0.00    +0.150 C 
ATOM      9  N   LIG    1       -7.716  -5.728  -0.203  0.00  0.00    -0.430 N 
BRANCH   9  10
ATOM     10  C   LIG    1       -8.834  -6.556   0.255  0.00  0.00    +0.310 C 
BRANCH  10  11
ATOM     11  C   LIG    1      -10.082  -5.685   0.413  0.00  0.00    +0.140 C 
ATOM     12  C   LIG    1      -11.241  -6.510   1.014  0.00  0.00    +0.010 C 
ATOM     13  C   LIG    1      -12.497  -5.982   0.285  0.00  0.00    +0.010 C 
ATOM     14  C   LIG    1      -11.948  -4.899  -0.671  0.00  0.00    +0.200 C 
ATOM     15  O   LIG    1      -10.565  -5.259  -0.880  0.00  0.00    -0.360 OA
ENDBRANCH  10  11
ENDBRANCH   9  10
ENDBRANCH   1   6
BRANCH   1  16
ATOM     16  C   LIG    1       -3.922  -2.916  -0.736  0.00  0.00    +0.100 C 
BRANCH  16  17
ATOM     17  S   LIG    1       -2.647  -1.968   0.131  0.00  0.00    +0.080 S 
BRANCH  17  18
ATOM     18  C   LIG    1       -1.762  -1.315  -1.246  0.00  0.00    +0.200 A 
ATOM     19  N   LIG    1       -2.036  -1.515  -2.517  0.00  0.00    -0.340 NA
ATOM     20  N   LIG    1       -1.191  -0.898  -3.261  0.00  0.00    -0.030 NA
ATOM     21  N   LIG    1       -0.334  -0.265  -2.536  0.00  0.00    -0.080 NA
ATOM     22  N   LIG    1       -0.676  -0.509  -1.195  0.00  0.00    -0.350 N 
BRANCH  22  23
ATOM     23  C   LIG    1        0.002  -0.004   0.002  0.00  0.00    +0.260 C 
ATOM     24  C   LIG    1       -0.019   1.534   0.011  0.00  0.00    +0.040 C 
ATOM     25  C   LIG    1        1.453   1.995  -0.001  0.00  0.00    +0.030 C 
ATOM     26  C   LIG    1        2.232   0.792   0.586  0.00  0.00    +0.040 C 
ATOM     27  C   LIG    1        1.486  -0.425  -0.014  0.00  0.00    +0.040 C 
ENDBRANCH  22  23
ENDBRANCH  17  18
ENDBRANCH  16  17
ENDBRANCH   1  16
TORSDOF 7
