REMARK  Name = ZINCtV00001bB37G.0
REMARK                            x       y       z     vdW  Elec       q    Type
REMARK                         _______ _______ _______ _____ _____    ______ ____
ROOT
ATOM      1  N   LIG    1        3.491   0.813  -0.027  0.00  0.00    -0.380 NA
ATOM      2  C   LIG    1        2.199   0.785   0.192  0.00  0.00    +0.180 C 
ATOM      3  C   LIG    1        1.225   1.891   0.007  0.00  0.00    +0.570 C 
ATOM      4  N   LIG    1        0.010   1.428   0.347  0.00  0.00    -0.540 N 
ATOM      5  C   LIG    1        0.067   0.098   0.751  0.00  0.00    +0.180 A 
ATOM      6  C   LIG    1       -0.922  -0.777   1.183  0.00  0.00    -0.010 A 
ATOM      7  C   LIG    1       -0.598  -2.074   1.532  0.00  0.00    +0.080 A 
ATOM      8  C   LIG    1        0.711  -2.518   1.458  0.00  0.00    -0.020 A 
ATOM      9  C   LIG    1        1.708  -1.664   1.030  0.00  0.00    +0.100 A 
ATOM     10  O   LIG    1        1.481   3.013  -0.384  0.00  0.00    -0.460 OA
ATOM     11  C   LIG    1        1.392  -0.356   0.677  0.00  0.00    -0.180 A 
ENDROOT
BRANCH   1  15
ATOM     12  C   LIG    1        5.709  -2.661   0.243  0.00  0.00    -0.080 A 
ATOM     13  C   LIG    1        4.752  -2.531  -0.749  0.00  0.00    +0.030 A 
ATOM     14  C   LIG    1        4.008  -1.375  -0.847  0.00  0.00    +0.010 A 
ATOM     15  C   LIG    1        4.221  -0.330   0.062  0.00  0.00    +0.060 A 
ATOM     16  C   LIG    1        5.195  -0.468   1.059  0.00  0.00    +0.020 A 
ATOM     17  C   LIG    1        5.927  -1.633   1.145  0.00  0.00    +0.030 A 
BRANCH  12  18
ATOM     18  C   LIG    1        6.519  -3.928   0.341  0.00  0.00    +0.030 C 
ATOM     19  C   LIG    1        8.004  -3.598   0.179  0.00  0.00    +0.030 C 
BRANCH  18  21
ATOM     20  C   LIG    1        7.009  -5.924   1.761  0.00  0.00    +0.010 C 
ATOM     21  C   LIG    1        6.287  -4.577   1.707  0.00  0.00    +0.000 C 
ENDBRANCH  18  21
ENDBRANCH  12  18
ENDBRANCH   1  15
BRANCH   4  22
ATOM     22  C   LIG    1       -1.220   2.222   0.294  0.00  0.00    +0.370 C 
BRANCH  22  23
ATOM     23  C   LIG    1       -1.430   2.911   1.618  0.00  0.00    -0.120 A 
ATOM     24  C   LIG    1       -2.158   2.286   2.614  0.00  0.00    +0.040 A 
ATOM     25  C   LIG    1       -2.347   2.915   3.830  0.00  0.00    +0.030 A 
ATOM     26  C   LIG    1       -1.817   4.174   4.047  0.00  0.00    -0.030 A 
ATOM     27  C   LIG    1       -1.094   4.801   3.049  0.00  0.00    +0.030 A 
ATOM     28 CL   LIG    1       -2.060   4.968   5.572  0.00  0.00    -0.060 Cl
ATOM     29  C   LIG    1       -0.901   4.170   1.835  0.00  0.00    +0.060 A 
ENDBRANCH  22  23
ENDBRANCH   4  22
TORSDOF 5
