REMARK  Name = ZINCkj00000y7NtP.0
REMARK                            x       y       z     vdW  Elec       q    Type
REMARK                         _______ _______ _______ _____ _____    ______ ____
ROOT
ATOM      1  C   LIG    1       -2.083   1.065   1.218  0.00  0.00    +0.320 C 
ATOM      2  N   LIG    1       -0.700   1.560   1.216  0.00  0.00    -0.380 N 
ATOM      3  C   LIG    1       -0.706   3.028   1.235  0.00  0.00    +0.280 C 
ATOM      4  C   LIG    1       -1.451   3.551   0.005  0.00  0.00    +0.220 C 
ATOM      5  N   LIG    1       -0.788   3.062  -1.211  0.00  0.00    -0.530 NA
ATOM      6  C   LIG    1       -0.753   1.593  -1.232  0.00  0.00    +0.190 C 
ATOM      7  C   LIG    1       -0.013   1.086   0.008  0.00  0.00    +0.280 C 
ATOM      8  H   LIG    1       -0.219   1.215   2.034  0.00  0.00    +0.430 HD
ENDROOT
BRANCH   6   9
ATOM      9  C   LIG    1       -0.036   1.124  -2.472  0.00  0.00    -0.110 A 
ATOM     10  C   LIG    1        1.087   1.795  -2.917  0.00  0.00    +0.040 A 
ATOM     11  C   LIG    1        1.747   1.362  -4.051  0.00  0.00    +0.010 A 
ATOM     12  C   LIG    1        1.278   0.263  -4.747  0.00  0.00    +0.030 A 
ATOM     13  C   LIG    1        0.151  -0.405  -4.305  0.00  0.00    +0.010 A 
ATOM     14  C   LIG    1       -0.506   0.025  -3.167  0.00  0.00    +0.010 A 
ENDBRANCH   6   9
BRANCH   5  15
ATOM     15  C   LIG    1       -1.442   3.590  -2.416  0.00  0.00    +0.190 C 
BRANCH  15  16
ATOM     16  C   LIG    1       -1.241   5.105  -2.483  0.00  0.00    +0.270 C 
BRANCH  16  17
ATOM     17  N   LIG    1       -1.893   5.631  -3.685  0.00  0.00    -0.730 N 
ATOM     18  H   LIG    1       -2.358   5.030  -4.287  0.00  0.00    +0.400 HD
ATOM     19  C   LIG    1       -1.847   6.951  -3.953  0.00  0.00    +0.510 C 
ATOM     20  O   LIG    1       -1.266   7.703  -3.200  0.00  0.00    -0.510 OA
BRANCH  19  21
ATOM     21  C   LIG    1       -2.518   7.493  -5.189  0.00  0.00    +0.180 C 
ATOM     22 CL   LIG    1       -2.282   9.278  -5.268  0.00  0.00    -0.120 Cl
ENDBRANCH  19  21
ENDBRANCH  16  17
ENDBRANCH  15  16
ENDBRANCH   5  15
TORSDOF 5
