REMARK  Name = ZINCkj00000y7NtP.1
REMARK                            x       y       z     vdW  Elec       q    Type
REMARK                         _______ _______ _______ _____ _____    ______ ____
ROOT
ATOM      1  C   LIG    1       -7.432   3.042  -1.078  0.00  0.00    +0.320 C 
ATOM      2  N   LIG    1       -6.159   2.310  -1.141  0.00  0.00    -0.390 N 
ATOM      3  C   LIG    1       -5.050   3.236  -0.875  0.00  0.00    +0.280 C 
ATOM      4  C   LIG    1       -3.723   2.478  -0.959  0.00  0.00    +0.200 C 
ATOM      5  N   LIG    1       -3.721   1.388   0.027  0.00  0.00    -0.530 NA
ATOM      6  C   LIG    1       -4.841   0.467  -0.211  0.00  0.00    +0.180 C 
ATOM      7  C   LIG    1       -6.159   1.241  -0.133  0.00  0.00    +0.280 C 
ATOM      8  H   LIG    1       -6.048   1.907  -2.059  0.00  0.00    +0.420 HD
ENDROOT
BRANCH   6   9
ATOM      9  C   LIG    1       -4.832  -0.617   0.836  0.00  0.00    -0.110 A 
ATOM     10  C   LIG    1       -4.529  -0.307   2.149  0.00  0.00    +0.040 A 
ATOM     11  C   LIG    1       -4.526  -1.301   3.110  0.00  0.00    +0.010 A 
ATOM     12  C   LIG    1       -4.815  -2.606   2.756  0.00  0.00    +0.030 A 
ATOM     13  C   LIG    1       -5.113  -2.916   1.442  0.00  0.00    +0.010 A 
ATOM     14  C   LIG    1       -5.122  -1.921   0.482  0.00  0.00    +0.020 A 
ENDBRANCH   6   9
BRANCH   5  15
ATOM     15  C   LIG    1       -2.439   0.671   0.017  0.00  0.00    +0.190 C 
BRANCH  15  16
ATOM     16  C   LIG    1       -1.290   1.681   0.017  0.00  0.00    +0.270 C 
BRANCH  16  17
ATOM     17  N   LIG    1       -0.011   0.966   0.007  0.00  0.00    -0.730 N 
ATOM     18  H   LIG    1        0.002  -0.004   0.002  0.00  0.00    +0.400 HD
ATOM     19  C   LIG    1        1.147   1.655   0.000  0.00  0.00    +0.510 C 
ATOM     20  O   LIG    1        1.130   2.868   0.007  0.00  0.00    -0.510 OA
BRANCH  19  21
ATOM     21  C   LIG    1        2.462   0.920  -0.017  0.00  0.00    +0.180 C 
ATOM     22 CL   LIG    1        3.816   2.110  -0.023  0.00  0.00    -0.120 Cl
ENDBRANCH  19  21
ENDBRANCH  16  17
ENDBRANCH  15  16
ENDBRANCH   5  15
TORSDOF 5
