REMARK  Name = ZINCpe00000c4jsP.0
REMARK                            x       y       z     vdW  Elec       q    Type
REMARK                         _______ _______ _______ _____ _____    ______ ____
ROOT
ATOM      1  N   LIG    1        3.761  11.114  -0.817  0.00  0.00    -0.450 NA
ATOM      2  C   LIG    1        3.064   9.816  -0.725  0.00  0.00    +0.210 C 
ATOM      3  C   LIG    1        4.011   9.298  -1.808  0.00  0.00    +0.080 C 
ATOM      4  C   LIG    1        4.508   7.873  -1.569  0.00  0.00    +0.280 C 
ATOM      5  N   LIG    1        5.424   7.518  -2.667  0.00  0.00    -0.610 N 
ATOM      6  C   LIG    1        4.983   7.787  -4.045  0.00  0.00    +0.270 C 
ATOM      7  C   LIG    1        4.540   9.251  -4.142  0.00  0.00    +0.230 C 
ATOM      8  C   LIG    1        6.627   6.965  -2.418  0.00  0.00    +0.560 C 
ATOM      9  O   LIG    1        7.328   6.595  -3.339  0.00  0.00    -0.510 OA
ATOM     10  O   LIG    1        3.555   9.516  -3.139  0.00  0.00    -0.330 OA
ATOM     11  C   LIG    1        4.954  10.380  -1.281  0.00  0.00    +0.150 C 
ENDROOT
BRANCH   8  12
ATOM     12  C   LIG    1        7.096   6.808  -1.018  0.00  0.00    -0.010 A 
ATOM     13  C   LIG    1        7.643   7.879  -0.336  0.00  0.00    -0.060 A 
ATOM     14  C   LIG    1        8.074   7.695   0.994  0.00  0.00    +0.520 A 
ATOM     15  N   LIG    1        7.960   6.488   1.578  0.00  0.00    -0.600 N 
ATOM     16  H   LIG    1        8.263   6.370   2.492  0.00  0.00    +0.420 HD
ATOM     17  C   LIG    1        7.429   5.432   0.911  0.00  0.00    +0.320 A 
ATOM     18  O   LIG    1        8.556   8.629   1.613  0.00  0.00    -0.540 OA
ATOM     19  C   LIG    1        6.997   5.561  -0.364  0.00  0.00    -0.060 A 
ENDBRANCH   8  12
BRANCH   1  20
ATOM     20  C   LIG    1        3.981  11.689   0.517  0.00  0.00    +0.250 C 
BRANCH  20  23
ATOM     21  C   LIG    1        1.411  10.893   1.928  0.00  0.00    +0.150 C 
ATOM     22  C   LIG    1        1.713  12.297   1.472  0.00  0.00    +0.070 A 
ATOM     23  C   LIG    1        2.850  12.627   0.853  0.00  0.00    -0.210 A 
ATOM     24  S   LIG    1        2.794  14.352   0.498  0.00  0.00    +0.140 S 
ATOM     25  C   LIG    1        1.247  14.458   1.218  0.00  0.00    +0.220 A 
ATOM     26  N   LIG    1        0.877  13.300   1.651  0.00  0.00    -0.470 NA
ENDBRANCH  20  23
ENDBRANCH   1  20
TORSDOF 3
