REMARK  Name = ZINCpe000000U6wu.0
REMARK                            x       y       z     vdW  Elec       q    Type
REMARK                         _______ _______ _______ _____ _____    ______ ____
ROOT
ATOM      1  N   LIG    1        6.077   7.200   0.794  0.00  0.00    -0.520 NA
ATOM      2  C   LIG    1        5.727   6.303   1.903  0.00  0.00    +0.200 C 
ATOM      3  C   LIG    1        4.822   5.183   1.385  0.00  0.00    +0.190 C 
ATOM      4  N   LIG    1        3.615   5.770   0.787  0.00  0.00    -0.520 NA
ATOM      5  C   LIG    1        3.964   6.668  -0.323  0.00  0.00    +0.190 C 
ATOM      6  C   LIG    1        4.870   7.788   0.195  0.00  0.00    +0.200 C 
ENDROOT
BRANCH   1   7
ATOM      7  C   LIG    1        7.008   8.247   1.236  0.00  0.00    +0.130 C 
BRANCH   7   8
ATOM      8  C   LIG    1        8.343   7.628   1.559  0.00  0.00    +0.520 C 
ATOM      9  O   LIG    1        8.503   6.432   1.433  0.00  0.00    -0.520 OA
ATOM     10  N   LIG    1        9.359   8.402   1.988  0.00  0.00    -0.860 N 
ATOM     11  H   LIG    1       10.218   8.004   2.196  0.00  0.00    +0.400 HD
ATOM     12  H   LIG    1        9.231   9.358   2.089  0.00  0.00    +0.400 HD
ENDBRANCH   7   8
BRANCH   7  14
ATOM     13  C   LIG    1        7.674   8.582  -1.148  0.00  0.00    +0.020 C 
ATOM     14  C   LIG    1        7.181   9.280   0.121  0.00  0.00    +0.030 C 
ENDBRANCH   7  14
ENDBRANCH   1   7
BRANCH   4  15
ATOM     15  C   LIG    1        2.684   4.724   0.344  0.00  0.00    +0.220 C 
BRANCH  15  16
ATOM     16  C   LIG    1        1.366   5.350  -0.034  0.00  0.00    +0.520 C 
ATOM     17  N   LIG    1        0.394   4.596  -0.584  0.00  0.00    -0.560 N 
ATOM     18  C   LIG    1        0.648   3.193  -0.938  0.00  0.00    +0.270 C 
ATOM     19  C   LIG    1        0.055   2.946  -2.331  0.00  0.00    +0.020 C 
ATOM     20  C   LIG    1       -1.458   3.147  -2.267  0.00  0.00    +0.080 C 
ATOM     21  C   LIG    1       -1.788   4.472  -1.632  0.00  0.00    -0.120 A 
ATOM     22  C   LIG    1       -3.035   5.030  -1.855  0.00  0.00    +0.020 A 
ATOM     23  C   LIG    1       -3.367   6.246  -1.288  0.00  0.00    -0.020 A 
ATOM     24  C   LIG    1       -2.458   6.908  -0.484  0.00  0.00    +0.020 A 
ATOM     25  C   LIG    1       -1.214   6.356  -0.253  0.00  0.00    +0.020 A 
ATOM     26  C   LIG    1       -0.876   5.137  -0.827  0.00  0.00    +0.150 A 
ATOM     27  O   LIG    1        1.181   6.534   0.157  0.00  0.00    -0.490 OA
ENDBRANCH  15  16
ENDBRANCH   4  15
TORSDOF 5
