REMARK  Name = ZINCvU0000000AVg.0
REMARK                            x       y       z     vdW  Elec       q    Type
REMARK                         _______ _______ _______ _____ _____    ______ ____
ROOT
ATOM      1  C   LIG    1        1.770   6.336  -2.674  0.00  0.00    +0.610 C 
ATOM      2  N   LIG    1        1.620   5.281  -1.849  0.00  0.00    -0.660 N 
ATOM      3  H   LIG    1        0.814   4.743  -1.891  0.00  0.00    +0.420 HD
ATOM      4  O   LIG    1        2.813   6.960  -2.679  0.00  0.00    -0.510 OA
ENDROOT
BRANCH   2   5
ATOM      5  C   LIG    1        2.627   4.961  -0.934  0.00  0.00    +0.150 A 
ATOM      6  C   LIG    1        3.958   5.157  -1.267  0.00  0.00    +0.060 A 
ATOM      7  C   LIG    1        4.953   4.835  -0.363  0.00  0.00    +0.010 A 
ATOM      8  C   LIG    1        4.627   4.321   0.881  0.00  0.00    +0.090 A 
ATOM      9  C   LIG    1        3.303   4.125   1.228  0.00  0.00    +0.020 A 
ATOM     10  F   LIG    1        5.606   4.009   1.759  0.00  0.00    -0.140 F 
ATOM     11  C   LIG    1        2.293   4.446   0.325  0.00  0.00    -0.040 A 
BRANCH  11  12
ATOM     12  C   LIG    1        0.872   4.238   0.692  0.00  0.00    -0.060 A 
ATOM     13  C   LIG    1        0.456   3.014   1.213  0.00  0.00    +0.070 A 
ATOM     14  C   LIG    1       -0.867   2.825   1.553  0.00  0.00    -0.010 A 
ATOM     15  C   LIG    1       -1.784   3.848   1.373  0.00  0.00    +0.100 A 
ATOM     16  C   LIG    1       -1.375   5.068   0.860  0.00  0.00    -0.010 A 
ATOM     17  F   LIG    1       -3.080   3.656   1.702  0.00  0.00    -0.140 F 
ATOM     18  C   LIG    1       -0.053   5.266   0.517  0.00  0.00    +0.060 A 
ENDBRANCH  11  12
ENDBRANCH   2   5
BRANCH   1  22
ATOM     19  N   LIG    1       -1.232   6.756  -4.545  0.00  0.00    -0.220 N 
ATOM     20  C   LIG    1       -0.539   7.795  -5.082  0.00  0.00    +0.170 A 
ATOM     21  C   LIG    1        0.674   7.818  -4.482  0.00  0.00    +0.010 A 
ATOM     22  C   LIG    1        0.667   6.735  -3.570  0.00  0.00    -0.030 A 
ATOM     23  N   LIG    1       -0.512   6.153  -3.668  0.00  0.00    -0.220 NA
BRANCH  19  30
ATOM     24  C   LIG    1       -3.153   5.305  -4.285  0.00  0.00    +0.140 A 
ATOM     25  C   LIG    1       -4.448   4.957  -4.633  0.00  0.00    -0.050 A 
ATOM     26  C   LIG    1       -5.125   5.684  -5.594  0.00  0.00    +0.070 A 
ATOM     27  C   LIG    1       -4.515   6.764  -6.206  0.00  0.00    -0.100 A 
ATOM     28  C   LIG    1       -3.226   7.122  -5.860  0.00  0.00    +0.050 A 
ATOM     29  C   LIG    1       -5.259   7.554  -7.252  0.00  0.00    +0.100 C 
ATOM     30  C   LIG    1       -2.540   6.396  -4.897  0.00  0.00    +0.100 A 
BRANCH  24  32
ATOM     31  C   LIG    1       -3.175   3.482  -2.759  0.00  0.00    +0.240 C 
ATOM     32  O   LIG    1       -2.484   4.587  -3.344  0.00  0.00    -0.280 OA
ENDBRANCH  24  32
ENDBRANCH  19  30
ENDBRANCH   1  22
TORSDOF 5
