REMARK  Name = ZINCrD0000072TG7.0
REMARK                            x       y       z     vdW  Elec       q    Type
REMARK                         _______ _______ _______ _____ _____    ______ ____
ROOT
ATOM      1  C   LIG    1       -0.648   5.601   1.837  0.00  0.00    -0.160 A 
ATOM      2  C   LIG    1       -1.307   4.852   2.819  0.00  0.00    +0.060 A 
ATOM      3  C   LIG    1       -1.611   3.527   2.586  0.00  0.00    +0.080 A 
ATOM      4  C   LIG    1       -1.262   2.931   1.373  0.00  0.00    +0.160 A 
ATOM      5  C   LIG    1       -0.605   3.663   0.398  0.00  0.00    -0.030 A 
ATOM      6  C   LIG    1       -0.299   4.997   0.618  0.00  0.00    +0.220 A 
ENDROOT
BRANCH   6   7
ATOM      7  N   LIG    1        0.358   5.736  -0.365  0.00  0.00    -0.660 N 
ATOM      8  H   LIG    1        0.073   6.642  -0.562  0.00  0.00    +0.420 HD
ATOM      9  C   LIG    1        1.389   5.191  -1.041  0.00  0.00    +0.550 C 
ATOM     10  O   LIG    1        1.681   4.027  -0.865  0.00  0.00    -0.520 OA
BRANCH   9  11
ATOM     11  C   LIG    1        2.178   6.028  -2.014  0.00  0.00    -0.050 C 
ATOM     12  C   LIG    1        2.047   5.693  -3.502  0.00  0.00    +0.080 C 
ATOM     13  C   LIG    1        3.336   5.352  -2.751  0.00  0.00    +0.050 C 
BRANCH  13  14
ATOM     14  C   LIG    1        4.555   6.187  -3.046  0.00  0.00    -0.090 A 
ATOM     15  C   LIG    1        4.443   7.322  -3.825  0.00  0.00    +0.040 A 
ATOM     16  C   LIG    1        5.561   8.089  -4.096  0.00  0.00    +0.000 A 
ATOM     17  C   LIG    1        6.793   7.720  -3.588  0.00  0.00    +0.040 A 
ATOM     18  C   LIG    1        6.907   6.585  -2.808  0.00  0.00    -0.010 A 
ATOM     19  C   LIG    1        5.787   5.820  -2.531  0.00  0.00    +0.110 A 
ATOM     20  F   LIG    1        5.897   4.713  -1.764  0.00  0.00    -0.130 F 
ENDBRANCH  13  14
ENDBRANCH   9  11
ENDBRANCH   6   7
BRANCH   1  21
ATOM     21  C   LIG    1       -0.322   7.014   2.081  0.00  0.00    +0.520 C 
ATOM     22  O   LIG    1        0.278   7.654   1.240  0.00  0.00    -0.510 OA
BRANCH  21  24
ATOM     23  C   LIG    1       -0.335   8.998   3.411  0.00  0.00    +0.280 C 
ATOM     24  O   LIG    1       -0.690   7.601   3.238  0.00  0.00    -0.350 OA
ENDBRANCH  21  24
ENDBRANCH   1  21
BRANCH   4  25
ATOM     25  O   LIG    1       -1.564   1.626   1.150  0.00  0.00    -0.290 OA
ATOM     26  C   LIG    1       -1.179   1.077  -0.113  0.00  0.00    +0.250 C 
ENDBRANCH   4  25
BRANCH   3  27
ATOM     27  O   LIG    1       -2.251   2.799   3.540  0.00  0.00    -0.300 OA
ATOM     28  C   LIG    1       -2.578   3.472   4.758  0.00  0.00    +0.240 C 
ENDBRANCH   3  27
TORSDOF 7
