REMARK  Name = ZINCqH0000008ql3.0
REMARK                            x       y       z     vdW  Elec       q    Type
REMARK                         _______ _______ _______ _____ _____    ______ ____
ROOT
ATOM      1  N   LIG    1       -2.090   3.027  -5.882  0.00  0.00    -0.720 N 
ATOM      2  H   LIG    1       -1.160   2.757  -5.929  0.00  0.00    +0.400 HD
ATOM      3  C   LIG    1       -2.750   2.967  -4.708  0.00  0.00    +0.560 C 
ATOM      4  O   LIG    1       -3.916   3.307  -4.649  0.00  0.00    -0.530 OA
ENDROOT
BRANCH   3   5
ATOM      5  C   LIG    1       -2.057   2.489  -3.493  0.00  0.00    -0.150 A 
ATOM      6  C   LIG    1       -0.718   2.098  -3.558  0.00  0.00    +0.080 A 
ATOM      7  C   LIG    1       -0.067   1.649  -2.426  0.00  0.00    +0.010 A 
ATOM      8  C   LIG    1       -0.734   1.581  -1.218  0.00  0.00    -0.010 A 
ATOM      9  C   LIG    1       -0.013   1.086   0.008  0.00  0.00    +0.080 C 
ATOM     10  C   LIG    1       -0.721   1.575   1.271  0.00  0.00    +0.270 C 
ATOM     11  O   LIG    1       -2.141   1.278   1.178  0.00  0.00    -0.360 OA
ATOM     12  C   LIG    1       -2.779   1.908   0.159  0.00  0.00    +0.530 C 
ATOM     13  O   LIG    1       -3.881   2.397   0.307  0.00  0.00    -0.440 OA
ATOM     14  C   LIG    1       -2.074   1.973  -1.143  0.00  0.00    -0.180 A 
ATOM     15  C   LIG    1       -2.738   2.425  -2.278  0.00  0.00    +0.160 A 
ENDBRANCH   3   5
BRANCH   1  17
ATOM     16  C   LIG    1       -3.528   2.338  -7.736  0.00  0.00    +0.020 C 
ATOM     17  C   LIG    1       -2.777   3.502  -7.086  0.00  0.00    +0.240 C 
BRANCH  17  18
ATOM     18  C   LIG    1       -1.750   4.060  -8.072  0.00  0.00    -0.060 C 
ATOM     19  C   LIG    1       -0.999   5.224  -7.422  0.00  0.00    +0.020 C 
ATOM     20  C   LIG    1        0.029   5.783  -8.409  0.00  0.00    -0.020 C 
ATOM     21  C   LIG    1        1.022   4.683  -8.788  0.00  0.00    +0.010 C 
ATOM     22  C   LIG    1        0.271   3.519  -9.439  0.00  0.00    -0.020 C 
ATOM     23  C   LIG    1       -0.447   4.014 -10.696  0.00  0.00    +0.010 C 
ATOM     24  C   LIG    1       -1.440   5.114 -10.316  0.00  0.00    -0.020 C 
ATOM     25  C   LIG    1       -0.689   6.278  -9.666  0.00  0.00    +0.010 C 
ATOM     26  C   LIG    1       -0.756   2.960  -8.452  0.00  0.00    +0.030 C 
ATOM     27  C   LIG    1       -2.467   4.556  -9.330  0.00  0.00    +0.040 C 
ENDBRANCH  17  18
ENDBRANCH   1  17
TORSDOF 3
