REMARK  Name = ZINCrg000000sYcO.0
REMARK                            x       y       z     vdW  Elec       q    Type
REMARK                         _______ _______ _______ _____ _____    ______ ____
ROOT
ATOM      1  N   LIG    1       -3.784   5.362  -1.477  0.00  0.00    -0.490 N 
ATOM      2  C   LIG    1       -4.670   4.958  -2.576  0.00  0.00    +0.190 C 
ATOM      3  C   LIG    1       -6.080   4.714  -2.028  0.00  0.00    +0.310 C 
ATOM      4  N   LIG    1       -6.509   5.913  -1.292  0.00  0.00    -0.600 N 
ATOM      5  C   LIG    1       -5.607   6.460  -0.266  0.00  0.00    +0.320 C 
ATOM      6  C   LIG    1       -7.696   6.497  -1.551  0.00  0.00    +0.600 C 
ATOM      7  O   LIG    1       -8.067   7.441  -0.883  0.00  0.00    -0.500 OA
ATOM      8  C   LIG    1       -4.216   6.635  -0.884  0.00  0.00    +0.190 C 
ENDROOT
BRANCH   6   9
ATOM      9  C   LIG    1       -8.549   5.985  -2.653  0.00  0.00    +0.220 A 
ATOM     10  N   LIG    1       -9.145   6.845  -3.459  0.00  0.00    -0.400 NA
ATOM     11  C   LIG    1       -9.908   6.381  -4.452  0.00  0.00    +0.140 A 
ATOM     12  C   LIG    1      -10.565   7.241  -5.347  0.00  0.00    +0.060 A 
ATOM     13  C   LIG    1      -11.335   6.717  -6.340  0.00  0.00    +0.080 A 
ATOM     14  C   LIG    1      -11.484   5.338  -6.482  0.00  0.00    +0.060 A 
ATOM     15  C   LIG    1      -10.862   4.473  -5.633  0.00  0.00    +0.080 A 
ATOM     16  C   LIG    1      -10.059   4.974  -4.597  0.00  0.00    +0.020 A 
ATOM     17  N   LIG    1       -9.429   4.164  -3.739  0.00  0.00    -0.140 NA
ATOM     18  N   LIG    1       -8.701   4.667  -2.801  0.00  0.00    -0.230 NA
ENDBRANCH   6   9
BRANCH   1  22
ATOM     19  C   LIG    1        0.172   5.579  -2.753  0.00  0.00    -0.170 A 
ATOM     20  C   LIG    1       -0.432   6.688  -2.152  0.00  0.00    +0.080 A 
ATOM     21  C   LIG    1       -1.742   6.614  -1.736  0.00  0.00    -0.040 A 
ATOM     22  C   LIG    1       -2.462   5.434  -1.903  0.00  0.00    +0.140 A 
ATOM     23  C   LIG    1       -1.861   4.327  -2.495  0.00  0.00    -0.010 A 
ATOM     24  C   LIG    1       -0.554   4.396  -2.918  0.00  0.00    +0.110 A 
BRANCH  19  28
ATOM     25  N   LIG    1        2.270   6.799  -3.049  0.00  0.00    -0.850 N 
ATOM     26  H   LIG    1        1.851   7.570  -2.636  0.00  0.00    +0.400 HD
ATOM     27  H   LIG    1        3.191   6.851  -3.350  0.00  0.00    +0.410 HD
ATOM     28  C   LIG    1        1.574   5.656  -3.205  0.00  0.00    +0.560 C 
ATOM     29  O   LIG    1        2.099   4.690  -3.723  0.00  0.00    -0.540 OA
ENDBRANCH  19  28
ENDBRANCH   1  22
TORSDOF 3
