REMARK  Name = ZINCqH0000000q8W.0
REMARK                            x       y       z     vdW  Elec       q    Type
REMARK                         _______ _______ _______ _____ _____    ______ ____
ROOT
ATOM      1  C   LIG    1       -1.310   3.980  -7.818  0.00  0.00    +0.130 A 
ATOM      2  C   LIG    1       -2.601   3.851  -7.464  0.00  0.00    -0.110 A 
ATOM      3  S   LIG    1       -2.661   3.257  -5.806  0.00  0.00    +0.210 S 
ATOM      4  C   LIG    1       -0.901   3.249  -5.745  0.00  0.00    +0.280 A 
ATOM      5  N   LIG    1       -0.429   3.653  -6.883  0.00  0.00    -0.500 NA
ENDROOT
BRANCH   1   9
ATOM      6  C   LIG    1       -0.135   5.345 -11.670  0.00  0.00    -0.080 A 
ATOM      7  C   LIG    1        0.828   5.017 -10.732  0.00  0.00    +0.020 A 
ATOM      8  C   LIG    1        0.452   4.574  -9.480  0.00  0.00    +0.050 A 
ATOM      9  C   LIG    1       -0.900   4.456  -9.162  0.00  0.00    -0.020 A 
ATOM     10  C   LIG    1       -1.865   4.783 -10.113  0.00  0.00    +0.030 A 
ATOM     11  C   LIG    1       -1.478   5.231 -11.359  0.00  0.00    +0.020 A 
BRANCH   6  12
ATOM     12  C   LIG    1        0.282   5.828 -13.035  0.00  0.00    +0.070 C 
BRANCH  12  13
ATOM     13  C   LIG    1        0.428   4.632 -13.977  0.00  0.00    +0.260 C 
BRANCH  13  16
ATOM     14  C   LIG    1        1.439   4.701 -17.669  0.00  0.00    +0.110 C 
ATOM     15  C   LIG    1        1.023   4.217 -16.303  0.00  0.00    +0.510 C 
ATOM     16  N   LIG    1        0.833   5.102 -15.304  0.00  0.00    -0.730 N 
ATOM     17  H   LIG    1        0.964   6.049 -15.464  0.00  0.00    +0.400 HD
ATOM     18  O   LIG    1        0.858   3.032 -16.104  0.00  0.00    -0.550 OA
ENDBRANCH  13  16
ENDBRANCH  12  13
ENDBRANCH   6  12
ENDBRANCH   1   9
BRANCH   4  19
ATOM     19  N   LIG    1       -0.137   2.865  -4.650  0.00  0.00    -0.620 N 
ATOM     20  H   LIG    1        0.831   2.886  -4.702  0.00  0.00    +0.430 HD
ATOM     21  C   LIG    1       -0.742   2.462  -3.514  0.00  0.00    +0.510 C 
ATOM     22  O   LIG    1       -1.952   2.435  -3.449  0.00  0.00    -0.500 OA
BRANCH  21  23
ATOM     23  C   LIG    1        0.087   2.045  -2.327  0.00  0.00    +0.100 C 
BRANCH  23  24
ATOM     24  C   LIG    1       -0.838   1.636  -1.178  0.00  0.00    +0.040 C 
ATOM     25  C   LIG    1       -1.552   2.846  -0.621  0.00  0.00    -0.040 C 
ATOM     26  C   LIG    1       -1.540   2.839   0.684  0.00  0.00    -0.050 C 
ATOM     27  C   LIG    1       -0.815   1.623   1.216  0.00  0.00    +0.050 C 
ATOM     28  C   LIG    1       -0.013   1.086   0.008  0.00  0.00    +0.030 C 
ENDBRANCH  23  24
ENDBRANCH  21  23
ENDBRANCH   4  19
TORSDOF 7
