REMARK  Name = ZINCqH0000005gA4.0
REMARK                            x       y       z     vdW  Elec       q    Type
REMARK                         _______ _______ _______ _____ _____    ______ ____
ROOT
ATOM      1  C   LIG    1       -2.606   2.263  -3.421  0.00  0.00    +0.270 C 
ATOM      2  N   LIG    1       -3.415   1.269  -2.712  0.00  0.00    -0.620 N 
ATOM      3  C   LIG    1       -3.249   1.086  -1.387  0.00  0.00    +0.520 C 
ATOM      4  O   LIG    1       -3.920   0.263  -0.800  0.00  0.00    -0.510 OA
ENDROOT
BRANCH   3   5
ATOM      5  C   LIG    1       -2.231   1.904  -0.635  0.00  0.00    +0.130 C 
ATOM      6  C   LIG    1       -0.822   1.629  -1.192  0.00  0.00    +0.040 C 
ATOM      7  C   LIG    1       -0.013   1.086   0.008  0.00  0.00    +0.040 C 
ATOM      8  C   LIG    1       -0.801   1.617   1.232  0.00  0.00    +0.180 C 
ATOM      9  N   LIG    1       -2.220   1.507   0.790  0.00  0.00    -0.490 NA
BRANCH   9  10
ATOM     10  C   LIG    1       -3.088   2.384   1.587  0.00  0.00    +0.230 C 
BRANCH  10  11
ATOM     11  C   LIG    1       -2.865   2.113   3.053  0.00  0.00    -0.090 A 
ATOM     12  C   LIG    1       -3.628   1.161   3.703  0.00  0.00    +0.080 A 
ATOM     13  C   LIG    1       -3.421   0.908   5.046  0.00  0.00    -0.010 A 
ATOM     14  C   LIG    1       -2.456   1.616   5.742  0.00  0.00    +0.100 A 
ATOM     15  C   LIG    1       -1.696   2.573   5.091  0.00  0.00    -0.020 A 
ATOM     16  F   LIG    1       -2.256   1.373   7.056  0.00  0.00    -0.140 F 
ATOM     17  C   LIG    1       -1.902   2.821   3.748  0.00  0.00    +0.050 A 
ENDBRANCH  10  11
ENDBRANCH   9  10
ENDBRANCH   3   5
BRANCH   2  18
ATOM     18  C   LIG    1       -4.405   0.474  -3.443  0.00  0.00    +0.350 C 
BRANCH  18  19
ATOM     19  C   LIG    1       -5.731   1.190  -3.434  0.00  0.00    -0.090 A 
ATOM     20  C   LIG    1       -6.041   2.081  -4.444  0.00  0.00    +0.050 A 
ATOM     21  C   LIG    1       -7.257   2.740  -4.438  0.00  0.00    +0.020 A 
ATOM     22  C   LIG    1       -8.165   2.506  -3.420  0.00  0.00    +0.070 A 
ATOM     23  C   LIG    1       -7.853   1.612  -2.406  0.00  0.00    +0.070 A 
ATOM     24  F   LIG    1       -8.738   1.382  -1.411  0.00  0.00    -0.130 F 
ATOM     25  F   LIG    1       -9.353   3.150  -3.412  0.00  0.00    -0.130 F 
ATOM     26  C   LIG    1       -6.638   0.951  -2.418  0.00  0.00    +0.050 A 
ENDBRANCH  18  19
ENDBRANCH   2  18
TORSDOF 5
