REMARK  Name = ZINCrH000004spwq.0
REMARK                            x       y       z     vdW  Elec       q    Type
REMARK                         _______ _______ _______ _____ _____    ______ ____
ROOT
ATOM      1  C   LIG    1        5.154  -1.817  -1.659  0.00  0.00    +0.620 C 
ATOM      2  N   LIG    1        4.019  -1.137  -1.402  0.00  0.00    -0.700 N 
ATOM      3  H   LIG    1        3.399  -0.940  -2.122  0.00  0.00    +0.410 HD
ATOM      4  O   LIG    1        5.931  -2.064  -0.757  0.00  0.00    -0.510 OA
ENDROOT
BRANCH   1   8
ATOM      5  C   LIG    1        4.806  -2.614  -6.567  0.00  0.00    +0.210 C 
ATOM      6  C   LIG    1        5.296  -2.597  -5.142  0.00  0.00    +0.230 A 
ATOM      7  N   LIG    1        4.682  -2.058  -4.119  0.00  0.00    -0.480 NA
ATOM      8  C   LIG    1        5.455  -2.260  -3.037  0.00  0.00    +0.150 A 
ATOM      9  N   LIG    1        6.522  -2.927  -3.419  0.00  0.00    -0.250 NA
ATOM     10  N   LIG    1        6.444  -3.140  -4.688  0.00  0.00    -0.250 N 
BRANCH  10  11
ATOM     11  C   LIG    1        7.392  -3.821  -5.464  0.00  0.00    +0.120 A 
ATOM     12  C   LIG    1        6.980  -4.613  -6.527  0.00  0.00    +0.050 A 
ATOM     13  C   LIG    1        7.917  -5.278  -7.294  0.00  0.00    +0.060 A 
ATOM     14  C   LIG    1        9.263  -5.165  -6.997  0.00  0.00    -0.030 A 
ATOM     15  C   LIG    1        9.676  -4.380  -5.934  0.00  0.00    +0.060 A 
ATOM     16 CL   LIG    1       10.437  -6.008  -7.959  0.00  0.00    -0.050 Cl
ATOM     17  C   LIG    1        8.744  -3.708  -5.168  0.00  0.00    +0.070 A 
ENDBRANCH  10  11
ENDBRANCH   1   8
BRANCH   2  18
ATOM     18  C   LIG    1        3.721  -0.698  -0.037  0.00  0.00    +0.340 C 
BRANCH  18  19
ATOM     19  C   LIG    1        2.403   0.034  -0.021  0.00  0.00    -0.130 A 
ATOM     20  C   LIG    1        2.379   1.415  -0.013  0.00  0.00    +0.080 A 
ATOM     21  C   LIG    1        1.170   2.086   0.002  0.00  0.00    -0.010 A 
ATOM     22  C   LIG    1       -0.017   1.377   0.010  0.00  0.00    +0.060 A 
ATOM     23  C   LIG    1        0.002  -0.004   0.002  0.00  0.00    -0.050 A 
ATOM     24  C   LIG    1        1.213  -0.680  -0.013  0.00  0.00    +0.120 A 
BRANCH  24  25
ATOM     25  O   LIG    1        1.234  -2.039  -0.020  0.00  0.00    -0.320 OA
BRANCH  25  26
ATOM     26  C   LIG    1       -0.029  -2.707  -0.011  0.00  0.00    +0.590 C 
ATOM     27  F   LIG    1       -0.760  -2.337  -1.145  0.00  0.00    -0.200 F 
ATOM     28  F   LIG    1       -0.738  -2.348   1.140  0.00  0.00    -0.200 F 
ENDBRANCH  25  26
ENDBRANCH  24  25
ENDBRANCH  18  19
ENDBRANCH   2  18
TORSDOF 6
