REMARK  Name = ZINCrD0000074BKk.0
REMARK                            x       y       z     vdW  Elec       q    Type
REMARK                         _______ _______ _______ _____ _____    ______ ____
ROOT
ATOM      1  C   LIG    1       -0.568   0.997   0.602  0.00  0.00    +0.570 C 
ATOM      2  N   LIG    1       -0.512  -0.345   0.488  0.00  0.00    -0.610 N 
ATOM      3  C   LIG    1       -1.697  -1.111   0.078  0.00  0.00    +0.270 C 
ATOM      4  C   LIG    1       -1.327  -1.959  -1.150  0.00  0.00    +0.300 C 
ATOM      5  N   LIG    1       -0.081  -2.683  -0.861  0.00  0.00    -0.630 N 
ATOM      6  C   LIG    1        1.103  -1.917  -0.446  0.00  0.00    +0.250 C 
ATOM      7  C   LIG    1       -0.025  -4.024  -0.975  0.00  0.00    +0.710 C 
ATOM      8  N   LIG    1        1.167  -4.653  -0.959  0.00  0.00    -0.630 N 
ATOM      9  C   LIG    1        2.401  -3.889  -1.161  0.00  0.00    +0.290 C 
ATOM     10  O   LIG    1       -1.050  -4.668  -1.092  0.00  0.00    -0.580 OA
ATOM     11  C   LIG    1        0.734  -1.069   0.777  0.00  0.00    +0.280 C 
ATOM     12  O   LIG    1        0.393   1.612   1.020  0.00  0.00    -0.530 OA
ENDROOT
BRANCH   1  18
ATOM     13  C   LIG    1       -5.440   1.882   1.222  0.00  0.00    +0.090 C 
ATOM     14  C   LIG    1       -4.141   2.151   0.506  0.00  0.00    -0.090 A 
ATOM     15  C   LIG    1       -4.097   3.077  -0.520  0.00  0.00    +0.030 A 
ATOM     16  C   LIG    1       -2.909   3.330  -1.183  0.00  0.00    +0.010 A 
ATOM     17  C   LIG    1       -1.759   2.658  -0.823  0.00  0.00    -0.040 A 
ATOM     18  C   LIG    1       -1.796   1.721   0.211  0.00  0.00    -0.130 A 
ATOM     19  C   LIG    1       -0.466   2.933  -1.546  0.00  0.00    +0.090 C 
ATOM     20  C   LIG    1       -2.999   1.468   0.872  0.00  0.00    +0.040 A 
ENDBRANCH   1  18
BRANCH   8  21
ATOM     21  C   LIG    1        1.230  -6.100  -0.739  0.00  0.00    +0.360 C 
BRANCH  21  22
ATOM     22  C   LIG    1        1.156  -6.813  -2.064  0.00  0.00    -0.110 A 
ATOM     23  C   LIG    1       -0.071  -7.183  -2.582  0.00  0.00    +0.040 A 
ATOM     24  C   LIG    1       -0.140  -7.833  -3.800  0.00  0.00    -0.010 A 
ATOM     25  C   LIG    1        1.020  -8.122  -4.496  0.00  0.00    +0.000 A 
ATOM     26  C   LIG    1        2.247  -7.756  -3.975  0.00  0.00    -0.010 A 
ATOM     27  C   LIG    1        2.315  -7.102  -2.760  0.00  0.00    +0.010 A 
ENDBRANCH  21  22
ENDBRANCH   8  21
TORSDOF 3
