REMARK  Name = ZINCvU000000099a.0
REMARK                            x       y       z     vdW  Elec       q    Type
REMARK                         _______ _______ _______ _____ _____    ______ ____
ROOT
ATOM      1  S   LIG    1       -0.988   1.509  -1.451  0.00  0.00    +0.060 S 
ENDROOT
BRANCH   1   2
ATOM      2  C   LIG    1        0.083   0.921  -2.721  0.00  0.00    +0.190 A 
ATOM      3  N   LIG    1        1.240   0.323  -2.549  0.00  0.00    -0.280 NA
ATOM      4  N   LIG    1        1.756   0.025  -3.688  0.00  0.00    -0.230 NA
ATOM      5  C   LIG    1        0.960   0.414  -4.656  0.00  0.00    +0.180 A 
ATOM      6  N   LIG    1       -0.139   0.995  -4.066  0.00  0.00    -0.300 N 
BRANCH   5   7
ATOM      7  C   LIG    1        1.197   0.254  -6.106  0.00  0.00    -0.000 A 
ATOM      8  C   LIG    1        1.000   1.330  -6.972  0.00  0.00    +0.050 A 
ATOM      9  C   LIG    1        1.223   1.173  -8.326  0.00  0.00    -0.030 A 
ATOM     10  C   LIG    1        1.642  -0.049  -8.825  0.00  0.00    +0.070 A 
ATOM     11  C   LIG    1        1.839  -1.120  -7.972  0.00  0.00    +0.070 A 
ATOM     12 CL   LIG    1        0.979   2.511  -9.404  0.00  0.00    -0.050 Cl
ATOM     13  C   LIG    1        1.625  -0.975  -6.615  0.00  0.00    +0.000 A 
ATOM     14 CL   LIG    1        1.879  -2.319  -5.546  0.00  0.00    -0.030 Cl
ENDBRANCH   5   7
BRANCH   6  15
ATOM     15  N   LIG    1       -1.224   1.536  -4.696  0.00  0.00    -0.580 N 
ATOM     16  H   LIG    1       -1.492   0.982  -5.495  0.00  0.00    +0.380 HD
ATOM     17  H   LIG    1       -1.047   2.493  -4.963  0.00  0.00    +0.370 HD
ENDBRANCH   6  15
ENDBRANCH   1   2
BRANCH   1  18
ATOM     18  C   LIG    1       -0.026   1.047   0.011  0.00  0.00    +0.200 C 
BRANCH  18  21
ATOM     19  C   LIG    1       -1.291   2.903   2.877  0.00  0.00    +0.130 A 
ATOM     20  N   LIG    1       -0.596   2.643   1.807  0.00  0.00    -0.450 NA
ATOM     21  C   LIG    1       -0.769   1.464   1.254  0.00  0.00    +0.080 A 
ATOM     22  C   LIG    1       -1.641   0.656   1.865  0.00  0.00    -0.040 A 
ATOM     23  S   LIG    1       -2.290   1.505   3.267  0.00  0.00    +0.110 S 
BRANCH  19  27
ATOM     24  C   LIG    1       -1.159   6.538   5.079  0.00  0.00    +0.120 A 
ATOM     25  C   LIG    1       -0.371   6.383   3.948  0.00  0.00    -0.040 A 
ATOM     26  C   LIG    1       -0.412   5.205   3.232  0.00  0.00    +0.080 A 
ATOM     27  C   LIG    1       -1.247   4.166   3.644  0.00  0.00    -0.030 A 
ATOM     28  C   LIG    1       -2.044   4.324   4.779  0.00  0.00    -0.010 A 
ATOM     29  C   LIG    1       -1.995   5.504   5.496  0.00  0.00    +0.100 A 
BRANCH  24  31
ATOM     30  C   LIG    1       -0.236   8.718   5.299  0.00  0.00    +0.240 C 
ATOM     31  O   LIG    1       -1.115   7.700   5.782  0.00  0.00    -0.300 OA
ENDBRANCH  24  31
BRANCH  29  32
ATOM     32  O   LIG    1       -2.766   5.659   6.606  0.00  0.00    -0.300 OA
ATOM     33  C   LIG    1       -3.599   4.558   6.975  0.00  0.00    +0.240 C 
ENDBRANCH  29  32
ENDBRANCH  19  27
ENDBRANCH  18  21
ENDBRANCH   1  18
TORSDOF 8
