REMARK  Name = ZINCqH0000008Dd3.0
REMARK                            x       y       z     vdW  Elec       q    Type
REMARK                         _______ _______ _______ _____ _____    ______ ____
ROOT
ATOM      1  C   LIG    1       -1.701  -1.930  -0.022  0.00  0.00    +0.030 C 
ATOM      2  C   LIG    1       -1.659  -0.775   0.981  0.00  0.00    -0.020 C 
ATOM      3  C   LIG    1       -0.912  -1.220   2.240  0.00  0.00    +0.020 C 
ATOM      4  C   LIG    1       -0.843  -0.051   3.228  0.00  0.00    +0.280 C 
ATOM      5  N   LIG    1       -2.205   0.440   3.476  0.00  0.00    -0.580 N 
ATOM      6  C   LIG    1       -3.043   0.810   2.327  0.00  0.00    +0.250 C 
ATOM      7  C   LIG    1       -2.677   0.550   4.734  0.00  0.00    +0.600 C 
ATOM      8  O   LIG    1       -3.782   1.019   4.930  0.00  0.00    -0.520 OA
ATOM      9  C   LIG    1       -3.088  -0.369   1.350  0.00  0.00    +0.040 C 
ENDROOT
BRANCH   6  10
ATOM     10  C   LIG    1       -2.453   2.014   1.639  0.00  0.00    +0.510 C 
ATOM     11  O   LIG    1       -1.287   2.300   1.810  0.00  0.00    -0.530 OA
ATOM     12  N   LIG    1       -3.222   2.774   0.835  0.00  0.00    -0.850 N 
ATOM     13  H   LIG    1       -2.843   3.549   0.392  0.00  0.00    +0.410 HD
ATOM     14  H   LIG    1       -4.155   2.546   0.698  0.00  0.00    +0.400 HD
ENDBRANCH   6  10
BRANCH   7  15
ATOM     15  C   LIG    1       -1.858   0.102   5.866  0.00  0.00    -0.250 A 
ATOM     16  C   LIG    1       -2.305  -0.661   6.908  0.00  0.00    +0.100 A 
ATOM     17  C   LIG    1       -1.358  -0.955   7.849  0.00  0.00    +0.050 A 
ATOM     18  C   LIG    1       -0.119  -0.438   7.596  0.00  0.00    -0.140 A 
ATOM     19  S   LIG    1       -0.150   0.461   6.085  0.00  0.00    +0.270 S 
BRANCH  18  20
ATOM     20  C   LIG    1        1.064  -0.612   8.454  0.00  0.00    +0.180 A 
ATOM     21  N   LIG    1        2.234  -0.119   8.209  0.00  0.00    -0.460 NA
ATOM     22  C   LIG    1        3.215  -0.363   9.085  0.00  0.00    +0.090 A 
ATOM     23  C   LIG    1        4.563   0.059   9.042  0.00  0.00    +0.080 A 
ATOM     24  C   LIG    1        5.428  -0.289  10.034  0.00  0.00    +0.030 A 
ATOM     25  C   LIG    1        5.006  -1.064  11.106  0.00  0.00    +0.050 A 
ATOM     26  C   LIG    1        3.699  -1.490  11.175  0.00  0.00    +0.060 A 
ATOM     27  C   LIG    1        2.798  -1.144  10.170  0.00  0.00    -0.170 A 
ATOM     28  S   LIG    1        1.087  -1.512   9.964  0.00  0.00    +0.100 S 
ENDBRANCH  18  20
ENDBRANCH   7  15
TORSDOF 3
