REMARK  Name = ZINCrD000001YK20.0
REMARK                            x       y       z     vdW  Elec       q    Type
REMARK                         _______ _______ _______ _____ _____    ______ ____
ROOT
ATOM      1  C   LIG    1        0.146  -0.191   2.812  0.00  0.00    +0.540 C 
ATOM      2  N   LIG    1       -0.032   1.101   2.473  0.00  0.00    -0.610 N 
ATOM      3  C   LIG    1        0.449   2.265   3.240  0.00  0.00    +0.260 C 
ATOM      4  C   LIG    1       -0.489   3.426   2.827  0.00  0.00    +0.040 C 
ATOM      5  C   LIG    1       -0.714   3.126   1.322  0.00  0.00    +0.030 C 
ATOM      6  C   LIG    1       -0.738   1.584   1.277  0.00  0.00    +0.170 C 
ATOM      7  C   LIG    1       -2.184   1.082   1.288  0.00  0.00    +0.040 C 
ATOM      8  O   LIG    1       -0.296  -1.071   2.103  0.00  0.00    -0.530 OA
ENDROOT
BRANCH   1  14
ATOM      9  C   LIG    1        3.703   0.438   5.970  0.00  0.00    +0.550 C 
ATOM     10  N   LIG    1        3.070  -0.443   5.171  0.00  0.00    -0.610 N 
ATOM     11  C   LIG    1        3.119  -1.884   5.457  0.00  0.00    +0.260 C 
ATOM     12  C   LIG    1        1.686  -2.424   5.516  0.00  0.00    +0.010 C 
ATOM     13  C   LIG    1        0.956  -2.065   4.220  0.00  0.00    +0.050 C 
ATOM     14  C   LIG    1        0.893  -0.543   4.072  0.00  0.00    -0.020 C 
ATOM     15  C   LIG    1        2.316   0.018   3.997  0.00  0.00    +0.290 C 
ATOM     16  O   LIG    1        3.733   1.616   5.672  0.00  0.00    -0.540 OA
BRANCH   9  18
ATOM     17  C   LIG    1        4.894   0.855   8.043  0.00  0.00    +0.140 C 
ATOM     18  C   LIG    1        4.358  -0.026   7.202  0.00  0.00    -0.090 C 
ENDBRANCH   9  18
ENDBRANCH   1  14
BRANCH   6  19
ATOM     19  C   LIG    1       -0.026   1.089   0.017  0.00  0.00    +0.090 C 
BRANCH  19  20
ATOM     20  C   LIG    1       -0.757   1.588  -1.203  0.00  0.00    -0.080 A 
ATOM     21  C   LIG    1       -1.695   0.786  -1.823  0.00  0.00    +0.030 A 
ATOM     22  C   LIG    1       -2.371   1.247  -2.940  0.00  0.00    +0.090 A 
ATOM     23  C   LIG    1       -2.098   2.508  -3.442  0.00  0.00    +0.020 A 
ATOM     24  C   LIG    1       -1.155   3.308  -2.825  0.00  0.00    +0.030 A 
ATOM     25  F   LIG    1       -3.292   0.465  -3.543  0.00  0.00    -0.130 F 
ATOM     26  C   LIG    1       -0.484   2.850  -1.705  0.00  0.00    +0.090 A 
ATOM     27  F   LIG    1        0.437   3.632  -1.102  0.00  0.00    -0.130 F 
ENDBRANCH  19  20
ENDBRANCH   6  19
TORSDOF 4
