REMARK  Name = ZINCrH00000tj0FJ.0
REMARK                            x       y       z     vdW  Elec       q    Type
REMARK                         _______ _______ _______ _____ _____    ______ ____
ROOT
ATOM      1  C   LIG    1       -3.188   1.773  -2.418  0.00  0.00    +0.060 C 
ATOM      2  C   LIG    1       -2.570   0.794  -1.417  0.00  0.00    +0.320 C 
ATOM      3  C   LIG    1       -3.448   0.704  -0.174  0.00  0.00    -0.120 A 
ATOM      4  C   LIG    1       -2.952   0.810   1.073  0.00  0.00    -0.180 A 
ATOM      5  S   LIG    1       -4.252   0.649   2.247  0.00  0.00    +0.100 S 
ATOM      6  C   LIG    1       -5.434   0.447   0.963  0.00  0.00    -0.040 A 
ATOM      7  C   LIG    1       -1.492   1.039   1.418  0.00  0.00    +0.110 C 
ATOM      8  C   LIG    1       -0.634   0.685   0.199  0.00  0.00    +0.290 C 
ATOM      9  C   LIG    1       -4.824   0.506  -0.217  0.00  0.00    +0.020 A 
ATOM     10  N   LIG    1       -1.247   1.280  -0.999  0.00  0.00    -0.630 N 
ATOM     11  C   LIG    1       -0.613   2.245  -1.694  0.00  0.00    +0.710 C 
ATOM     12  N   LIG    1        0.545   2.757  -1.232  0.00  0.00    -0.750 N 
ATOM     13  H   LIG    1        0.959   2.383  -0.439  0.00  0.00    +0.390 HD
ATOM     14  O   LIG    1       -1.085   2.653  -2.737  0.00  0.00    -0.570 OA
ENDROOT
BRANCH  12  15
ATOM     15  C   LIG    1        1.178   3.880  -1.928  0.00  0.00    +0.310 C 
BRANCH  15  16
ATOM     16  C   LIG    1        2.470   4.266  -1.204  0.00  0.00    +0.060 C 
BRANCH  16  17
ATOM     17  C   LIG    1        3.121   5.421  -1.921  0.00  0.00    +0.520 C 
ATOM     18  N   LIG    1        4.329   5.866  -1.522  0.00  0.00    -0.550 N 
ATOM     19  C   LIG    1        4.963   5.325  -0.311  0.00  0.00    +0.270 C 
ATOM     20  C   LIG    1        5.527   6.506   0.489  0.00  0.00    +0.020 C 
ATOM     21  C   LIG    1        6.612   7.192  -0.341  0.00  0.00    +0.080 C 
ATOM     22  C   LIG    1        6.099   7.511  -1.720  0.00  0.00    -0.120 A 
ATOM     23  C   LIG    1        6.742   8.485  -2.465  0.00  0.00    +0.020 A 
ATOM     24  C   LIG    1        6.304   8.786  -3.745  0.00  0.00    -0.020 A 
ATOM     25  C   LIG    1        5.213   8.127  -4.279  0.00  0.00    +0.030 A 
ATOM     26  C   LIG    1        4.563   7.159  -3.539  0.00  0.00    +0.020 A 
ATOM     27  C   LIG    1        5.005   6.848  -2.258  0.00  0.00    +0.150 A 
ATOM     28  O   LIG    1        2.558   5.949  -2.856  0.00  0.00    -0.510 OA
ENDBRANCH  16  17
ENDBRANCH  15  16
ENDBRANCH  12  15
TORSDOF 3
