REMARK  Name = ZINCqH00000331Fh.1
REMARK                            x       y       z     vdW  Elec       q    Type
REMARK                         _______ _______ _______ _____ _____    ______ ____
ROOT
ATOM      1  N   LIG    1       -3.127   5.123  -1.462  0.00  0.00    -1.060 N 
ATOM      2  H   LIG    1       -2.331   5.671  -1.554  0.00  0.00    +0.430 HD
ENDROOT
BRANCH   1   6
ATOM      3  C   LIG    1       -3.862   2.059  -4.174  0.00  0.00    -0.110 A 
ATOM      4  C   LIG    1       -4.606   3.243  -4.234  0.00  0.00    +0.110 A 
ATOM      5  C   LIG    1       -4.361   4.251  -3.338  0.00  0.00    +0.040 A 
ATOM      6  C   LIG    1       -3.373   4.098  -2.369  0.00  0.00    +0.150 A 
ATOM      7  C   LIG    1       -2.627   2.924  -2.310  0.00  0.00    +0.010 A 
ATOM      8  C   LIG    1       -2.871   1.909  -3.199  0.00  0.00    +0.100 A 
BRANCH   3   9
ATOM      9  C   LIG    1       -4.123   0.974  -5.136  0.00  0.00    +0.510 C 
ATOM     10  O   LIG    1       -4.985   1.106  -5.982  0.00  0.00    -0.500 OA
BRANCH   9  11
ATOM     11  O   LIG    1       -3.406  -0.166  -5.076  0.00  0.00    -0.350 OA
BRANCH  11  12
ATOM     12  C   LIG    1       -3.716  -1.192  -6.055  0.00  0.00    +0.210 C 
BRANCH  12  14
ATOM     13  C   LIG    1       -3.134  -3.483  -6.864  0.00  0.00    +0.040 C 
ATOM     14  C   LIG    1       -2.806  -2.402  -5.832  0.00  0.00    +0.020 C 
ENDBRANCH  12  14
ENDBRANCH  11  12
ENDBRANCH   9  11
ENDBRANCH   3   9
ENDBRANCH   1   6
BRANCH   1  15
ATOM     15  S   LIG    1       -4.191   5.408  -0.226  0.00  0.00    +2.690 S 
ATOM     16  O   LIG    1       -3.628   6.454   0.554  0.00  0.00    -0.930 OA
ATOM     17  O   LIG    1       -5.481   5.487  -0.817  0.00  0.00    -0.930 OA
BRANCH  15  18
ATOM     18  C   LIG    1       -4.199   3.973   0.796  0.00  0.00    -0.640 A 
ATOM     19  C   LIG    1       -3.244   3.823   1.785  0.00  0.00    +0.170 A 
ATOM     20  C   LIG    1       -3.251   2.698   2.588  0.00  0.00    +0.100 A 
ATOM     21  C   LIG    1       -4.211   1.722   2.402  0.00  0.00    +0.030 A 
ATOM     22  C   LIG    1       -5.167   1.871   1.413  0.00  0.00    -0.070 A 
ATOM     23 BR   LIG    1       -6.481   0.536   1.158  0.00  0.00    +0.040 Br
ATOM     24  C   LIG    1       -5.157   2.995   0.606  0.00  0.00    +0.180 A 
BRANCH  21  25
ATOM     25  N   LIG    1       -4.217   0.516   3.261  0.00  0.00    +0.010 N 
ATOM     26  O   LIG    1       -5.064  -0.344   3.097  0.00  0.00    -0.110 OA
ATOM     27  O   LIG    1       -3.376   0.385   4.132  0.00  0.00    -0.140 OA
ENDBRANCH  21  25
ENDBRANCH  15  18
ENDBRANCH   1  15
TORSDOF 8
