REMARK  Name = ZINCrD00000F5LsH.0
REMARK                            x       y       z     vdW  Elec       q    Type
REMARK                         _______ _______ _______ _____ _____    ______ ____
ROOT
ATOM      1  C   LIG    1       -2.240  -4.845  -0.303  0.00  0.00    +0.450 C 
ATOM      2  O   LIG    1       -3.131  -4.427   0.407  0.00  0.00    -0.460 OA
ENDROOT
BRANCH   1   6
ATOM      3  C   LIG    1        2.624  -3.701  -1.302  0.00  0.00    +0.120 C 
ATOM      4  C   LIG    1        1.224  -3.705  -0.742  0.00  0.00    +0.000 A 
ATOM      5  C   LIG    1        0.254  -4.571  -1.079  0.00  0.00    +0.000 A 
ATOM      6  C   LIG    1       -0.927  -4.197  -0.289  0.00  0.00    -0.270 A 
ATOM      7  C   LIG    1       -0.541  -3.112   0.476  0.00  0.00    +0.140 A 
ATOM      8  C   LIG    1       -1.410  -2.370   1.459  0.00  0.00    +0.150 C 
ATOM      9  N   LIG    1        0.742  -2.831   0.188  0.00  0.00    -0.430 N 
BRANCH   9  10
ATOM     10  C   LIG    1        1.514  -1.742   0.791  0.00  0.00    +0.310 C 
BRANCH  10  11
ATOM     11  C   LIG    1        1.358  -0.476  -0.054  0.00  0.00    +0.150 C 
ATOM     12  C   LIG    1        2.211   0.674   0.537  0.00  0.00    +0.020 C 
ATOM     13  C   LIG    1        1.448   1.915  -0.002  0.00  0.00    +0.020 C 
ATOM     14  C   LIG    1       -0.017   1.428   0.010  0.00  0.00    +0.190 C 
ATOM     15  O   LIG    1        0.002  -0.004   0.002  0.00  0.00    -0.370 OA
ENDBRANCH  10  11
ENDBRANCH   9  10
ENDBRANCH   1   6
BRANCH   1  16
ATOM     16  C   LIG    1       -2.486  -6.030  -1.201  0.00  0.00    +0.090 C 
BRANCH  16  17
ATOM     17  S   LIG    1       -4.195  -6.602  -0.993  0.00  0.00    +0.090 S 
BRANCH  17  18
ATOM     18  C   LIG    1       -4.293  -7.968  -2.102  0.00  0.00    +0.180 A 
ATOM     19  N   LIG    1       -3.327  -8.415  -2.875  0.00  0.00    -0.260 NA
ATOM     20  N   LIG    1       -3.733  -9.429  -3.556  0.00  0.00    -0.230 NA
ATOM     21  C   LIG    1       -4.995  -9.683  -3.261  0.00  0.00    +0.140 A 
ATOM     22  C   LIG    1       -5.925 -10.646  -3.696  0.00  0.00    +0.200 A 
ATOM     23  C   LIG    1       -7.183 -10.630  -3.177  0.00  0.00    +0.020 A 
ATOM     24  C   LIG    1       -7.542  -9.666  -2.221  0.00  0.00    +0.210 A 
ATOM     25  N   LIG    1       -6.683  -8.770  -1.813  0.00  0.00    -0.230 NA
ATOM     26 CL   LIG    1       -9.152  -9.665  -1.572  0.00  0.00    +0.040 Cl
ATOM     27  N   LIG    1       -5.383  -8.750  -2.320  0.00  0.00    -0.280 N 
ENDBRANCH  17  18
ENDBRANCH  16  17
ENDBRANCH   1  16
TORSDOF 6
