REMARK  Name = ZINCrg00001JduNO.0
REMARK                            x       y       z     vdW  Elec       q    Type
REMARK                         _______ _______ _______ _____ _____    ______ ____
ROOT
ATOM      1  C   LIG    1       -0.172   4.603   3.390  0.00  0.00    +0.570 C 
ATOM      2  N   LIG    1       -0.308   3.378   2.846  0.00  0.00    -0.620 N 
ATOM      3  C   LIG    1       -0.448   3.088   1.411  0.00  0.00    +0.260 C 
ATOM      4  C   LIG    1       -0.545   1.555   1.261  0.00  0.00    +0.010 C 
ATOM      5  C   LIG    1        0.110   1.031   2.567  0.00  0.00    +0.080 C 
ATOM      6  C   LIG    1       -0.340   2.106   3.591  0.00  0.00    +0.270 C 
ATOM      7  O   LIG    1       -0.157   4.734   4.598  0.00  0.00    -0.530 OA
ENDROOT
BRANCH   1  11
ATOM      8  C   LIG    1        0.203   8.011   0.882  0.00  0.00    -0.090 A 
ATOM      9  C   LIG    1       -0.102   6.779   0.330  0.00  0.00    +0.020 A 
ATOM     10  C   LIG    1       -0.225   5.669   1.139  0.00  0.00    +0.040 A 
ATOM     11  C   LIG    1       -0.041   5.789   2.517  0.00  0.00    -0.120 A 
ATOM     12  C   LIG    1        0.261   7.036   3.068  0.00  0.00    +0.080 A 
ATOM     13  C   LIG    1        0.386   8.137   2.247  0.00  0.00    +0.020 A 
BRANCH   8  14
ATOM     14  C   LIG    1        0.337   9.220  -0.008  0.00  0.00    +0.320 C 
BRANCH  14  16
ATOM     15  C   LIG    1       -1.089  10.985  -0.896  0.00  0.00    +0.540 C 
ATOM     16  N   LIG    1       -0.967   9.875  -0.141  0.00  0.00    -0.720 N 
ATOM     17  H   LIG    1       -1.742   9.510   0.315  0.00  0.00    +0.400 HD
ATOM     18  O   LIG    1       -0.118  11.442  -1.467  0.00  0.00    -0.540 OA
BRANCH  15  20
ATOM     19  C   LIG    1       -2.519  12.738  -1.773  0.00  0.00    +0.140 C 
ATOM     20  C   LIG    1       -2.398  11.643  -1.029  0.00  0.00    -0.090 C 
ENDBRANCH  15  20
ENDBRANCH  14  16
ENDBRANCH   8  14
ENDBRANCH   1  11
BRANCH   5  21
ATOM     21  C   LIG    1       -0.427  -0.328   2.933  0.00  0.00    -0.230 A 
ATOM     22  C   LIG    1        0.298  -1.463   3.060  0.00  0.00    +0.240 A 
ATOM     23  N   LIG    1       -0.550  -2.458   3.397  0.00  0.00    -0.370 N 
ATOM     24  N   LIG    1       -1.839  -1.916   3.481  0.00  0.00    -0.290 NA
ATOM     25  C   LIG    1       -0.186  -3.857   3.635  0.00  0.00    +0.360 C 
ATOM     26  C   LIG    1       -1.763  -0.638   3.208  0.00  0.00    +0.240 A 
ENDBRANCH   5  21
BRANCH   4  27
ATOM     27  C   LIG    1        0.236   1.080   0.035  0.00  0.00    +0.190 C 
BRANCH  27  28
ATOM     28  O   LIG    1       -0.422   1.527  -1.152  0.00  0.00    -0.570 OA
ATOM     29  H   LIG    1        0.019   1.261  -1.970  0.00  0.00    +0.380 HD
ENDBRANCH  27  28
ENDBRANCH   4  27
TORSDOF 7
