REMARK  Name = ZINCrH000004lseH.0
REMARK                            x       y       z     vdW  Elec       q    Type
REMARK                         _______ _______ _______ _____ _____    ______ ____
ROOT
ATOM      1  C   LIG    1       -3.667   1.657   0.440  0.00  0.00    +0.590 C 
ATOM      2  N   LIG    1       -2.462   1.094   0.223  0.00  0.00    -0.660 N 
ATOM      3  H   LIG    1       -1.675   1.654   0.135  0.00  0.00    +0.420 HD
ATOM      4  O   LIG    1       -4.641   0.953   0.637  0.00  0.00    -0.530 OA
ENDROOT
BRANCH   1   7
ATOM      5  N   LIG    1       -3.325   5.286   0.309  0.00  0.00    -0.460 N 
ATOM      6  C   LIG    1       -2.815   4.033   0.236  0.00  0.00    +0.300 A 
ATOM      7  C   LIG    1       -3.806   3.119   0.440  0.00  0.00    -0.230 A 
ATOM      8  C   LIG    1       -5.046   3.888   0.654  0.00  0.00    -0.060 A 
ATOM      9  C   LIG    1       -6.368   3.538   0.915  0.00  0.00    +0.070 A 
ATOM     10  C   LIG    1       -7.316   4.526   1.075  0.00  0.00    -0.010 A 
ATOM     11  C   LIG    1       -6.957   5.862   0.982  0.00  0.00    +0.030 A 
ATOM     12  C   LIG    1       -5.651   6.222   0.730  0.00  0.00    -0.010 A 
ATOM     13  C   LIG    1       -4.680   5.241   0.566  0.00  0.00    +0.090 A 
BRANCH   5  14
ATOM     14  C   LIG    1       -2.547   6.516   0.140  0.00  0.00    +0.320 C 
BRANCH  14  15
ATOM     15  C   LIG    1       -2.114   7.038   1.512  0.00  0.00    +0.160 C 
BRANCH  15  17
ATOM     16  C   LIG    1       -0.900   8.811   2.574  0.00  0.00    +0.200 C 
ATOM     17  O   LIG    1       -1.356   8.238   1.347  0.00  0.00    -0.390 OA
ENDBRANCH  15  17
ENDBRANCH  14  15
ENDBRANCH   5  14
ENDBRANCH   1   7
BRANCH   2  18
ATOM     18  C   LIG    1       -2.346  -0.297   0.125  0.00  0.00    +0.160 A 
ATOM     19  C   LIG    1       -3.188  -1.118   0.861  0.00  0.00    +0.040 A 
ATOM     20  C   LIG    1       -3.067  -2.492   0.767  0.00  0.00    +0.030 A 
ATOM     21  C   LIG    1       -2.114  -3.052  -0.063  0.00  0.00    +0.030 A 
ATOM     22  C   LIG    1       -1.276  -2.241  -0.805  0.00  0.00    +0.010 A 
ATOM     23  C   LIG    1       -1.389  -0.861  -0.717  0.00  0.00    +0.120 A 
BRANCH  23  24
ATOM     24  N   LIG    1       -0.538  -0.037  -1.468  0.00  0.00    -0.310 N 
ATOM     25  C   LIG    1        0.498  -0.448  -2.233  0.00  0.00    +0.240 A 
ATOM     26  C   LIG    1        1.062   0.650  -2.788  0.00  0.00    -0.100 A 
ATOM     27  C   LIG    1        0.347   1.770  -2.348  0.00  0.00    +0.250 A 
ATOM     28  N   LIG    1       -0.611   1.359  -1.557  0.00  0.00    -0.310 NA
ENDBRANCH  23  24
ENDBRANCH   2  18
TORSDOF 6
