REMARK  Name = ZINCrg00000zqqAn.0
REMARK                            x       y       z     vdW  Elec       q    Type
REMARK                         _______ _______ _______ _____ _____    ______ ____
ROOT
ATOM      1  C   LIG    1        7.666   5.356  -1.058  0.00  0.00    +0.190 C 
ATOM      2  C   LIG    1        7.768   4.738   0.341  0.00  0.00    -0.320 C 
ATOM      3  S   LIG    1        7.019   3.079   0.172  0.00  0.00    +2.400 S 
ATOM      4  C   LIG    1        5.937   3.487  -1.245  0.00  0.00    -0.390 C 
ATOM      5  C   LIG    1        4.619   4.073  -0.695  0.00  0.00    +0.290 C 
ATOM      6  N   LIG    1        4.284   5.228  -1.536  0.00  0.00    -0.630 N 
ATOM      7  C   LIG    1        5.479   5.656  -2.271  0.00  0.00    +0.300 C 
ATOM      8  C   LIG    1        3.070   5.808  -1.615  0.00  0.00    +0.730 C 
ATOM      9  N   LIG    1        2.043   5.324  -0.888  0.00  0.00    -0.740 N 
ATOM     10  H   LIG    1        2.178   4.559  -0.308  0.00  0.00    +0.400 HD
ATOM     11  O   LIG    1        2.902   6.768  -2.342  0.00  0.00    -0.580 OA
ATOM     12  O   LIG    1        8.012   2.151  -0.243  0.00  0.00    -0.910 OA
ATOM     13  O   LIG    1        6.220   2.802   1.314  0.00  0.00    -0.920 OA
ATOM     14  C   LIG    1        6.619   4.691  -1.925  0.00  0.00    +0.040 C 
ENDROOT
BRANCH   1  16
ATOM     15  C   LIG    1        9.832   6.319  -1.417  0.00  0.00    +0.220 C 
ATOM     16  O   LIG    1        8.936   5.244  -1.704  0.00  0.00    -0.370 OA
ENDBRANCH   1  16
BRANCH   9  17
ATOM     17  C   LIG    1        0.724   5.955  -0.975  0.00  0.00    +0.320 C 
BRANCH  17  18
ATOM     18  C   LIG    1       -0.223   5.296   0.030  0.00  0.00    -0.060 C 
ATOM     19  C   LIG    1        0.155   5.559   1.497  0.00  0.00    +0.060 C 
ATOM     20  C   LIG    1       -0.726   6.819   1.415  0.00  0.00    +0.010 C 
ATOM     21  C   LIG    1       -1.503   6.107   0.294  0.00  0.00    +0.050 C 
BRANCH  18  22
ATOM     22  C   LIG    1       -0.481   3.843  -0.275  0.00  0.00    +0.120 A 
ATOM     23  N   LIG    1       -0.057   2.916   0.560  0.00  0.00    -0.450 NA
ATOM     24  C   LIG    1       -0.265   1.633   0.337  0.00  0.00    +0.260 A 
ATOM     25  C   LIG    1       -0.931   1.210  -0.798  0.00  0.00    +0.010 A 
ATOM     26  C   LIG    1       -1.393   2.155  -1.701  0.00  0.00    +0.040 A 
ATOM     27  C   LIG    1       -1.162   3.497  -1.430  0.00  0.00    +0.060 A 
ATOM     28  F   LIG    1       -1.595   4.452  -2.282  0.00  0.00    -0.120 F 
ENDBRANCH  18  22
ENDBRANCH  17  18
ENDBRANCH   9  17
TORSDOF 4
