REMARK  Name = ZINCzw00000007Nh.1
REMARK                            x       y       z     vdW  Elec       q    Type
REMARK                         _______ _______ _______ _____ _____    ______ ____
ROOT
ATOM      1  C   LIG    1       -2.194   7.580   1.904  0.00  0.00    +0.290 C 
ENDROOT
BRANCH   1   2
ATOM      2  N   LIG    1       -0.790   7.218   1.698  0.00  0.00    -0.700 N 
ATOM      3  H   LIG    1       -0.118   7.912   1.603  0.00  0.00    +0.410 HD
ATOM      4  C   LIG    1       -0.430   5.920   1.638  0.00  0.00    +0.510 C 
ATOM      5  O   LIG    1       -1.270   5.052   1.756  0.00  0.00    -0.510 OA
BRANCH   4   6
ATOM      6  C   LIG    1        1.014   5.547   1.426  0.00  0.00    +0.170 C 
ATOM      7  C   LIG    1        1.871   6.061   2.598  0.00  0.00    +0.090 C 
ATOM      8  C   LIG    1        2.524   4.798   3.204  0.00  0.00    +0.090 C 
ATOM      9  C   LIG    1        2.464   3.782   2.036  0.00  0.00    +0.270 C 
ATOM     10  N   LIG    1        1.156   4.075   1.397  0.00  0.00    -0.380 N 
ATOM     11  H   LIG    1        0.408   3.643   1.919  0.00  0.00    +0.430 HD
BRANCH  10  12
ATOM     12  C   LIG    1        1.150   3.592   0.010  0.00  0.00    +0.330 C 
BRANCH  12  13
ATOM     13  C   LIG    1        1.171   2.086   0.002  0.00  0.00    -0.160 A 
ATOM     14  C   LIG    1       -0.017   1.378   0.010  0.00  0.00    +0.070 A 
ATOM     15  C   LIG    1        0.002  -0.004   0.002  0.00  0.00    +0.040 A 
ATOM     16  C   LIG    1        1.210  -0.679  -0.013  0.00  0.00    -0.010 A 
ATOM     17  C   LIG    1        2.398   0.030  -0.021  0.00  0.00    +0.040 A 
ATOM     18 CL   LIG    1        1.234  -2.415  -0.022  0.00  0.00    -0.040 Cl
ATOM     19  C   LIG    1        2.378   1.412  -0.013  0.00  0.00    +0.060 A 
ENDBRANCH  12  13
ENDBRANCH  10  12
ENDBRANCH   4   6
ENDBRANCH   1   2
BRANCH   1  20
ATOM     20  C   LIG    1       -2.329   9.104   1.932  0.00  0.00    +0.340 C 
BRANCH  20  23
ATOM     21  C   LIG    1       -5.549  10.331   2.938  0.00  0.00    -0.020 A 
ATOM     22  C   LIG    1       -4.209  10.267   3.120  0.00  0.00    +0.190 A 
ATOM     23  N   LIG    1       -3.733   9.466   2.138  0.00  0.00    -0.300 N 
ATOM     24  N   LIG    1       -4.725   9.082   1.414  0.00  0.00    -0.070 NA
ATOM     25  N   LIG    1       -5.823   9.576   1.868  0.00  0.00    -0.240 NA
BRANCH  21  26
ATOM     26  C   LIG    1       -6.537  11.101   3.775  0.00  0.00    +0.330 C 
BRANCH  26  27
ATOM     27  O   LIG    1       -5.845  11.780   4.825  0.00  0.00    -0.310 OA
BRANCH  27  32
ATOM     28  C   LIG    1       -6.754  13.969   7.585  0.00  0.00    -0.620 A 
ATOM     29  C   LIG    1       -8.123  14.045   7.412  0.00  0.00    +0.090 A 
ATOM     30  C   LIG    1       -8.731  13.362   6.375  0.00  0.00    +0.040 A 
ATOM     31  C   LIG    1       -7.969  12.608   5.503  0.00  0.00    -0.010 A 
ATOM     32  C   LIG    1       -6.595  12.526   5.677  0.00  0.00    +0.110 A 
ATOM     33  C   LIG    1       -5.988  13.211   6.719  0.00  0.00    +0.100 A 
BRANCH  28  35
ATOM     34  C   LIG    1       -5.578  16.464   8.207  0.00  0.00    -0.250 C 
ATOM     35  S   LIG    1       -5.984  14.841   8.908  0.00  0.00    +2.500 S 
ATOM     36  O   LIG    1       -4.799  14.101   9.172  0.00  0.00    -0.940 OA
ATOM     37  O   LIG    1       -7.005  14.963   9.889  0.00  0.00    -0.930 OA
ENDBRANCH  28  35
ENDBRANCH  27  32
ENDBRANCH  26  27
ENDBRANCH  21  26
ENDBRANCH  20  23
ENDBRANCH   1  20
TORSDOF 10
