REMARK  Name = ZINCzw00000007Nh.2
REMARK                            x       y       z     vdW  Elec       q    Type
REMARK                         _______ _______ _______ _____ _____    ______ ____
ROOT
ATOM      1  C   LIG    1       -0.039   1.655  -0.105  0.00  0.00    +0.290 C 
ENDROOT
BRANCH   1   2
ATOM      2  N   LIG    1       -0.700   2.024   1.149  0.00  0.00    -0.710 N 
ATOM      3  H   LIG    1       -1.441   2.650   1.140  0.00  0.00    +0.410 HD
ATOM      4  C   LIG    1       -0.280   1.494   2.314  0.00  0.00    +0.510 C 
ATOM      5  O   LIG    1        0.647   0.712   2.326  0.00  0.00    -0.500 OA
BRANCH   4   6
ATOM      6  C   LIG    1       -0.961   1.874   3.604  0.00  0.00    +0.170 C 
ATOM      7  C   LIG    1       -1.599   0.626   4.248  0.00  0.00    +0.100 C 
ATOM      8  C   LIG    1       -1.341   0.844   5.763  0.00  0.00    +0.080 C 
ATOM      9  C   LIG    1        0.052   1.522   5.749  0.00  0.00    +0.270 C 
ATOM     10  N   LIG    1        0.032   2.400   4.559  0.00  0.00    -0.380 N 
ATOM     11  H   LIG    1       -0.223   3.337   4.833  0.00  0.00    +0.430 HD
BRANCH  10  12
ATOM     12  C   LIG    1        1.361   2.414   3.934  0.00  0.00    +0.330 C 
BRANCH  12  13
ATOM     13  C   LIG    1        2.338   3.111   4.845  0.00  0.00    -0.160 A 
ATOM     14  C   LIG    1        2.532   4.476   4.736  0.00  0.00    +0.060 A 
ATOM     15  C   LIG    1        3.424   5.117   5.575  0.00  0.00    +0.040 A 
ATOM     16  C   LIG    1        4.130   4.391   6.518  0.00  0.00    -0.010 A 
ATOM     17  C   LIG    1        3.940   3.024   6.623  0.00  0.00    +0.040 A 
ATOM     18 CL   LIG    1        5.255   5.194   7.568  0.00  0.00    -0.040 Cl
ATOM     19  C   LIG    1        3.044   2.385   5.786  0.00  0.00    +0.060 A 
ENDBRANCH  12  13
ENDBRANCH  10  12
ENDBRANCH   4   6
ENDBRANCH   1   2
BRANCH   1  20
ATOM     20  C   LIG    1       -0.704   2.391  -1.269  0.00  0.00    +0.340 C 
BRANCH  20  23
ATOM     21  C   LIG    1        0.327   1.322  -4.537  0.00  0.00    -0.020 A 
ATOM     22  C   LIG    1       -0.650   1.516  -3.621  0.00  0.00    +0.190 A 
ATOM     23  N   LIG    1       -0.043   2.021  -2.523  0.00  0.00    -0.300 N 
ATOM     24  N   LIG    1        1.216   2.127  -2.771  0.00  0.00    -0.080 NA
ATOM     25  N   LIG    1        1.470   1.712  -3.962  0.00  0.00    -0.240 NA
BRANCH  21  26
ATOM     26  C   LIG    1        0.161   0.774  -5.931  0.00  0.00    +0.330 C 
BRANCH  26  27
ATOM     27  O   LIG    1       -1.217   0.476  -6.164  0.00  0.00    -0.310 OA
BRANCH  27  32
ATOM     28  C   LIG    1       -3.187  -0.858  -8.917  0.00  0.00    -0.620 A 
ATOM     29  C   LIG    1       -2.201  -1.062  -9.864  0.00  0.00    +0.090 A 
ATOM     30  C   LIG    1       -0.885  -0.752  -9.573  0.00  0.00    +0.040 A 
ATOM     31  C   LIG    1       -0.554  -0.232  -8.337  0.00  0.00    -0.010 A 
ATOM     32  C   LIG    1       -1.541  -0.031  -7.383  0.00  0.00    +0.110 A 
ATOM     33  C   LIG    1       -2.860  -0.343  -7.678  0.00  0.00    +0.100 A 
BRANCH  28  35
ATOM     34  C   LIG    1       -5.541   0.273 -10.000  0.00  0.00    -0.250 C 
ATOM     35  S   LIG    1       -4.863  -1.253  -9.292  0.00  0.00    +2.500 S 
ATOM     36  O   LIG    1       -5.451  -1.521  -8.027  0.00  0.00    -0.930 OA
ATOM     37  O   LIG    1       -4.770  -2.265 -10.286  0.00  0.00    -0.930 OA
ENDBRANCH  28  35
ENDBRANCH  27  32
ENDBRANCH  26  27
ENDBRANCH  21  26
ENDBRANCH  20  23
ENDBRANCH   1  20
TORSDOF 10
