REMARK  Name = ZINC550000002Jf5.0
REMARK                            x       y       z     vdW  Elec       q    Type
REMARK                         _______ _______ _______ _____ _____    ______ ____
ROOT
ATOM      1  C   LIG    1       -1.316   1.805   0.018  0.00  0.00    +0.450 C 
ATOM      2  O   LIG    1       -1.333   3.025   0.025  0.00  0.00    -0.660 OA
ATOM      3  O   LIG    1       -2.365   1.180   0.020  0.00  0.00    -0.670 OA
ENDROOT
BRANCH   1   5
ATOM      4  O   LIG    1        1.025   1.694   0.001  0.00  0.00    -0.470 OA
ATOM      5  C   LIG    1       -0.013   1.076   0.008  0.00  0.00    +0.360 C 
ENDBRANCH   1   5
TORSDOF 1
