REMARK  Name = ZINCvU0000000HgC.0
REMARK                            x       y       z     vdW  Elec       q    Type
REMARK                         _______ _______ _______ _____ _____    ______ ____
ROOT
ATOM      1  N   LIG    1       -0.107   4.204  -0.732  0.00  0.00    -0.510 N 
ATOM      2  C   LIG    1        1.079   3.577  -0.675  0.00  0.00    +0.570 C 
ATOM      3  C   LIG    1        1.166   2.145  -0.363  0.00  0.00    -0.160 A 
ATOM      4  C   LIG    1        2.395   1.488  -0.301  0.00  0.00    +0.110 A 
ATOM      5  C   LIG    1        2.434   0.142  -0.005  0.00  0.00    -0.010 A 
ATOM      6  C   LIG    1        1.266  -0.566   0.234  0.00  0.00    +0.060 A 
ATOM      7  C   LIG    1        0.040   0.066   0.178  0.00  0.00    -0.010 A 
ATOM      8  C   LIG    1       -0.021   1.422  -0.120  0.00  0.00    +0.050 A 
ATOM      9  C   LIG    1       -1.306   2.147  -0.187  0.00  0.00    -0.300 C 
ATOM     10  C   LIG    1       -2.499   1.499   0.045  0.00  0.00    +0.430 C 
ATOM     11  O   LIG    1        2.099   4.206  -0.886  0.00  0.00    -0.490 OA
ATOM     12  C   LIG    1       -1.274   3.578  -0.512  0.00  0.00    +0.580 C 
ATOM     13  O   LIG    1       -2.316   4.204  -0.579  0.00  0.00    -0.520 OA
ENDROOT
BRANCH   1  20
ATOM     14  C   LIG    1        0.044   6.061   1.420  0.00  0.00    +0.090 C 
ATOM     15  C   LIG    1       -0.056   6.511  -0.015  0.00  0.00    -0.060 A 
ATOM     16  C   LIG    1       -0.077   7.859  -0.317  0.00  0.00    +0.020 A 
ATOM     17  C   LIG    1       -0.169   8.273  -1.633  0.00  0.00    +0.030 A 
ATOM     18  C   LIG    1       -0.241   7.340  -2.651  0.00  0.00    +0.010 A 
ATOM     19  C   LIG    1       -0.214   5.991  -2.356  0.00  0.00    +0.030 A 
ATOM     20  C   LIG    1       -0.128   5.572  -1.035  0.00  0.00    +0.110 A 
ENDBRANCH   1  20
BRANCH  10  21
ATOM     21  N   LIG    1       -3.649   2.215   0.168  0.00  0.00    -0.620 N 
ATOM     22  H   LIG    1       -3.619   3.184   0.174  0.00  0.00    +0.430 HD
BRANCH  21  23
ATOM     23  C   LIG    1       -4.874   1.553   0.287  0.00  0.00    +0.150 A 
ATOM     24  C   LIG    1       -4.920   0.165   0.273  0.00  0.00    +0.000 A 
ATOM     25  C   LIG    1       -6.132  -0.485   0.396  0.00  0.00    +0.070 A 
ATOM     26  C   LIG    1       -7.301   0.244   0.521  0.00  0.00    +0.050 A 
ATOM     27  C   LIG    1       -7.259   1.626   0.529  0.00  0.00    -0.140 A 
ATOM     28  C   LIG    1       -6.050   2.283   0.413  0.00  0.00    +0.040 A 
BRANCH  27  29
ATOM     29  C   LIG    1       -8.535   2.417   0.665  0.00  0.00    +0.510 C 
ATOM     30  F   LIG    1       -8.266   3.628   1.312  0.00  0.00    -0.170 F 
ATOM     31  F   LIG    1       -9.460   1.683   1.415  0.00  0.00    -0.170 F 
ATOM     32  F   LIG    1       -9.062   2.673  -0.605  0.00  0.00    -0.170 F 
ENDBRANCH  27  29
ENDBRANCH  21  23
ENDBRANCH  10  21
TORSDOF 4
