REMARK  Name = ZINCrH000004lTKr.0
REMARK                            x       y       z     vdW  Elec       q    Type
REMARK                         _______ _______ _______ _____ _____    ______ ____
ROOT
ATOM      1  N   LIG    1       -1.573  -4.295  -0.006  0.00  0.00    -0.530 NA
ATOM      2  C   LIG    1       -2.341  -3.941   1.195  0.00  0.00    +0.170 C 
ATOM      3  C   LIG    1       -3.750  -4.528   1.092  0.00  0.00    +0.010 C 
ATOM      4  C   LIG    1       -3.655  -6.050   0.954  0.00  0.00    +0.250 C 
ATOM      5  C   LIG    1       -2.811  -6.392  -0.277  0.00  0.00    +0.040 C 
ATOM      6  C   LIG    1       -1.428  -5.750  -0.134  0.00  0.00    +0.190 C 
ENDROOT
BRANCH   4   7
ATOM      7  N   LIG    1       -4.998  -6.614   0.798  0.00  0.00    -0.740 N 
ATOM      8  H   LIG    1       -5.353  -6.785  -0.089  0.00  0.00    +0.400 HD
ATOM      9  C   LIG    1       -5.742  -6.895   1.886  0.00  0.00    +0.700 C 
ATOM     10  N   LIG    1       -6.978  -7.413   1.742  0.00  0.00    -0.690 N 
ATOM     11  H   LIG    1       -7.362  -7.513   0.857  0.00  0.00    +0.410 HD
ATOM     12  O   LIG    1       -5.299  -6.681   2.997  0.00  0.00    -0.570 OA
BRANCH  10  13
ATOM     13  C   LIG    1       -7.707  -7.809   2.869  0.00  0.00    +0.160 A 
ATOM     14  C   LIG    1       -7.049  -8.331   3.975  0.00  0.00    +0.010 A 
ATOM     15  C   LIG    1       -7.770  -8.715   5.088  0.00  0.00    +0.030 A 
ATOM     16  C   LIG    1       -9.147  -8.591   5.098  0.00  0.00    -0.020 A 
ATOM     17  C   LIG    1       -9.806  -8.077   3.996  0.00  0.00    +0.030 A 
ATOM     18  C   LIG    1       -9.090  -7.686   2.882  0.00  0.00    -0.030 A 
ENDBRANCH  10  13
ENDBRANCH   4   7
BRANCH   1  19
ATOM     19  C   LIG    1       -0.262  -3.633  -0.006  0.00  0.00    +0.250 C 
BRANCH  19  23
ATOM     20  C   LIG    1       -0.799   0.597  -0.333  0.00  0.00    +0.030 A 
ATOM     21  C   LIG    1       -0.674  -0.179  -1.478  0.00  0.00    +0.110 A 
ATOM     22  C   LIG    1       -0.494  -1.547  -1.368  0.00  0.00    +0.020 A 
ATOM     23  C   LIG    1       -0.451  -2.142  -0.122  0.00  0.00    -0.030 A 
ATOM     24  C   LIG    1       -0.581  -1.373   1.020  0.00  0.00    +0.000 A 
ATOM     25  F   LIG    1       -0.721   0.402  -2.696  0.00  0.00    -0.120 F 
ATOM     26  C   LIG    1       -0.755  -0.004   0.918  0.00  0.00    +0.110 A 
ATOM     27  F   LIG    1       -0.881   0.746   2.034  0.00  0.00    -0.120 F 
BRANCH  20  29
ATOM     28  C   LIG    1        0.211   2.747  -0.452  0.00  0.00    +0.230 C 
ATOM     29  O   LIG    1       -0.970   1.942  -0.437  0.00  0.00    -0.320 OA
ENDBRANCH  20  29
ENDBRANCH  19  23
ENDBRANCH   1  19
TORSDOF 5
