REMARK  Name = ZINCtV000002pWw8.0
REMARK                            x       y       z     vdW  Elec       q    Type
REMARK                         _______ _______ _______ _____ _____    ______ ____
ROOT
ATOM      1  N   LIG    1        6.480  -2.801   3.267  0.00  0.00    -0.660 N 
ATOM      2  H   LIG    1        5.863  -3.461   3.622  0.00  0.00    +0.410 HD
ATOM      3  C   LIG    1        6.165  -2.117   2.149  0.00  0.00    +0.600 C 
ATOM      4  O   LIG    1        6.923  -1.267   1.722  0.00  0.00    -0.480 OA
ENDROOT
BRANCH   1  10
ATOM      5  C   LIG    1        8.883  -2.575   3.192  0.00  0.00    -0.060 A 
ATOM      6  C   LIG    1       10.082  -2.331   3.833  0.00  0.00    +0.020 A 
ATOM      7  C   LIG    1       10.103  -2.086   5.194  0.00  0.00    +0.010 A 
ATOM      8  C   LIG    1        8.924  -2.078   5.916  0.00  0.00    +0.020 A 
ATOM      9  C   LIG    1        7.721  -2.315   5.280  0.00  0.00    -0.080 A 
ATOM     10  C   LIG    1        7.696  -2.561   3.913  0.00  0.00    +0.130 A 
BRANCH   9  11
ATOM     11  C   LIG    1        6.436  -2.306   6.068  0.00  0.00    +0.010 C 
ATOM     12  C   LIG    1        6.246  -0.934   6.718  0.00  0.00    +0.040 C 
ATOM     13  C   LIG    1        6.497  -3.381   7.155  0.00  0.00    +0.030 C 
ENDBRANCH   9  11
BRANCH   5  14
ATOM     14  C   LIG    1        8.862  -2.848   1.710  0.00  0.00    +0.100 C 
BRANCH  14  16
ATOM     15  C   LIG    1       10.875  -2.563   0.359  0.00  0.00    -0.010 C 
ATOM     16  C   LIG    1        9.901  -1.997   1.027  0.00  0.00    -0.020 C 
ENDBRANCH  14  16
ENDBRANCH   5  14
ENDBRANCH   1  10
BRANCH   3  17
ATOM     17  C   LIG    1        4.907  -2.396   1.449  0.00  0.00    -0.070 A 
ATOM     18  C   LIG    1        4.467  -1.780   0.312  0.00  0.00    +0.060 A 
ATOM     19  C   LIG    1        3.227  -2.355  -0.004  0.00  0.00    -0.020 A 
ATOM     20  C   LIG    1        2.967  -3.285   0.941  0.00  0.00    +0.010 A 
ATOM     21  O   LIG    1        3.979  -3.304   1.817  0.00  0.00    -0.160 OA
BRANCH  20  22
ATOM     22  C   LIG    1        1.737  -4.154   1.001  0.00  0.00    +0.330 C 
BRANCH  22  23
ATOM     23  O   LIG    1        1.970  -5.362   0.274  0.00  0.00    -0.310 OA
BRANCH  23  24
ATOM     24  C   LIG    1        0.953  -6.262   0.229  0.00  0.00    +0.120 A 
ATOM     25  C   LIG    1        1.112  -7.455  -0.460  0.00  0.00    +0.020 A 
ATOM     26  C   LIG    1        0.075  -8.367  -0.509  0.00  0.00    +0.040 A 
ATOM     27  C   LIG    1       -1.119  -8.095   0.138  0.00  0.00    +0.060 A 
ATOM     28  C   LIG    1       -1.278  -6.904   0.826  0.00  0.00    +0.030 A 
ATOM     29  F   LIG    1       -2.130  -8.989   0.092  0.00  0.00    -0.140 F 
ATOM     30  C   LIG    1       -0.245  -5.988   0.873  0.00  0.00    -0.040 A 
ENDBRANCH  23  24
ENDBRANCH  22  23
ENDBRANCH  20  22
ENDBRANCH   3  17
TORSDOF 8
