REMARK  Name = ZINCpe00000MJJYp.0
REMARK                            x       y       z     vdW  Elec       q    Type
REMARK                         _______ _______ _______ _____ _____    ______ ____
ROOT
ATOM      1  O   LIG    1        0.578   8.986   2.870  0.00  0.00    -0.510 OA
ATOM      2  C   LIG    1       -0.120   9.736   2.221  0.00  0.00    +0.520 C 
ATOM      3  N   LIG    1       -0.116  11.058   2.484  0.00  0.00    -0.720 N 
ATOM      4  H   LIG    1       -0.673  11.658   1.965  0.00  0.00    +0.400 HD
ENDROOT
BRANCH   3   5
ATOM      5  C   LIG    1        0.732  11.588   3.555  0.00  0.00    +0.270 C 
ATOM      6  C   LIG    1        2.140  11.841   3.014  0.00  0.00    +0.030 C 
ATOM      7  C   LIG    1        3.025  12.395   4.132  0.00  0.00    +0.050 C 
ATOM      8  C   LIG    1        2.433  13.709   4.647  0.00  0.00    +0.040 C 
ATOM      9  C   LIG    1        1.025  13.456   5.188  0.00  0.00    +0.260 C 
ATOM     10  F   LIG    1        1.087  12.531   6.236  0.00  0.00    -0.190 F 
ATOM     11  F   LIG    1        0.484  14.658   5.659  0.00  0.00    -0.200 F 
ATOM     12  C   LIG    1        0.140  12.902   4.070  0.00  0.00    +0.160 C 
BRANCH  12  13
ATOM     13  O   LIG    1       -1.175  12.666   4.576  0.00  0.00    -0.540 OA
ATOM     14  H   LIG    1       -1.612  13.458   4.920  0.00  0.00    +0.390 HD
ENDBRANCH  12  13
ENDBRANCH   3   5
BRANCH   2  15
ATOM     15  C   LIG    1       -0.991   9.190   1.119  0.00  0.00    +0.220 C 
BRANCH  15  16
ATOM     16  N   LIG    1       -0.933   7.722   1.131  0.00  0.00    -0.520 NA
ATOM     17  C   LIG    1       -1.544   7.180   2.352  0.00  0.00    +0.190 C 
ATOM     18  C   LIG    1       -1.393   5.657   2.363  0.00  0.00    +0.220 C 
ATOM     19  N   LIG    1       -2.031   5.096   1.164  0.00  0.00    -0.480 N 
ATOM     20  C   LIG    1       -1.419   5.638  -0.058  0.00  0.00    +0.210 C 
ATOM     21  C   LIG    1       -1.571   7.161  -0.068  0.00  0.00    +0.200 C 
BRANCH  19  22
ATOM     22  C   LIG    1       -1.975   3.707   1.175  0.00  0.00    +0.310 A 
ATOM     23  C   LIG    1       -2.528   2.987   0.120  0.00  0.00    -0.060 A 
ATOM     24  C   LIG    1       -2.466   1.605   0.144  0.00  0.00    +0.090 A 
ATOM     25  C   LIG    1       -1.852   0.988   1.225  0.00  0.00    -0.070 A 
ATOM     26  C   LIG    1       -1.329   1.764   2.240  0.00  0.00    +0.290 A 
ATOM     27  N   LIG    1       -1.397   3.081   2.188  0.00  0.00    -0.520 NA
ENDBRANCH  19  22
ENDBRANCH  15  16
ENDBRANCH   2  15
TORSDOF 5
