REMARK  Name = ZINCb80000002G7L.0
REMARK                            x       y       z     vdW  Elec       q    Type
REMARK                         _______ _______ _______ _____ _____    ______ ____
ROOT
ATOM      1  C   LIG    1       -0.957   1.909  -1.397  0.00  0.00    -0.780 A 
ATOM      2  C   LIG    1       -0.573   1.715  -2.692  0.00  0.00    -0.060 A 
ATOM      3  C   LIG    1       -1.538   2.214  -3.647  0.00  0.00    +0.070 A 
ATOM      4  C   LIG    1       -2.598   2.770  -3.074  0.00  0.00    -0.010 A 
ATOM      5  S   LIG    1       -2.465   2.700  -1.326  0.00  0.00    +0.280 S 
ENDROOT
BRANCH   1   6
ATOM      6  S   LIG    1       -0.017   1.417   0.010  0.00  0.00    +2.720 S 
ATOM      7  O   LIG    1        1.162   2.210   0.003  0.00  0.00    -0.940 OA
ATOM      8  O   LIG    1        0.002  -0.004   0.002  0.00  0.00    -0.940 OA
BRANCH   6   9
ATOM      9  N   LIG    1       -0.875   1.865   1.354  0.00  0.00    -1.250 NA
ATOM     10  H   LIG    1       -1.730   2.313   1.256  0.00  0.00    +0.410 HD
ATOM     11  H   LIG    1       -0.522   1.680   2.238  0.00  0.00    +0.430 HD
ENDBRANCH   6   9
ENDBRANCH   1   6
BRANCH   2  12
ATOM     12  C   LIG    1        0.681   1.066  -3.075  0.00  0.00    +0.490 C 
ATOM     13  O   LIG    1        0.959   0.926  -4.248  0.00  0.00    -0.420 OA
ENDBRANCH   2  12
TORSDOF 3
