REMARK  Name = ZINCpe000000YdIv.0
REMARK                            x       y       z     vdW  Elec       q    Type
REMARK                         _______ _______ _______ _____ _____    ______ ____
ROOT
ATOM      1  C   LIG    1        3.583  -1.739   1.441  0.00  0.00    +0.350 C 
ATOM      2  N   LIG    1        2.167  -1.468   1.182  0.00  0.00    -0.500 N 
ATOM      3  C   LIG    1        1.292  -2.488   1.102  0.00  0.00    +0.590 A 
ATOM      4  C   LIG    1       -0.083  -2.233   0.851  0.00  0.00    -0.320 A 
ATOM      5  C   LIG    1       -0.520  -0.932   0.690  0.00  0.00    +0.180 A 
ATOM      6  N   LIG    1        0.421   0.102   0.780  0.00  0.00    -0.420 N 
ATOM      7  C   LIG    1        0.323   1.457   0.673  0.00  0.00    +0.200 A 
ATOM      8  N   LIG    1        1.522   1.943   0.844  0.00  0.00    -0.240 NA
ATOM      9  N   LIG    1        2.360   0.989   1.050  0.00  0.00    -0.290 NA
ATOM     10  C   LIG    1       -1.889  -0.867   0.453  0.00  0.00    +0.020 A 
ATOM     11  C   LIG    1       -2.524  -2.035   0.423  0.00  0.00    -0.020 A 
ATOM     12  S   LIG    1       -1.449  -3.329   0.693  0.00  0.00    +0.350 S 
ATOM     13  O   LIG    1        1.681  -3.633   1.244  0.00  0.00    -0.510 OA
ATOM     14  C   LIG    1        1.735  -0.166   1.022  0.00  0.00    +0.410 A 
ENDROOT
BRANCH   7  15
ATOM     15  C   LIG    1       -0.933   2.245   0.401  0.00  0.00    +0.320 C 
BRANCH  15  16
ATOM     16  N   LIG    1       -1.579   2.592   1.674  0.00  0.00    -0.500 NA
ATOM     17  C   LIG    1       -0.597   3.101   2.640  0.00  0.00    +0.180 C 
ATOM     18  C   LIG    1       -1.277   3.314   3.995  0.00  0.00    +0.020 C 
ATOM     19  C   LIG    1       -2.426   4.312   3.833  0.00  0.00    +0.000 C 
ATOM     20  C   LIG    1       -3.409   3.781   2.786  0.00  0.00    +0.060 C 
ATOM     21  C   LIG    1       -2.668   3.555   1.466  0.00  0.00    +0.090 C 
ATOM     22  C   LIG    1       -3.642   3.005   0.422  0.00  0.00    +0.060 C 
BRANCH  21  23
ATOM     23  C   LIG    1       -2.097   4.862   0.980  0.00  0.00    +0.500 C 
ATOM     24  O   LIG    1       -0.918   4.945   0.708  0.00  0.00    -0.530 OA
ATOM     25  N   LIG    1       -2.896   5.939   0.848  0.00  0.00    -0.850 N 
ATOM     26  H   LIG    1       -2.546   6.759   0.468  0.00  0.00    +0.400 HD
ATOM     27  H   LIG    1       -3.822   5.894   1.134  0.00  0.00    +0.400 HD
ENDBRANCH  21  23
ENDBRANCH  15  16
ENDBRANCH   7  15
TORSDOF 3
