REMARK  Name = ZINCvU0000000IMV.0
REMARK                            x       y       z     vdW  Elec       q    Type
REMARK                         _______ _______ _______ _____ _____    ______ ____
ROOT
ATOM      1  C   LIG    1       -0.577   0.454   0.363  0.00  0.00    +0.580 C 
ATOM      2  N   LIG    1        0.572   0.840   0.953  0.00  0.00    -0.670 N 
ATOM      3  H   LIG    1        0.731   1.779   1.136  0.00  0.00    +0.410 HD
ATOM      4  O   LIG    1       -0.743  -0.712   0.058  0.00  0.00    -0.520 OA
ENDROOT
BRANCH   2   5
ATOM      5  C   LIG    1        1.535  -0.115   1.300  0.00  0.00    +0.140 A 
ATOM      6  C   LIG    1        2.889   0.196   1.194  0.00  0.00    +0.010 A 
ATOM      7  C   LIG    1        3.847  -0.734   1.534  0.00  0.00    +0.040 A 
ATOM      8  C   LIG    1        3.464  -1.988   1.988  0.00  0.00    +0.030 A 
ATOM      9  C   LIG    1        2.101  -2.312   2.095  0.00  0.00    +0.070 A 
ATOM     10  N   LIG    1        2.032  -3.588   2.554  0.00  0.00    -0.490 NA
ATOM     11  C   LIG    1        3.234  -4.058   2.734  0.00  0.00    +0.290 A 
ATOM     12  C   LIG    1        3.561  -5.448   3.228  0.00  0.00    +0.150 C 
ATOM     13  C   LIG    1        4.624  -5.359   4.324  0.00  0.00    +0.030 C 
ATOM     14  C   LIG    1        6.013  -5.402   3.694  0.00  0.00    +0.010 C 
ATOM     15  C   LIG    1        6.000  -4.715   2.329  0.00  0.00    +0.030 C 
ATOM     16  C   LIG    1        5.610  -3.245   2.498  0.00  0.00    +0.280 C 
ATOM     17  N   LIG    1        4.154  -3.109   2.408  0.00  0.00    -0.490 N 
ATOM     18  C   LIG    1        1.138  -1.360   1.752  0.00  0.00    +0.080 A 
ENDBRANCH   2   5
BRANCH   1  20
ATOM     19  C   LIG    1       -2.802   1.049  -0.527  0.00  0.00    +0.300 C 
ATOM     20  C   LIG    1       -1.627   1.443   0.082  0.00  0.00    -0.180 C 
BRANCH  19  24
ATOM     21  N   LIG    1       -5.772   2.924  -1.263  0.00  0.00    -0.430 N 
ATOM     22  C   LIG    1       -5.229   3.738  -0.310  0.00  0.00    +0.010 A 
ATOM     23  C   LIG    1       -4.072   3.207   0.118  0.00  0.00    -0.010 A 
ATOM     24  C   LIG    1       -3.885   1.959  -0.635  0.00  0.00    -0.220 A 
ATOM     25  C   LIG    1       -5.833   5.027   0.183  0.00  0.00    +0.130 C 
ATOM     26  C   LIG    1       -4.980   1.857  -1.477  0.00  0.00    +0.110 A 
ATOM     27  C   LIG    1       -5.242   0.743  -2.457  0.00  0.00    +0.150 C 
BRANCH  21  28
ATOM     28  C   LIG    1       -7.036   3.179  -1.958  0.00  0.00    +0.290 C 
BRANCH  28  30
ATOM     29  C   LIG    1       -8.085   4.260  -3.952  0.00  0.00    +0.030 C 
ATOM     30  C   LIG    1       -6.765   3.993  -3.225  0.00  0.00    +0.000 C 
ENDBRANCH  28  30
ENDBRANCH  21  28
ENDBRANCH  19  24
BRANCH  20  31
ATOM     31  C   LIG    1       -1.432   2.816   0.441  0.00  0.00    +0.260 C 
ATOM     32  N   LIG    1       -1.277   3.905   0.725  0.00  0.00    -0.430 NA
ENDBRANCH  20  31
ENDBRANCH   1  20
TORSDOF 6
