REMARK  Name = ZINCb80000003Wnp.0
REMARK                            x       y       z     vdW  Elec       q    Type
REMARK                         _______ _______ _______ _____ _____    ______ ____
ROOT
ATOM      1  C   LIG    1        0.770  -0.492  -1.228  0.00  0.00    +0.180 C 
ATOM      2  C   LIG    1        0.002  -0.004   0.002  0.00  0.00    +0.070 C 
ATOM      3  C   LIG    1       -0.019   1.527   0.010  0.00  0.00    +0.020 C 
ATOM      4  C   LIG    1        1.421   2.049  -0.001  0.00  0.00    +0.180 C 
ATOM      5  C   LIG    1        2.147   1.502  -1.231  0.00  0.00    +0.180 C 
ATOM      6  F   LIG    1        2.080   1.626   1.158  0.00  0.00    -0.200 F 
ATOM      7  N   LIG    1        2.141   0.034  -1.192  0.00  0.00    -0.670 NA
ATOM      8  H   LIG    1        2.695  -0.351  -1.942  0.00  0.00    +0.360 HD
ENDROOT
BRANCH   1   9
ATOM      9  C   LIG    1        0.810  -1.999  -1.230  0.00  0.00    +0.460 C 
ATOM     10  O   LIG    1        1.799  -2.577  -0.847  0.00  0.00    -0.480 OA
BRANCH   9  12
ATOM     11  C   LIG    1       -0.143  -4.146  -1.631  0.00  0.00    +0.260 C 
ATOM     12  O   LIG    1       -0.253  -2.698  -1.658  0.00  0.00    -0.360 OA
ENDBRANCH   9  12
ENDBRANCH   1   9
TORSDOF 2
