REMARK  Name = ZINCpk00000y6wCM.0
REMARK                            x       y       z     vdW  Elec       q    Type
REMARK                         _______ _______ _______ _____ _____    ______ ____
ROOT
ATOM      1  C   LIG    1       -0.744   1.482   2.555  0.00  0.00    +0.140 C 
ATOM      2  C   LIG    1       -2.103   0.778   2.759  0.00  0.00    +0.180 C 
ATOM      3  N   LIG    1       -3.079   1.630   2.033  0.00  0.00    -0.500 NA
ATOM      4  C   LIG    1       -2.359   2.042   0.798  0.00  0.00    +0.190 C 
ATOM      5  C   LIG    1       -0.913   2.313   1.266  0.00  0.00    -0.010 C 
ATOM      6  C   LIG    1        0.085   1.850   0.202  0.00  0.00    +0.040 C 
ENDROOT
BRANCH   1  12
ATOM      7  C   LIG    1        4.835  -1.011   3.814  0.00  0.00    +0.080 C 
ATOM      8  C   LIG    1        3.497  -1.697   3.713  0.00  0.00    +0.510 C 
ATOM      9  N   LIG    1        2.505  -1.138   2.993  0.00  0.00    -0.620 N 
ATOM     10  C   LIG    1        2.736   0.089   2.215  0.00  0.00    +0.280 C 
ATOM     11  C   LIG    1        1.647   1.106   2.575  0.00  0.00    +0.170 C 
ATOM     12  N   LIG    1        0.327   0.491   2.387  0.00  0.00    -0.520 NA
ATOM     13  C   LIG    1        0.136  -0.649   3.293  0.00  0.00    +0.160 C 
ATOM     14  C   LIG    1        1.163  -1.738   2.963  0.00  0.00    +0.280 C 
ATOM     15  O   LIG    1        3.313  -2.753   4.281  0.00  0.00    -0.550 OA
ENDBRANCH   1  12
BRANCH   3  16
ATOM     16  C   LIG    1       -4.296   0.875   1.706  0.00  0.00    +0.260 C 
ATOM     17  C   LIG    1       -5.188   1.716   0.790  0.00  0.00    +0.080 C 
BRANCH  16  18
ATOM     18  C   LIG    1       -5.042   0.550   2.974  0.00  0.00    +0.190 A 
ATOM     19  N   LIG    1       -5.577  -0.604   3.292  0.00  0.00    -0.480 NA
ATOM     20  C   LIG    1       -6.130  -0.425   4.505  0.00  0.00    +0.200 A 
ATOM     21  N   LIG    1       -5.913   0.808   4.853  0.00  0.00    -0.380 NA
ATOM     22  O   LIG    1       -5.289   1.385   3.988  0.00  0.00    +0.100 OA
BRANCH  20  23
ATOM     23  C   LIG    1       -6.869  -1.463   5.310  0.00  0.00    +0.060 C 
ATOM     24  C   LIG    1       -7.598  -0.992   6.570  0.00  0.00    +0.050 C 
ATOM     25  C   LIG    1       -6.313  -1.814   6.691  0.00  0.00    +0.050 C 
ENDBRANCH  20  23
ENDBRANCH  16  18
ENDBRANCH   3  16
TORSDOF 4
