REMARK  Name = ZINCrg00000L8BTw.0
REMARK                            x       y       z     vdW  Elec       q    Type
REMARK                         _______ _______ _______ _____ _____    ______ ____
ROOT
ATOM      1  N   LIG    1        1.641   3.230  -0.574  0.00  0.00    -0.520 NA
ATOM      2  C   LIG    1        0.825   4.215   0.148  0.00  0.00    +0.190 C 
ENDROOT
BRANCH   1   3
ATOM      3  C   LIG    1        1.474   1.887  -0.002  0.00  0.00    +0.130 C 
ATOM      4  C   LIG    1        2.092   0.807  -0.929  0.00  0.00    +0.050 C 
ATOM      5  C   LIG    1        1.274  -0.455  -0.582  0.00  0.00    +0.240 C 
ATOM      6  N   LIG    1        0.002  -0.004   0.002  0.00  0.00    -0.620 N 
ATOM      7  C   LIG    1       -0.982  -0.805   0.455  0.00  0.00    +0.530 C 
ATOM      8  O   LIG    1       -1.993  -0.322   0.919  0.00  0.00    -0.540 OA
ATOM      9  C   LIG    1       -0.018   1.470   0.010  0.00  0.00    +0.280 C 
BRANCH   7  10
ATOM     10  C   LIG    1       -0.827  -2.303   0.385  0.00  0.00    +0.050 C 
BRANCH  10  11
ATOM     11  C   LIG    1       -2.077  -2.973   0.960  0.00  0.00    +0.130 C 
BRANCH  11  12
ATOM     12  C   LIG    1       -1.922  -4.470   0.890  0.00  0.00    -0.180 A 
ATOM     13  C   LIG    1       -1.388  -5.266   1.834  0.00  0.00    +0.160 A 
ATOM     14  O   LIG    1       -1.432  -6.534   1.394  0.00  0.00    -0.180 OA
ATOM     15  C   LIG    1       -1.989  -6.565   0.173  0.00  0.00    +0.160 A 
ATOM     16  C   LIG    1       -2.314  -5.308  -0.178  0.00  0.00    -0.060 A 
ENDBRANCH  11  12
ENDBRANCH  10  11
ENDBRANCH   7  10
ENDBRANCH   1   3
BRANCH   1  17
ATOM     17  C   LIG    1        3.056   3.625  -0.585  0.00  0.00    +0.260 C 
BRANCH  17  20
ATOM     18  C   LIG    1        3.098   5.963  -3.433  0.00  0.00    +0.630 A 
ATOM     19  N   LIG    1        2.969   4.875  -2.701  0.00  0.00    -0.570 NA
ATOM     20  C   LIG    1        3.218   4.886  -1.393  0.00  0.00    +0.240 A 
ATOM     21  C   LIG    1        3.627   6.037  -0.785  0.00  0.00    -0.200 A 
ATOM     22  C   LIG    1        3.772   7.202  -1.560  0.00  0.00    +0.540 A 
ATOM     23  O   LIG    1        4.134   8.248  -1.048  0.00  0.00    -0.540 OA
ATOM     24  N   LIG    1        3.501   7.139  -2.881  0.00  0.00    -0.650 N 
ATOM     25  H   LIG    1        3.594   7.930  -3.435  0.00  0.00    +0.410 HD
BRANCH  18  27
ATOM     26  C   LIG    1        2.390   4.648  -5.381  0.00  0.00    +0.320 C 
ATOM     27  N   LIG    1        2.825   5.908  -4.774  0.00  0.00    -0.590 N 
ATOM     28  C   LIG    1        2.969   7.109  -5.601  0.00  0.00    +0.310 C 
ENDBRANCH  18  27
ENDBRANCH  17  20
ENDBRANCH   1  17
TORSDOF 7
