REMARK  Name = ZINCtj00000mgxzu.0
REMARK                            x       y       z     vdW  Elec       q    Type
REMARK                         _______ _______ _______ _____ _____    ______ ____
ROOT
ATOM      1  C   LIG    1       -3.661   6.112   3.019  0.00  0.00    +0.450 A 
ATOM      2  N   LIG    1       -4.921   6.144   3.450  0.00  0.00    -0.560 NA
ATOM      3  C   LIG    1       -5.474   7.276   3.836  0.00  0.00    +0.580 A 
ATOM      4  N   LIG    1       -4.819   8.418   3.805  0.00  0.00    -0.590 NA
ATOM      5  C   LIG    1       -3.557   8.471   3.382  0.00  0.00    +0.330 A 
ATOM      6  C   LIG    1       -2.933   7.297   2.970  0.00  0.00    -0.150 A 
ENDROOT
BRANCH   5   7
ATOM      7  N   LIG    1       -2.874   9.677   3.353  0.00  0.00    -0.480 N 
ATOM      8  C   LIG    1       -3.415  10.565   2.306  0.00  0.00    +0.200 C 
ATOM      9  C   LIG    1       -3.841  11.878   2.996  0.00  0.00    +0.170 C 
ATOM     10  C   LIG    1       -2.997  11.879   4.298  0.00  0.00    +0.090 C 
ATOM     11  C   LIG    1       -2.970  10.372   4.654  0.00  0.00    +0.150 C 
BRANCH   9  12
ATOM     12  O   LIG    1       -3.514  13.005   2.181  0.00  0.00    -0.550 OA
ATOM     13  H   LIG    1       -3.958  13.011   1.322  0.00  0.00    +0.390 HD
ENDBRANCH   9  12
BRANCH  11  14
ATOM     14  C   LIG    1       -1.750  10.051   5.520  0.00  0.00    +0.290 C 
BRANCH  14  15
ATOM     15  N   LIG    1       -1.600   8.594   5.635  0.00  0.00    -0.390 N 
ATOM     16  C   LIG    1       -2.786   8.030   6.292  0.00  0.00    +0.310 C 
ATOM     17  C   LIG    1       -0.405   8.286   6.432  0.00  0.00    +0.330 C 
ATOM     18  H   LIG    1       -1.503   8.193   4.714  0.00  0.00    +0.420 HD
ENDBRANCH  14  15
ENDBRANCH  11  14
ENDBRANCH   5   7
BRANCH   1  20
ATOM     19  C   LIG    1       -3.892   3.694   2.572  0.00  0.00    +0.310 C 
ATOM     20  N   LIG    1       -3.085   4.916   2.620  0.00  0.00    -0.580 N 
BRANCH  20  21
ATOM     21  C   LIG    1       -1.669   4.873   2.247  0.00  0.00    +0.330 C 
BRANCH  21  22
ATOM     22  C   LIG    1       -0.824   4.572   3.486  0.00  0.00    +0.190 C 
BRANCH  22  23
ATOM     23  O   LIG    1       -1.128   3.259   3.963  0.00  0.00    -0.300 OA
BRANCH  23  24
ATOM     24  C   LIG    1       -0.460   2.833   5.065  0.00  0.00    +0.170 A 
ATOM     25  C   LIG    1        0.470   3.658   5.677  0.00  0.00    -0.090 A 
ATOM     26  C   LIG    1        1.150   3.223   6.798  0.00  0.00    +0.090 A 
ATOM     27  C   LIG    1        0.909   1.962   7.318  0.00  0.00    -0.010 A 
ATOM     28  C   LIG    1       -0.014   1.129   6.723  0.00  0.00    +0.110 A 
ATOM     29  C   LIG    1       -0.704   1.554   5.585  0.00  0.00    -0.050 A 
BRANCH  29  30
ATOM     30  C   LIG    1       -1.659   0.692   4.958  0.00  0.00    +0.250 C 
ATOM     31  N   LIG    1       -2.417   0.007   4.461  0.00  0.00    -0.400 NA
ENDBRANCH  29  30
ENDBRANCH  23  24
ENDBRANCH  22  23
ENDBRANCH  21  22
ENDBRANCH  20  21
ENDBRANCH   1  20
TORSDOF 10
