REMARK  Name = ZINCpk000004ANtR.0
REMARK                            x       y       z     vdW  Elec       q    Type
REMARK                         _______ _______ _______ _____ _____    ______ ____
ROOT
ATOM      1  C   LIG    1       -3.603  -1.266  -1.496  0.00  0.00    +0.570 C 
ATOM      2  N   LIG    1       -3.370  -0.002  -1.092  0.00  0.00    -0.630 N 
ATOM      3  C   LIG    1       -4.089   0.959  -0.231  0.00  0.00    +0.330 C 
ATOM      4  C   LIG    1       -2.721   1.615  -0.004  0.00  0.00    +0.070 C 
ATOM      5  C   LIG    1       -2.761   3.143  -0.044  0.00  0.00    +0.300 C 
ATOM      6  N   LIG    1       -1.395   3.642   0.187  0.00  0.00    -0.610 N 
ATOM      7  C   LIG    1       -0.640   3.083   1.320  0.00  0.00    +0.280 C 
ATOM      8  C   LIG    1       -0.664   1.554   1.221  0.00  0.00    +0.100 C 
ATOM      9  C   LIG    1       -0.012   0.952   2.467  0.00  0.00    +0.080 C 
ATOM     10  C   LIG    1        0.107   1.111  -0.024  0.00  0.00    +0.030 C 
ATOM     11  C   LIG    1       -0.852   4.580  -0.614  0.00  0.00    +0.610 C 
ATOM     12  O   LIG    1        0.313   4.901  -0.474  0.00  0.00    -0.510 OA
ATOM     13  O   LIG    1       -2.020   1.106   1.128  0.00  0.00    -0.330 OA
ATOM     14  C   LIG    1       -2.292   0.979  -1.333  0.00  0.00    +0.260 C 
ATOM     15  O   LIG    1       -4.606  -1.847  -1.128  0.00  0.00    -0.540 OA
ENDROOT
BRANCH  11  16
ATOM     16  C   LIG    1       -1.667   5.215  -1.656  0.00  0.00    -0.090 A 
ATOM     17  C   LIG    1       -1.214   6.072  -2.617  0.00  0.00    -0.080 A 
ATOM     18  C   LIG    1       -2.326   6.429  -3.396  0.00  0.00    -0.040 A 
ATOM     19  C   LIG    1       -3.397   5.789  -2.876  0.00  0.00    +0.200 A 
ATOM     20  O   LIG    1       -2.996   5.059  -1.828  0.00  0.00    -0.160 OA
BRANCH  17  21
ATOM     21  C   LIG    1        0.205   6.542  -2.807  0.00  0.00    +0.280 C 
BRANCH  21  22
ATOM     22  O   LIG    1        0.266   7.432  -3.924  0.00  0.00    -0.390 OA
ATOM     23  C   LIG    1        1.575   7.939  -4.192  0.00  0.00    +0.200 C 
ENDBRANCH  21  22
ENDBRANCH  17  21
ENDBRANCH  11  16
BRANCH   1  25
ATOM     24  C   LIG    1       -2.875  -3.192  -2.780  0.00  0.00    +0.150 C 
ATOM     25  C   LIG    1       -2.644  -1.944  -2.382  0.00  0.00    -0.090 C 
ENDBRANCH   1  25
TORSDOF 4
