REMARK  Name = ZINCqH0000005sQc.0
REMARK                            x       y       z     vdW  Elec       q    Type
REMARK                         _______ _______ _______ _____ _____    ______ ____
ROOT
ATOM      1  C   LIG    1       -3.631  -1.222  -0.092  0.00  0.00    -0.690 A 
ATOM      2  C   LIG    1       -4.838  -0.559   0.070  0.00  0.00    +0.160 A 
ATOM      3  C   LIG    1       -4.871   0.815   0.182  0.00  0.00    +0.020 A 
ATOM      4  C   LIG    1       -3.684   1.548   0.134  0.00  0.00    +0.100 A 
ATOM      5  C   LIG    1       -2.457   0.873  -0.030  0.00  0.00    -0.150 A 
ATOM      6  C   LIG    1       -2.448  -0.517  -0.148  0.00  0.00    +0.150 A 
ENDROOT
BRANCH   4   7
ATOM      7  C   LIG    1       -3.713   3.017   0.255  0.00  0.00    -0.170 A 
ATOM      8  C   LIG    1       -4.232   3.704   1.295  0.00  0.00    +0.030 A 
ATOM      9  C   LIG    1       -4.143   5.074   1.181  0.00  0.00    +0.000 A 
ATOM     10  C   LIG    1       -3.559   5.514   0.061  0.00  0.00    -0.060 A 
ATOM     11  S   LIG    1       -3.071   4.146  -0.931  0.00  0.00    +0.190 S 
ENDBRANCH   4   7
BRANCH   5  12
ATOM     12  C   LIG    1       -1.194   1.632  -0.083  0.00  0.00    +0.550 C 
ATOM     13  N   LIG    1       -0.040   1.000  -0.375  0.00  0.00    -0.730 N 
ATOM     14  H   LIG    1       -0.041   0.046  -0.550  0.00  0.00    +0.400 HD
ATOM     15  O   LIG    1       -1.194   2.828   0.136  0.00  0.00    -0.500 OA
BRANCH  13  16
ATOM     16  C   LIG    1        1.214   1.754  -0.434  0.00  0.00    +0.240 C 
ATOM     17  C   LIG    1        1.322   2.438  -1.813  0.00  0.00    +0.020 C 
ATOM     18  C   LIG    1        2.294   3.581  -1.705  0.00  0.00    +0.000 C 
ATOM     19  C   LIG    1        3.725   3.178  -2.111  0.00  0.00    +0.000 C 
ATOM     20  C   LIG    1        4.131   1.794  -1.573  0.00  0.00    +0.000 C 
ATOM     21  C   LIG    1        3.683   1.573  -0.153  0.00  0.00    +0.030 C 
ATOM     22  C   LIG    1        2.322   0.847  -0.176  0.00  0.00    +0.010 C 
ENDBRANCH  13  16
ENDBRANCH   5  12
BRANCH   1  23
ATOM     23  S   LIG    1       -3.611  -2.978  -0.234  0.00  0.00    +2.700 S 
ATOM     24  O   LIG    1       -4.803  -3.445   0.385  0.00  0.00    -0.950 OA
ATOM     25  O   LIG    1       -2.313  -3.398   0.164  0.00  0.00    -0.950 OA
BRANCH  23  27
ATOM     26  C   LIG    1       -2.682  -2.958  -2.773  0.00  0.00    +0.300 C 
ATOM     27  N   LIG    1       -3.747  -3.341  -1.844  0.00  0.00    -1.120 NA
ATOM     28  H   LIG    1       -4.532  -3.808  -2.171  0.00  0.00    +0.420 HD
ENDBRANCH  23  27
ENDBRANCH   1  23
TORSDOF 5
