REMARK  Name = ZINCrH000004quYj.0
REMARK                            x       y       z     vdW  Elec       q    Type
REMARK                         _______ _______ _______ _____ _____    ______ ____
ROOT
ATOM      1  C   LIG    1       -0.896   2.840   1.317  0.00  0.00    +0.530 C 
ATOM      2  N   LIG    1       -0.998   1.530   1.017  0.00  0.00    -0.600 N 
ATOM      3  O   LIG    1       -1.268   3.245   2.398  0.00  0.00    -0.520 OA
ENDROOT
BRANCH   2   4
ATOM      4  C   LIG    1       -1.723   0.627   1.915  0.00  0.00    +0.270 C 
ATOM      5  C   LIG    1       -0.993   0.528   3.265  0.00  0.00    +0.060 C 
ATOM      6  C   LIG    1       -1.934  -0.138   4.289  0.00  0.00    -0.310 C 
ATOM      7  S   LIG    1       -3.623   0.278   3.723  0.00  0.00    +2.390 S 
ATOM      8  O   LIG    1       -4.223   1.173   4.649  0.00  0.00    -0.930 OA
ATOM      9  O   LIG    1       -4.301  -0.914   3.349  0.00  0.00    -0.940 OA
ATOM     10  C   LIG    1       -3.134   1.197   2.214  0.00  0.00    -0.310 C 
ENDBRANCH   2   4
BRANCH   2  11
ATOM     11  C   LIG    1       -0.384   1.008  -0.206  0.00  0.00    +0.240 C 
ATOM     12  C   LIG    1       -1.228   1.417  -1.415  0.00  0.00    +0.000 C 
ATOM     13  C   LIG    1       -0.587   0.873  -2.693  0.00  0.00    +0.020 C 
ATOM     14  C   LIG    1        0.824   1.445  -2.839  0.00  0.00    +0.010 C 
ATOM     15  C   LIG    1        1.669   1.036  -1.631  0.00  0.00    +0.030 C 
ATOM     16  C   LIG    1        1.027   1.581  -0.353  0.00  0.00    -0.010 C 
ENDBRANCH   2  11
BRANCH   1  17
ATOM     17  C   LIG    1       -0.318   3.800   0.310  0.00  0.00    +0.230 C 
BRANCH  17  18
ATOM     18  N   LIG    1       -0.785   5.161   0.607  0.00  0.00    -0.630 N 
ATOM     19  H   LIG    1       -0.478   5.457   1.521  0.00  0.00    +0.370 HD
BRANCH  18  24
ATOM     20  C   LIG    1        0.909   8.811  -3.390  0.00  0.00    +0.090 C 
ATOM     21  C   LIG    1        0.460   7.842  -2.328  0.00  0.00    -0.070 A 
ATOM     22  C   LIG    1       -0.798   7.271  -2.402  0.00  0.00    +0.020 A 
ATOM     23  C   LIG    1       -1.211   6.377  -1.434  0.00  0.00    -0.050 A 
ATOM     24  C   LIG    1       -0.368   6.060  -0.378  0.00  0.00    +0.090 A 
ATOM     25  C   LIG    1        0.896   6.636  -0.305  0.00  0.00    -0.070 A 
ATOM     26 CL   LIG    1        1.958   6.238   1.010  0.00  0.00    -0.070 Cl
ATOM     27  C   LIG    1       -2.579   5.751  -1.520  0.00  0.00    +0.100 C 
ATOM     28  C   LIG    1        1.305   7.524  -1.280  0.00  0.00    +0.020 A 
ENDBRANCH  18  24
ENDBRANCH  17  18
ENDBRANCH   1  17
TORSDOF 5
