REMARK  Name = ZINC9u0000000C6L.0
REMARK                            x       y       z     vdW  Elec       q    Type
REMARK                         _______ _______ _______ _____ _____    ______ ____
ROOT
ATOM      1 CL   LIG    1        1.273  -2.413  -0.022  0.00  0.00    +0.010 Cl
ATOM      2  C   LIG    1        1.214  -0.678  -0.013  0.00  0.00    -0.030 A 
ATOM      3  C   LIG    1        0.002  -0.004   0.002  0.00  0.00    +0.270 A 
ATOM      4  N   LIG    1       -0.016   1.315   0.009  0.00  0.00    -0.200 NA
ATOM      5  N   LIG    1        1.060   2.014   0.003  0.00  0.00    -0.210 NA
ATOM      6  C   LIG    1        2.259   1.462  -0.012  0.00  0.00    +0.130 A 
ATOM      7 CL   LIG    1        3.679   2.461  -0.019  0.00  0.00    +0.030 Cl
ATOM      8  C   LIG    1        2.381   0.079  -0.020  0.00  0.00    -0.030 A 
ATOM      9 CL   LIG    1        3.942  -0.682  -0.039  0.00  0.00    +0.020 Cl
ENDROOT
TORSDOF 0
