REMARK  Name = ZINCrH000004mmsO.0
REMARK                            x       y       z     vdW  Elec       q    Type
REMARK                         _______ _______ _______ _____ _____    ______ ____
ROOT
ATOM      1  C   LIG    1        1.121   2.013   0.002  0.00  0.00    +0.270 A 
ATOM      2  C   LIG    1        2.336   1.321  -0.013  0.00  0.00    -0.150 A 
ATOM      3  C   LIG    1        2.307  -0.061  -0.020  0.00  0.00    +0.370 A 
ATOM      4  N   LIG    1        1.139  -0.685  -0.012  0.00  0.00    -0.570 NA
ATOM      5  C   LIG    1        0.002  -0.004   0.002  0.00  0.00    +0.570 A 
ATOM      6  N   LIG    1       -0.016   1.319   0.009  0.00  0.00    -0.570 NA
ENDROOT
BRANCH   1  10
ATOM      7  C   LIG    1        1.057   6.264   0.026  0.00  0.00    +0.150 A 
ATOM      8  C   LIG    1       -0.136   5.553   0.033  0.00  0.00    -0.020 A 
ATOM      9  C   LIG    1       -0.119   4.175   0.026  0.00  0.00    +0.110 A 
ATOM     10  C   LIG    1        1.099   3.495   0.010  0.00  0.00    -0.100 A 
ATOM     11  C   LIG    1        2.295   4.212   0.009  0.00  0.00    +0.080 A 
ATOM     12  C   LIG    1        2.271   5.590   0.010  0.00  0.00    -0.090 A 
BRANCH   7  14
ATOM     13  C   LIG    1        2.299   8.290   0.026  0.00  0.00    +0.240 C 
ATOM     14  O   LIG    1        1.036   7.622   0.034  0.00  0.00    -0.310 OA
ENDBRANCH   7  14
ENDBRANCH   1  10
BRANCH   5  15
ATOM     15  N   LIG    1       -1.197  -0.695   0.010  0.00  0.00    -0.700 N 
ATOM     16  H   LIG    1       -2.037  -0.209   0.020  0.00  0.00    +0.410 HD
BRANCH  15  17
ATOM     17  C   LIG    1       -1.199  -2.160   0.002  0.00  0.00    +0.300 C 
BRANCH  17  18
ATOM     18  C   LIG    1       -2.642  -2.668   0.013  0.00  0.00    +0.130 C 
BRANCH  18  19
ATOM     19  C   LIG    1       -2.644  -4.175   0.005  0.00  0.00    +0.060 A 
ATOM     20  C   LIG    1       -3.261  -4.967   0.909  0.00  0.00    +0.090 A 
ATOM     21  N   LIG    1       -3.021  -6.263   0.541  0.00  0.00    -0.360 N 
ATOM     22  C   LIG    1       -3.396  -7.460   1.079  0.00  0.00    +0.210 A 
ATOM     23  C   LIG    1       -3.010  -8.621   0.508  0.00  0.00    +0.020 A 
ATOM     24  C   LIG    1       -2.215  -8.611  -0.650  0.00  0.00    +0.030 A 
ATOM     25  C   LIG    1       -1.834  -7.425  -1.196  0.00  0.00    -0.040 A 
ATOM     26  C   LIG    1       -0.982  -7.399  -2.438  0.00  0.00    +0.120 C 
ATOM     27  C   LIG    1       -2.246  -6.222  -0.589  0.00  0.00    +0.230 A 
ATOM     28  N   LIG    1       -2.031  -4.950  -0.893  0.00  0.00    -0.480 NA
ENDBRANCH  18  19
ENDBRANCH  17  18
ENDBRANCH  15  17
ENDBRANCH   5  15
TORSDOF 6
