REMARK  Name = ZINCb80000002obB.0
REMARK                            x       y       z     vdW  Elec       q    Type
REMARK                         _______ _______ _______ _____ _____    ______ ____
ROOT
ATOM      1  C   LIG    1       -1.343   1.910   0.019  0.00  0.00    +0.190 C 
ATOM      2  N   LIG    1       -1.175   3.313  -0.377  0.00  0.00    -0.670 NA
ATOM      3  H   LIG    1       -0.996   3.386  -1.368  0.00  0.00    +0.350 HD
ATOM      4  C   LIG    1       -0.093   3.938   0.401  0.00  0.00    +0.220 C 
ATOM      5  C   LIG    1        1.240   3.322  -0.028  0.00  0.00    +0.220 C 
ATOM      6  N   LIG    1        1.151   1.865   0.001  0.00  0.00    -0.610 N 
ATOM      7  C   LIG    1       -0.014   1.209   0.009  0.00  0.00    +0.480 C 
ATOM      8  O   LIG    1        0.002  -0.004   0.002  0.00  0.00    -0.540 OA
ENDROOT
BRANCH   1  10
ATOM      9  C   LIG    1       -3.682   1.848  -0.858  0.00  0.00    +0.040 C 
ATOM     10  C   LIG    1       -2.293   1.214  -0.958  0.00  0.00    +0.030 C 
ENDBRANCH   1  10
BRANCH   6  11
ATOM     11  C   LIG    1        2.392   1.088   0.022  0.00  0.00    +0.270 C 
ATOM     12  C   LIG    1        2.831   0.788  -1.412  0.00  0.00    +0.010 C 
ENDBRANCH   6  11
TORSDOF 2
