REMARK  Name = ZINCrH000004sldn.0
REMARK                            x       y       z     vdW  Elec       q    Type
REMARK                         _______ _______ _______ _____ _____    ______ ____
ROOT
ATOM      1  C   LIG    1        0.736   3.829  -2.291  0.00  0.00    +0.540 C 
ATOM      2  N   LIG    1        0.788   4.035  -0.961  0.00  0.00    -0.610 N 
ATOM      3  C   LIG    1       -0.045   4.987  -0.205  0.00  0.00    +0.260 C 
ATOM      4  C   LIG    1        0.772   5.304   1.072  0.00  0.00    +0.040 C 
ATOM      5  C   LIG    1        1.411   3.924   1.383  0.00  0.00    +0.060 C 
ATOM      6  C   LIG    1        1.687   3.347  -0.022  0.00  0.00    +0.310 C 
ATOM      7  O   LIG    1        1.474   3.017  -2.809  0.00  0.00    -0.530 OA
ENDROOT
BRANCH   6   8
ATOM      8  C   LIG    1        1.404   1.867  -0.032  0.00  0.00    +0.280 A 
ATOM      9  N   LIG    1        0.217   1.335  -0.014  0.00  0.00    -0.480 NA
ATOM     10  C   LIG    1        0.323  -0.018  -0.031  0.00  0.00    +0.050 A 
ATOM     11  C   LIG    1       -0.610  -1.058  -0.025  0.00  0.00    +0.070 A 
ATOM     12  C   LIG    1       -0.183  -2.356  -0.048  0.00  0.00    +0.000 A 
ATOM     13  C   LIG    1        1.171  -2.655  -0.080  0.00  0.00    +0.030 A 
ATOM     14  C   LIG    1        2.110  -1.645  -0.087  0.00  0.00    +0.010 A 
ATOM     15  C   LIG    1        1.696  -0.321  -0.063  0.00  0.00    +0.050 A 
ATOM     16  N   LIG    1        2.353   0.893  -0.063  0.00  0.00    -0.480 N 
ATOM     17  C   LIG    1        3.804   1.094  -0.090  0.00  0.00    +0.340 C 
ENDBRANCH   6   8
BRANCH   1  18
ATOM     18  C   LIG    1       -0.238   4.608  -3.137  0.00  0.00    +0.060 C 
BRANCH  18  19
ATOM     19  C   LIG    1       -0.094   4.187  -4.601  0.00  0.00    +0.090 C 
ATOM     20  C   LIG    1        1.277   4.621  -5.123  0.00  0.00    +0.020 C 
BRANCH  19  28
ATOM     21  C   LIG    1       -0.404   7.296  -5.130  0.00  0.00    +0.150 C 
ATOM     22  C   LIG    1       -1.312   6.214  -5.655  0.00  0.00    +0.090 A 
ATOM     23  N   LIG    1       -2.364   6.396  -6.412  0.00  0.00    -0.290 NA
ATOM     24  N   LIG    1       -2.936   5.145  -6.675  0.00  0.00    -0.480 N 
ATOM     25  H   LIG    1       -3.730   4.981  -7.208  0.00  0.00    +0.440 HD
ATOM     26  C   LIG    1       -2.188   4.208  -6.056  0.00  0.00    +0.090 A 
ATOM     27  C   LIG    1       -2.436   2.722  -6.068  0.00  0.00    +0.140 C 
ATOM     28  C   LIG    1       -1.175   4.842  -5.421  0.00  0.00    -0.230 A 
ENDBRANCH  19  28
ENDBRANCH  18  19
ENDBRANCH   1  18
TORSDOF 4
