REMARK  Name = ZINCvU00000006TL.0
REMARK                            x       y       z     vdW  Elec       q    Type
REMARK                         _______ _______ _______ _____ _____    ______ ____
ROOT
ATOM      1  C   LIG    1        4.680   5.613  -0.080  0.00  0.00    +0.160 C 
ATOM      2  C   LIG    1        4.894   4.134   0.114  0.00  0.00    +0.220 A 
ATOM      3  N   LIG    1        6.115   3.660   0.245  0.00  0.00    -0.470 NA
ATOM      4  C   LIG    1        6.336   2.353   0.418  0.00  0.00    +0.290 A 
ATOM      5  C   LIG    1        7.510   1.606   0.581  0.00  0.00    -0.200 A 
ATOM      6  C   LIG    1        7.131   0.266   0.722  0.00  0.00    +0.310 A 
ATOM      7  N   LIG    1        5.825   0.185   0.653  0.00  0.00    -0.300 NA
ATOM      8  N   LIG    1        5.294   1.465   0.464  0.00  0.00    -0.300 N 
ATOM      9  C   LIG    1        4.008   1.921   0.331  0.00  0.00    +0.160 A 
ATOM     10  C   LIG    1        3.797   3.273   0.147  0.00  0.00    -0.090 A 
ENDROOT
BRANCH   5  11
ATOM     11  C   LIG    1        8.893   2.136   0.599  0.00  0.00    +0.010 A 
ATOM     12  C   LIG    1        9.330   2.987  -0.415  0.00  0.00    +0.020 A 
ATOM     13  C   LIG    1       10.618   3.481  -0.390  0.00  0.00    +0.000 A 
ATOM     14  C   LIG    1       11.479   3.125   0.633  0.00  0.00    +0.000 A 
ATOM     15  C   LIG    1       11.053   2.276   1.639  0.00  0.00    +0.000 A 
ATOM     16  C   LIG    1        9.765   1.780   1.628  0.00  0.00    +0.010 A 
ENDBRANCH   5  11
BRANCH   9  17
ATOM     17  S   LIG    1        2.649   0.802   0.386  0.00  0.00    +0.100 S 
BRANCH  17  18
ATOM     18  C   LIG    1        1.277   1.961   0.161  0.00  0.00    +0.100 C 
BRANCH  18  19
ATOM     19  C   LIG    1       -0.027   1.205   0.175  0.00  0.00    +0.540 C 
ATOM     20  N   LIG    1       -1.191   1.867   0.018  0.00  0.00    -0.660 N 
ATOM     21  H   LIG    1       -1.196   2.836  -0.023  0.00  0.00    +0.420 HD
ATOM     22  O   LIG    1       -0.028   0.001   0.322  0.00  0.00    -0.490 OA
BRANCH  20  23
ATOM     23  C   LIG    1       -2.391   1.155  -0.086  0.00  0.00    +0.140 A 
ATOM     24  C   LIG    1       -2.412  -0.088  -0.704  0.00  0.00    +0.060 A 
ATOM     25  C   LIG    1       -3.597  -0.790  -0.800  0.00  0.00    +0.040 A 
ATOM     26  C   LIG    1       -4.765  -0.251  -0.291  0.00  0.00    +0.060 A 
ATOM     27  C   LIG    1       -4.748   0.989   0.320  0.00  0.00    -0.160 A 
ATOM     28  C   LIG    1       -3.566   1.694   0.424  0.00  0.00    +0.050 A 
BRANCH  27  29
ATOM     29  C   LIG    1       -6.023   1.573   0.872  0.00  0.00    +0.510 C 
ATOM     30  F   LIG    1       -5.725   2.394   1.965  0.00  0.00    -0.180 F 
ATOM     31  F   LIG    1       -6.870   0.538   1.284  0.00  0.00    -0.170 F 
ATOM     32  F   LIG    1       -6.658   2.329  -0.119  0.00  0.00    -0.170 F 
ENDBRANCH  27  29
ENDBRANCH  20  23
ENDBRANCH  18  19
ENDBRANCH  17  18
ENDBRANCH   9  17
TORSDOF 6
