REMARK  Name = ZINCvU00000003JS.0
REMARK                            x       y       z     vdW  Elec       q    Type
REMARK                         _______ _______ _______ _____ _____    ______ ____
ROOT
ATOM      1  C   LIG    1       -2.995   4.785   1.613  0.00  0.00    +0.510 C 
ATOM      2  N   LIG    1       -2.766   3.479   1.852  0.00  0.00    -0.670 N 
ATOM      3  H   LIG    1       -3.437   2.943   2.303  0.00  0.00    +0.410 HD
ATOM      4  O   LIG    1       -2.200   5.432   0.965  0.00  0.00    -0.500 OA
ENDROOT
BRANCH   2   5
ATOM      5  C   LIG    1       -1.558   2.894   1.449  0.00  0.00    +0.090 A 
ATOM      6  C   LIG    1       -1.534   1.575   1.019  0.00  0.00    +0.040 A 
ATOM      7  C   LIG    1       -0.343   0.997   0.628  0.00  0.00    -0.040 A 
ATOM      8  C   LIG    1        0.830   1.740   0.654  0.00  0.00    +0.210 A 
ATOM      9  C   LIG    1        0.806   3.062   1.079  0.00  0.00    -0.030 A 
ATOM     10  C   LIG    1       -0.385   3.637   1.475  0.00  0.00    +0.060 A 
BRANCH   8  11
ATOM     11  N   LIG    1        2.037   1.156   0.252  0.00  0.00    -0.580 N 
BRANCH  11  12
ATOM     12  C   LIG    1        3.194   1.935   0.163  0.00  0.00    +0.160 A 
ATOM     13  C   LIG    1        3.335   2.856  -0.868  0.00  0.00    +0.000 A 
ATOM     14  C   LIG    1        4.478   3.627  -0.950  0.00  0.00    +0.020 A 
ATOM     15  C   LIG    1        5.485   3.476  -0.014  0.00  0.00    +0.000 A 
ATOM     16  C   LIG    1        5.349   2.556   1.010  0.00  0.00    +0.010 A 
ATOM     17  C   LIG    1        4.207   1.785   1.101  0.00  0.00    +0.000 A 
ENDBRANCH  11  12
BRANCH  11  18
ATOM     18  C   LIG    1        2.087  -0.271  -0.075  0.00  0.00    +0.240 C 
ATOM     19  C   LIG    1        3.108  -0.965   0.829  0.00  0.00    +0.020 C 
ATOM     20  C   LIG    1        2.500  -0.445  -1.538  0.00  0.00    +0.030 C 
ENDBRANCH  11  18
ENDBRANCH   8  11
ENDBRANCH   2   5
BRANCH   1  21
ATOM     21  C   LIG    1       -4.241   5.442   2.150  0.00  0.00    +0.270 C 
BRANCH  21  22
ATOM     22  O   LIG    1       -4.257   6.841   1.760  0.00  0.00    -0.330 OA
BRANCH  22  23
ATOM     23  C   LIG    1       -5.311   7.576   2.164  0.00  0.00    +0.510 C 
ATOM     24  O   LIG    1       -6.193   7.063   2.823  0.00  0.00    -0.490 OA
BRANCH  23  29
ATOM     25  C   LIG    1       -5.632  13.148   0.760  0.00  0.00    +0.100 C 
ATOM     26  C   LIG    1       -5.551  11.689   1.130  0.00  0.00    -0.030 A 
ATOM     27  C   LIG    1       -4.467  10.933   0.715  0.00  0.00    -0.010 A 
ATOM     28  C   LIG    1       -4.380   9.600   1.052  0.00  0.00    +0.110 A 
ATOM     29  C   LIG    1       -5.395   9.004   1.806  0.00  0.00    -0.170 A 
ATOM     30  C   LIG    1       -6.490   9.773   2.223  0.00  0.00    +0.180 A 
ATOM     31  C   LIG    1       -6.558  11.115   1.880  0.00  0.00    -0.020 A 
BRANCH  30  32
ATOM     32  O   LIG    1       -7.479   9.207   2.959  0.00  0.00    -0.480 OA
ATOM     33  H   LIG    1       -7.335   9.254   3.914  0.00  0.00    +0.400 HD
ENDBRANCH  30  32
ENDBRANCH  23  29
ENDBRANCH  22  23
ENDBRANCH  21  22
ENDBRANCH   1  21
TORSDOF 9
