REMARK  Name = ZINCtV000002zUjW.0
REMARK                            x       y       z     vdW  Elec       q    Type
REMARK                         _______ _______ _______ _____ _____    ______ ____
ROOT
ATOM      1  S   LIG    1        0.458   1.742  -0.182  0.00  0.00    -0.170 S 
ENDROOT
BRANCH   1   2
ATOM      2  C   LIG    1        2.264   1.713  -0.012  0.00  0.00    +0.070 C 
BRANCH   2   3
ATOM      3  C   LIG    1        2.804   3.113  -0.144  0.00  0.00    +0.450 C 
ATOM      4  O   LIG    1        2.044   4.041  -0.334  0.00  0.00    -0.450 OA
BRANCH   3   8
ATOM      5  N   LIG    1        6.213   4.356   0.009  0.00  0.00    -0.430 N 
ATOM      6  C   LIG    1        6.459   3.028   0.203  0.00  0.00    +0.010 A 
ATOM      7  C   LIG    1        5.296   2.355   0.183  0.00  0.00    +0.000 A 
ATOM      8  C   LIG    1        4.244   3.355  -0.043  0.00  0.00    -0.260 A 
ATOM      9  C   LIG    1        7.820   2.413   0.408  0.00  0.00    +0.130 C 
ATOM     10  C   LIG    1        4.894   4.571  -0.146  0.00  0.00    +0.120 A 
ATOM     11  C   LIG    1        4.239   5.906  -0.387  0.00  0.00    +0.150 C 
BRANCH   5  12
ATOM     12  C   LIG    1        7.240   5.399  -0.032  0.00  0.00    +0.300 C 
BRANCH  12  13
ATOM     13  C   LIG    1        7.729   5.578  -1.470  0.00  0.00    +0.170 C 
BRANCH  13  15
ATOM     14  C   LIG    1        9.257   6.843  -2.816  0.00  0.00    +0.210 C 
ATOM     15  O   LIG    1        8.731   6.596  -1.510  0.00  0.00    -0.390 OA
ENDBRANCH  13  15
ENDBRANCH  12  13
ENDBRANCH   5  12
ENDBRANCH   3   8
ENDBRANCH   2   3
ENDBRANCH   1   2
BRANCH   1  16
ATOM     16  C   LIG    1        0.002  -0.004   0.002  0.00  0.00    +0.110 C 
BRANCH  16  17
ATOM     17  C   LIG    1       -1.499  -0.134   0.006  0.00  0.00    -0.060 A 
ATOM     18  C   LIG    1       -2.246   0.451  -1.000  0.00  0.00    +0.050 A 
ATOM     19  C   LIG    1       -3.623   0.328  -1.000  0.00  0.00    +0.030 A 
ATOM     20  C   LIG    1       -4.254  -0.371   0.013  0.00  0.00    -0.030 A 
ATOM     21  C   LIG    1       -3.507  -0.951   1.023  0.00  0.00    +0.030 A 
ATOM     22 CL   LIG    1       -5.984  -0.520   0.018  0.00  0.00    -0.070 Cl
ATOM     23  C   LIG    1       -2.130  -0.832   1.019  0.00  0.00    +0.040 A 
ENDBRANCH  16  17
BRANCH  16  24
ATOM     24  C   LIG    1        0.572  -0.796  -1.147  0.00  0.00    -0.090 A 
ATOM     25  C   LIG    1        1.324  -1.929  -0.899  0.00  0.00    +0.010 A 
ATOM     26  C   LIG    1        1.843  -2.658  -1.953  0.00  0.00    +0.000 A 
ATOM     27  C   LIG    1        1.617  -2.248  -3.254  0.00  0.00    +0.000 A 
ATOM     28  C   LIG    1        0.869  -1.113  -3.501  0.00  0.00    +0.000 A 
ATOM     29  C   LIG    1        0.346  -0.386  -2.448  0.00  0.00    +0.030 A 
ENDBRANCH  16  24
ENDBRANCH   1  16
TORSDOF 9
