REMARK  Name = ZINCrH000004n0Dx.0
REMARK                            x       y       z     vdW  Elec       q    Type
REMARK                         _______ _______ _______ _____ _____    ______ ____
ROOT
ATOM      1  C   LIG    1       -1.337   1.840  -0.076  0.00  0.00    +0.030 C 
ATOM      2  C   LIG    1       -2.151   1.689   1.236  0.00  0.00    +0.050 C 
ATOM      3  C   LIG    1       -3.595   1.993   0.784  0.00  0.00    +0.230 C 
ATOM      4  N   LIG    1       -3.658   1.754  -0.666  0.00  0.00    -0.630 N 
ATOM      5  C   LIG    1       -4.745   1.925  -1.444  0.00  0.00    +0.720 C 
ATOM      6  N   LIG    1       -5.902   2.352  -0.901  0.00  0.00    -0.680 N 
ATOM      7  H   LIG    1       -5.975   2.462   0.060  0.00  0.00    +0.410 HD
ATOM      8  O   LIG    1       -4.681   1.695  -2.636  0.00  0.00    -0.570 OA
ATOM      9  C   LIG    1       -2.335   1.293  -1.126  0.00  0.00    +0.280 C 
ENDROOT
BRANCH   6  10
ATOM     10  C   LIG    1       -6.998   2.637  -1.723  0.00  0.00    +0.170 A 
ATOM     11  C   LIG    1       -6.796   3.157  -2.995  0.00  0.00    +0.030 A 
ATOM     12  C   LIG    1       -7.880   3.433  -3.807  0.00  0.00    +0.060 A 
ATOM     13  C   LIG    1       -9.161   3.202  -3.351  0.00  0.00    -0.150 A 
ATOM     14  C   LIG    1      -10.522   3.401  -3.978  0.00  0.00    +0.270 C 
ATOM     15  O   LIG    1      -11.435   2.603  -3.202  0.00  0.00    -0.360 OA
ATOM     16  C   LIG    1      -10.858   2.554  -1.885  0.00  0.00    +0.270 C 
ATOM     17  C   LIG    1       -9.366   2.688  -2.079  0.00  0.00    -0.110 A 
ATOM     18  C   LIG    1       -8.290   2.405  -1.266  0.00  0.00    +0.010 A 
ENDBRANCH   6  10
BRANCH   1  22
ATOM     19  C   LIG    1        2.213  -0.542   0.034  0.00  0.00    +0.100 A 
ATOM     20  C   LIG    1        0.970  -1.140   0.155  0.00  0.00    -0.030 A 
ATOM     21  C   LIG    1       -0.176  -0.367   0.121  0.00  0.00    +0.020 A 
ATOM     22  C   LIG    1       -0.085   1.003  -0.033  0.00  0.00    -0.070 A 
ATOM     23  C   LIG    1        1.153   1.607  -0.155  0.00  0.00    -0.020 A 
ATOM     24  C   LIG    1        2.305   0.839  -0.122  0.00  0.00    +0.100 A 
BRANCH  19  26
ATOM     25  C   LIG    1        3.170  -2.710   0.228  0.00  0.00    +0.250 C 
ATOM     26  O   LIG    1        3.341  -1.301   0.066  0.00  0.00    -0.310 OA
ENDBRANCH  19  26
BRANCH  24  27
ATOM     27  O   LIG    1        3.524   1.431  -0.241  0.00  0.00    -0.310 OA
ATOM     28  C   LIG    1        3.542   2.851  -0.398  0.00  0.00    +0.250 C 
ENDBRANCH  24  27
ENDBRANCH   1  22
TORSDOF 4
