REMARK  Name = ZINCpk000004ANMl.0
REMARK                            x       y       z     vdW  Elec       q    Type
REMARK                         _______ _______ _______ _____ _____    ______ ____
ROOT
ATOM      1  C   LIG    1       -5.717   5.612  -1.758  0.00  0.00    +0.550 C 
ATOM      2  N   LIG    1       -6.986   5.157  -1.761  0.00  0.00    -0.640 N 
ATOM      3  C   LIG    1       -7.774   4.212  -0.956  0.00  0.00    +0.270 C 
ATOM      4  C   LIG    1       -9.027   5.015  -1.344  0.00  0.00    +0.140 C 
ATOM      5  C   LIG    1       -8.189   5.380  -2.577  0.00  0.00    +0.320 C 
ATOM      6  O   LIG    1       -5.359   6.416  -2.593  0.00  0.00    -0.530 OA
ENDROOT
BRANCH   1  11
ATOM      7  C   LIG    1       -1.193   3.196   0.025  0.00  0.00    +0.550 C 
ATOM      8  N   LIG    1       -2.367   3.849   0.136  0.00  0.00    -0.610 N 
ATOM      9  C   LIG    1       -3.630   3.107   0.243  0.00  0.00    +0.280 C 
ATOM     10  C   LIG    1       -4.593   3.605  -0.833  0.00  0.00    +0.020 C 
ATOM     11  C   LIG    1       -4.744   5.123  -0.716  0.00  0.00    +0.000 C 
ATOM     12  C   LIG    1       -3.385   5.791  -0.935  0.00  0.00    +0.050 C 
ATOM     13  C   LIG    1       -2.408   5.318   0.146  0.00  0.00    +0.280 C 
ATOM     14  O   LIG    1       -1.179   1.984  -0.078  0.00  0.00    -0.540 OA
BRANCH   7  16
ATOM     15  C   LIG    1        1.231   3.299   0.019  0.00  0.00    +0.140 C 
ATOM     16  C   LIG    1        0.071   3.948   0.028  0.00  0.00    -0.090 C 
ENDBRANCH   7  16
ENDBRANCH   1  11
BRANCH   4  17
ATOM     17  C   LIG    1      -10.233   4.163  -1.647  0.00  0.00    -0.050 A 
ATOM     18  C   LIG    1      -10.211   3.291  -2.719  0.00  0.00    -0.010 A 
ATOM     19  C   LIG    1      -11.316   2.505  -2.995  0.00  0.00    +0.140 A 
ATOM     20  C   LIG    1      -12.448   2.600  -2.204  0.00  0.00    -0.040 A 
ATOM     21  C   LIG    1      -12.471   3.478  -1.134  0.00  0.00    +0.140 A 
ATOM     22  F   LIG    1      -13.575   3.573  -0.361  0.00  0.00    -0.120 F 
ATOM     23  F   LIG    1      -11.293   1.649  -4.040  0.00  0.00    -0.120 F 
ATOM     24  C   LIG    1      -11.362   4.260  -0.856  0.00  0.00    -0.010 A 
ENDBRANCH   4  17
BRANCH   4  25
ATOM     25  O   LIG    1       -9.316   6.118  -0.484  0.00  0.00    -0.520 OA
ATOM     26  H   LIG    1       -9.844   5.885   0.292  0.00  0.00    +0.380 HD
ENDBRANCH   4  25
TORSDOF 4
