REMARK  Name = ZINCrD0000074GYJ.0
REMARK                            x       y       z     vdW  Elec       q    Type
REMARK                         _______ _______ _______ _____ _____    ______ ____
ROOT
ATOM      1  N   LIG    1       -0.689   1.866  10.879  0.00  0.00    -0.660 N 
ATOM      2  H   LIG    1       -1.442   2.469  10.985  0.00  0.00    +0.430 HD
ATOM      3  C   LIG    1       -0.240   1.560   9.646  0.00  0.00    +0.520 C 
ATOM      4  O   LIG    1        0.762   0.889   9.514  0.00  0.00    -0.490 OA
ENDROOT
BRANCH   1   9
ATOM      5  C   LIG    1        1.822  -0.370  15.448  0.00  0.00    +0.120 C 
ATOM      6  C   LIG    1        1.155   0.224  14.234  0.00  0.00    -0.100 A 
ATOM      7  C   LIG    1        1.223  -0.432  13.019  0.00  0.00    +0.110 A 
ATOM      8  C   LIG    1        0.613   0.110  11.905  0.00  0.00    +0.040 A 
ATOM      9  C   LIG    1       -0.070   1.315  12.006  0.00  0.00    +0.220 A 
ATOM     10  C   LIG    1       -0.132   1.974  13.226  0.00  0.00    -0.080 A 
ATOM     11  C   LIG    1        0.476   1.425  14.338  0.00  0.00    +0.120 A 
BRANCH  10  12
ATOM     12  N   LIG    1       -0.853   3.262  13.337  0.00  0.00    +0.040 N 
ATOM     13  O   LIG    1       -1.468   3.700  12.381  0.00  0.00    -0.190 OA
ATOM     14  O   LIG    1       -0.831   3.884  14.384  0.00  0.00    -0.140 OA
ENDBRANCH  10  12
ENDBRANCH   1   9
BRANCH   3  15
ATOM     15  C   LIG    1       -0.982   2.053   8.430  0.00  0.00    +0.290 C 
BRANCH  15  16
ATOM     16  O   LIG    1       -0.304   1.594   7.230  0.00  0.00    -0.330 OA
BRANCH  16  17
ATOM     17  C   LIG    1       -0.843   1.951   6.049  0.00  0.00    +0.520 C 
ATOM     18  O   LIG    1       -1.853   2.627   6.021  0.00  0.00    -0.490 OA
BRANCH  17  19
ATOM     19  C   LIG    1       -0.208   1.520   4.786  0.00  0.00    -0.090 A 
ATOM     20  C   LIG    1        0.952   0.744   4.815  0.00  0.00    +0.070 A 
ATOM     21  C   LIG    1        1.544   0.344   3.634  0.00  0.00    +0.050 A 
ATOM     22  C   LIG    1        0.988   0.705   2.421  0.00  0.00    -0.010 A 
ATOM     23  C   LIG    1       -0.163   1.481   2.382  0.00  0.00    +0.100 A 
ATOM     24  C   LIG    1       -0.764   1.888   3.561  0.00  0.00    +0.080 A 
BRANCH  23  25
ATOM     25  O   LIG    1       -0.702   1.837   1.186  0.00  0.00    -0.320 OA
BRANCH  25  26
ATOM     26  C   LIG    1       -0.029   1.383   0.010  0.00  0.00    +0.600 C 
ATOM     27  F   LIG    1        1.277   1.883  -0.002  0.00  0.00    -0.200 F 
ATOM     28  F   LIG    1        0.007  -0.016   0.005  0.00  0.00    -0.200 F 
ENDBRANCH  25  26
ENDBRANCH  23  25
ENDBRANCH  17  19
ENDBRANCH  16  17
ENDBRANCH  15  16
ENDBRANCH   3  15
TORSDOF 8
