REMARK  Name = ZINCqH0000036NlK.0
REMARK                            x       y       z     vdW  Elec       q    Type
REMARK                         _______ _______ _______ _____ _____    ______ ____
ROOT
ATOM      1  C   LIG    1       -5.820   6.774  -0.301  0.00  0.00    +0.110 A 
ATOM      2  C   LIG    1       -5.242   7.976  -0.360  0.00  0.00    -0.130 A 
ATOM      3  S   LIG    1       -3.507   7.739  -0.551  0.00  0.00    +0.250 S 
ATOM      4  C   LIG    1       -3.727   6.043  -0.541  0.00  0.00    +0.240 A 
ATOM      5  N   LIG    1       -4.984   5.758  -0.400  0.00  0.00    -0.480 NA
ENDROOT
BRANCH   4   6
ATOM      6  N   LIG    1       -2.707   5.108  -0.661  0.00  0.00    -0.610 N 
ATOM      7  H   LIG    1       -2.914   4.161  -0.642  0.00  0.00    +0.430 HD
ATOM      8  C   LIG    1       -1.431   5.517  -0.803  0.00  0.00    +0.610 C 
ATOM      9  O   LIG    1       -1.172   6.706  -0.828  0.00  0.00    -0.490 OA
BRANCH   8  10
ATOM     10  C   LIG    1       -0.355   4.530  -0.930  0.00  0.00    -0.090 A 
ATOM     11  C   LIG    1        0.974   4.807  -1.079  0.00  0.00    +0.070 A 
ATOM     12  C   LIG    1        1.637   3.572  -1.159  0.00  0.00    -0.070 A 
ATOM     13  C   LIG    1        0.695   2.608  -1.057  0.00  0.00    +0.230 A 
ATOM     14  O   LIG    1       -0.504   3.189  -0.924  0.00  0.00    -0.160 OA
ENDBRANCH   8  10
ENDBRANCH   4   6
BRANCH   1  15
ATOM     15  C   LIG    1       -7.306   6.593  -0.133  0.00  0.00    +0.160 C 
BRANCH  15  17
ATOM     16  N   LIG    1       -9.149   5.430  -1.304  0.00  0.00    -0.610 N 
ATOM     17  C   LIG    1       -7.836   5.729  -1.248  0.00  0.00    +0.520 C 
ATOM     18  O   LIG    1       -7.081   5.303  -2.096  0.00  0.00    -0.520 OA
ATOM     19  C   LIG    1      -10.062   5.945  -0.279  0.00  0.00    +0.290 C 
BRANCH  16  21
ATOM     20  C   LIG    1      -10.439   3.412  -1.796  0.00  0.00    +0.030 C 
ATOM     21  C   LIG    1       -9.664   4.591  -2.388  0.00  0.00    +0.290 C 
BRANCH  21  22
ATOM     22  C   LIG    1      -10.582   5.406  -3.263  0.00  0.00    -0.100 A 
ATOM     23  C   LIG    1      -11.700   6.009  -2.718  0.00  0.00    +0.010 A 
ATOM     24  C   LIG    1      -12.539   6.761  -3.519  0.00  0.00    +0.000 A 
ATOM     25  C   LIG    1      -12.264   6.902  -4.867  0.00  0.00    +0.000 A 
ATOM     26  C   LIG    1      -11.149   6.294  -5.412  0.00  0.00    +0.000 A 
ATOM     27  C   LIG    1      -10.308   5.546  -4.610  0.00  0.00    +0.020 A 
ENDBRANCH  21  22
ENDBRANCH  16  21
ENDBRANCH  15  17
ENDBRANCH   1  15
TORSDOF 6
