REMARK  Name = ZINCpk00000KfKPj.0
REMARK                            x       y       z     vdW  Elec       q    Type
REMARK                         _______ _______ _______ _____ _____    ______ ____
ROOT
ATOM      1  C   LIG    1       -0.875   1.660  -6.793  0.00  0.00    +0.180 C 
ENDROOT
BRANCH   1   2
ATOM      2  N   LIG    1       -1.057   1.782  -5.341  0.00  0.00    -0.510 NA
ATOM      3  C   LIG    1       -1.268   0.467  -4.723  0.00  0.00    +0.180 C 
ATOM      4  C   LIG    1       -1.597   0.645  -3.240  0.00  0.00    +0.040 C 
ATOM      5  C   LIG    1       -0.440   1.373  -2.549  0.00  0.00    +0.270 C 
ATOM      6  C   LIG    1       -0.210   2.719  -3.242  0.00  0.00    +0.030 C 
ATOM      7  C   LIG    1        0.079   2.481  -4.726  0.00  0.00    +0.180 C 
BRANCH   5   8
ATOM      8  N   LIG    1       -0.775   1.598  -1.141  0.00  0.00    -0.630 N 
ATOM      9  C   LIG    1       -0.013   1.086   0.008  0.00  0.00    +0.250 C 
ATOM     10  C   LIG    1       -0.788   1.609   1.233  0.00  0.00    +0.250 C 
ATOM     11  N   LIG    1       -1.909   2.361   0.641  0.00  0.00    -0.750 N 
ATOM     12  H   LIG    1       -2.599   2.825   1.139  0.00  0.00    +0.430 HD
ATOM     13  C   LIG    1       -1.823   2.303  -0.695  0.00  0.00    +0.700 C 
ATOM     14  O   LIG    1       -2.623   2.841  -1.435  0.00  0.00    -0.570 OA
ENDBRANCH   5   8
ENDBRANCH   1   2
BRANCH   1  15
ATOM     15  C   LIG    1       -0.421   2.982  -7.356  0.00  0.00    -0.090 A 
ATOM     16  C   LIG    1       -0.972   4.159  -6.886  0.00  0.00    +0.050 A 
ATOM     17  C   LIG    1       -0.552   5.372  -7.399  0.00  0.00    +0.000 A 
ATOM     18  C   LIG    1        0.413   5.407  -8.389  0.00  0.00    +0.010 A 
ATOM     19  C   LIG    1        0.960   4.229  -8.863  0.00  0.00    +0.000 A 
ATOM     20  C   LIG    1        0.543   3.016  -8.346  0.00  0.00    +0.010 A 
ENDBRANCH   1  15
BRANCH   1  22
ATOM     21  O   LIG    1       -3.168   1.102  -6.743  0.00  0.00    -0.510 OA
ATOM     22  C   LIG    1       -2.183   1.265  -7.431  0.00  0.00    +0.530 C 
ATOM     23  N   LIG    1       -2.256   1.093  -8.766  0.00  0.00    -0.700 N 
ATOM     24  H   LIG    1       -1.468   1.223  -9.316  0.00  0.00    +0.400 HD
BRANCH  23  25
ATOM     25  C   LIG    1       -3.527   0.709  -9.386  0.00  0.00    +0.220 C 
ATOM     26  C   LIG    1       -3.488  -0.376 -10.464  0.00  0.00    +0.010 C 
ATOM     27  C   LIG    1       -3.737   1.083 -10.854  0.00  0.00    +0.010 C 
ENDBRANCH  23  25
ENDBRANCH   1  22
TORSDOF 5
