REMARK  Name = ZINCpk000005ZAca.0
REMARK                            x       y       z     vdW  Elec       q    Type
REMARK                         _______ _______ _______ _____ _____    ______ ____
ROOT
ATOM      1  O   LIG    1        4.382   1.813  -2.764  0.00  0.00    -0.480 OA
ATOM      2  C   LIG    1        4.207   2.260  -1.651  0.00  0.00    +0.520 C 
ATOM      3  C   LIG    1        3.108   3.263  -1.405  0.00  0.00    +0.110 C 
ATOM      4  C   LIG    1        2.527   3.041  -0.006  0.00  0.00    +0.350 C 
ATOM      5  N   LIG    1        3.619   2.898   0.959  0.00  0.00    -0.710 N 
ATOM      6  H   LIG    1        3.516   3.258   1.854  0.00  0.00    +0.430 HD
ATOM      7  C   LIG    1        4.760   2.275   0.623  0.00  0.00    +0.720 C 
ATOM      8  O   LIG    1        5.603   2.082   1.477  0.00  0.00    -0.550 OA
ATOM      9  N   LIG    1        4.992   1.861  -0.633  0.00  0.00    -0.560 N 
ENDROOT
BRANCH   4  10
ATOM     10  C   LIG    1        1.688   1.789  -0.004  0.00  0.00    -0.000 A 
ATOM     11  N   LIG    1        2.155   0.587  -0.015  0.00  0.00    -0.450 NA
ATOM     12  C   LIG    1        1.279  -0.398  -0.012  0.00  0.00    +0.220 A 
ATOM     13  C   LIG    1        0.002  -0.004   0.002  0.00  0.00    -0.070 A 
ATOM     14  S   LIG    1       -0.022   1.758   0.012  0.00  0.00    +0.150 S 
ENDBRANCH   4  10
BRANCH   9  15
ATOM     15  C   LIG    1        6.118   0.963  -0.901  0.00  0.00    +0.290 C 
BRANCH  15  16
ATOM     16  C   LIG    1        7.368   1.789  -1.210  0.00  0.00    +0.320 C 
BRANCH  16  17
ATOM     17  N   LIG    1        8.494   0.890  -1.477  0.00  0.00    -0.630 N 
ATOM     18  C   LIG    1        9.436   0.380  -0.468  0.00  0.00    +0.260 C 
ATOM     19  C   LIG    1       10.360  -0.553  -1.266  0.00  0.00    +0.220 C 
ATOM     20  C   LIG    1       11.822  -0.114  -1.150  0.00  0.00    +0.020 C 
ATOM     21  C   LIG    1       12.641  -0.840  -2.222  0.00  0.00    +0.020 C 
ATOM     22  C   LIG    1       12.168  -0.435  -3.619  0.00  0.00    +0.010 C 
ATOM     23  C   LIG    1       10.713  -0.839  -3.812  0.00  0.00    +0.310 C 
ATOM     24  N   LIG    1        9.942  -0.334  -2.667  0.00  0.00    -0.630 N 
ATOM     25  C   LIG    1        8.833   0.407  -2.681  0.00  0.00    +0.700 C 
ATOM     26  O   LIG    1        8.191   0.623  -3.691  0.00  0.00    -0.580 OA
ENDBRANCH  16  17
ENDBRANCH  15  16
ENDBRANCH   9  15
TORSDOF 4
