REMARK  Name = ZINCqH0000036Hrd.0
REMARK                            x       y       z     vdW  Elec       q    Type
REMARK                         _______ _______ _______ _____ _____    ______ ____
ROOT
ATOM      1  N   LIG    1       -0.727   2.011  -1.176  0.00  0.00    -0.740 N 
ATOM      2  H   LIG    1       -1.671   2.229  -1.123  0.00  0.00    +0.400 HD
ATOM      3  C   LIG    1       -0.068   2.155  -2.343  0.00  0.00    +0.710 C 
ATOM      4  N   LIG    1       -0.720   2.602  -3.435  0.00  0.00    -0.730 N 
ATOM      5  H   LIG    1       -1.663   2.819  -3.381  0.00  0.00    +0.390 HD
ATOM      6  O   LIG    1        1.115   1.882  -2.410  0.00  0.00    -0.590 OA
ENDROOT
BRANCH   1   8
ATOM      7  C   LIG    1        0.002  -0.004   0.002  0.00  0.00    +0.020 C 
ATOM      8  C   LIG    1       -0.019   1.526   0.010  0.00  0.00    +0.280 C 
BRANCH   8   9
ATOM      9  C   LIG    1       -0.735   2.019   1.269  0.00  0.00    +0.230 C 
ATOM     10  O   LIG    1       -2.027   1.413   1.357  0.00  0.00    -0.370 OA
ATOM     11  C   LIG    1       -2.709   1.661   2.590  0.00  0.00    +0.240 C 
ATOM     12  C   LIG    1       -2.021   0.871   3.711  0.00  0.00    +0.100 C 
ATOM     13  C   LIG    1       -0.530   1.105   3.597  0.00  0.00    -0.180 A 
ATOM     14  S   LIG    1        0.672   0.761   4.829  0.00  0.00    +0.110 S 
ATOM     15  C   LIG    1        1.958   1.347   3.784  0.00  0.00    -0.040 A 
ATOM     16  C   LIG    1        1.443   1.750   2.624  0.00  0.00    +0.020 A 
ATOM     17  C   LIG    1        0.065   1.623   2.503  0.00  0.00    -0.140 A 
ENDBRANCH   8   9
ENDBRANCH   1   8
BRANCH   4  18
ATOM     18  C   LIG    1       -0.003   2.758  -4.703  0.00  0.00    +0.340 C 
BRANCH  18  19
ATOM     19  C   LIG    1       -0.952   3.268  -5.757  0.00  0.00    -0.090 A 
ATOM     20  C   LIG    1       -1.494   2.408  -6.661  0.00  0.00    +0.050 A 
ATOM     21  C   LIG    1       -2.378   2.856  -7.640  0.00  0.00    +0.010 A 
ATOM     22  C   LIG    1       -2.716   4.172  -7.726  0.00  0.00    +0.040 A 
ATOM     23  C   LIG    1       -2.171   5.090  -6.813  0.00  0.00    -0.110 A 
ATOM     24  C   LIG    1       -2.494   6.458  -6.868  0.00  0.00    +0.080 A 
ATOM     25  C   LIG    1       -1.926   7.292  -5.948  0.00  0.00    -0.040 A 
ATOM     26  C   LIG    1       -1.054   6.780  -4.990  0.00  0.00    +0.290 A 
ATOM     27  N   LIG    1       -0.755   5.504  -4.942  0.00  0.00    -0.470 NA
ATOM     28  C   LIG    1       -1.276   4.635  -5.813  0.00  0.00    +0.140 A 
ENDBRANCH  18  19
ENDBRANCH   4  18
TORSDOF 4
