REMARK  Name = ZINCvU00000005aG.0
REMARK                            x       y       z     vdW  Elec       q    Type
REMARK                         _______ _______ _______ _____ _____    ______ ____
ROOT
ATOM      1  C   LIG    1       -0.014   1.209   0.009  0.00  0.00    +0.520 C 
ATOM      2  N   LIG    1       -1.191   1.867   0.018  0.00  0.00    -0.610 N 
ATOM      3  O   LIG    1        0.002  -0.004   0.002  0.00  0.00    -0.510 OA
ENDROOT
BRANCH   2   4
ATOM      4  C   LIG    1       -1.210   3.331   0.026  0.00  0.00    +0.220 C 
ATOM      5  C   LIG    1       -1.933   3.825   1.281  0.00  0.00    +0.040 C 
ATOM      6  C   LIG    1       -1.944   3.838  -1.217  0.00  0.00    +0.030 C 
ENDBRANCH   2   4
BRANCH   1   7
ATOM      7  C   LIG    1        1.280   1.980   0.001  0.00  0.00    +0.170 C 
BRANCH   7  10
ATOM      8  C   LIG    1        2.729   0.798   2.504  0.00  0.00    +0.190 C 
ATOM      9  C   LIG    1        3.061   0.508   1.063  0.00  0.00    -0.020 A 
ATOM     10  C   LIG    1        2.439   1.016  -0.016  0.00  0.00    +0.010 A 
ATOM     11  N   LIG    1        3.036   0.517  -1.109  0.00  0.00    -0.460 NA
ATOM     12  C   LIG    1        4.004  -0.287  -0.729  0.00  0.00    +0.260 A 
ATOM     13  O   LIG    1        4.036  -0.310   0.616  0.00  0.00    -0.190 OA
BRANCH  12  14
ATOM     14  C   LIG    1        4.901  -1.035  -1.622  0.00  0.00    -0.140 A 
ATOM     15  C   LIG    1        5.901  -1.866  -1.218  0.00  0.00    +0.060 A 
ATOM     16  C   LIG    1        6.604  -2.454  -2.247  0.00  0.00    +0.010 A 
ATOM     17  C   LIG    1        6.198  -2.121  -3.477  0.00  0.00    -0.040 A 
ATOM     18  S   LIG    1        4.845  -1.003  -3.380  0.00  0.00    +0.210 S 
ENDBRANCH  12  14
ENDBRANCH   7  10
ENDBRANCH   1   7
BRANCH   2  19
ATOM     19  C   LIG    1       -2.449   1.117   0.020  0.00  0.00    +0.460 C 
BRANCH  19  20
ATOM     20  C   LIG    1       -2.874   0.852   1.441  0.00  0.00    +0.150 A 
ATOM     21  N   LIG    1       -3.630   1.621   2.175  0.00  0.00    -0.270 NA
ATOM     22  N   LIG    1       -3.788   1.087   3.335  0.00  0.00    -0.270 NA
ATOM     23  C   LIG    1       -3.134  -0.049   3.381  0.00  0.00    +0.200 A 
ATOM     24  O   LIG    1       -2.547  -0.222   2.180  0.00  0.00    -0.190 OA
BRANCH  23  25
ATOM     25  C   LIG    1       -3.059  -0.971   4.535  0.00  0.00    -0.020 A 
ATOM     26  C   LIG    1       -3.726  -0.665   5.721  0.00  0.00    +0.090 A 
ATOM     27  C   LIG    1       -3.652  -1.529   6.794  0.00  0.00    +0.020 A 
ATOM     28  C   LIG    1       -2.920  -2.699   6.696  0.00  0.00    +0.060 A 
ATOM     29  C   LIG    1       -2.255  -3.009   5.522  0.00  0.00    +0.030 A 
ATOM     30  C   LIG    1       -2.326  -2.156   4.439  0.00  0.00    -0.010 A 
ATOM     31 CL   LIG    1       -1.498  -2.551   2.965  0.00  0.00    -0.030 Cl
ENDBRANCH  23  25
ENDBRANCH  19  20
ENDBRANCH   2  19
TORSDOF 7
