REMARK  Name = ZINCqH0000031IUm.0
REMARK                            x       y       z     vdW  Elec       q    Type
REMARK                         _______ _______ _______ _____ _____    ______ ____
ROOT
ATOM      1  N   LIG    1       -1.085  -0.703   0.241  0.00  0.00    -0.680 N 
ATOM      2  H   LIG    1       -1.820  -0.340  -0.278  0.00  0.00    +0.400 HD
ATOM      3  C   LIG    1       -0.139   0.121   0.736  0.00  0.00    +0.720 C 
ATOM      4  N   LIG    1       -0.252   1.453   0.571  0.00  0.00    -0.590 N 
ATOM      5  O   LIG    1        0.816  -0.339   1.331  0.00  0.00    -0.560 OA
ENDROOT
BRANCH   1  10
ATOM      6  C   LIG    1       -2.077  -4.186   0.940  0.00  0.00    -0.150 A 
ATOM      7  C   LIG    1       -0.827  -4.814   0.942  0.00  0.00    +0.040 A 
ATOM      8  C   LIG    1        0.315  -4.075   0.712  0.00  0.00    +0.020 A 
ATOM      9  C   LIG    1        0.230  -2.716   0.475  0.00  0.00    +0.060 A 
ATOM     10  C   LIG    1       -1.006  -2.080   0.477  0.00  0.00    +0.150 A 
ATOM     11  C   LIG    1       -2.161  -2.810   0.706  0.00  0.00    +0.040 A 
BRANCH   6  13
ATOM     12  C   LIG    1       -3.204  -6.452   1.438  0.00  0.00    +0.090 C 
ATOM     13  C   LIG    1       -3.298  -4.970   1.185  0.00  0.00    +0.400 C 
ATOM     14  O   LIG    1       -4.380  -4.423   1.184  0.00  0.00    -0.460 OA
ENDBRANCH   6  13
ENDBRANCH   1  10
BRANCH   4  15
ATOM     15  C   LIG    1        0.753   2.351   1.145  0.00  0.00    +0.210 C 
ATOM     16  C   LIG    1        2.119   1.754   1.488  0.00  0.00    +0.040 C 
ATOM     17  C   LIG    1        1.146   2.129   2.607  0.00  0.00    +0.020 C 
ENDBRANCH   4  15
BRANCH   4  18
ATOM     18  C   LIG    1       -1.378   2.004  -0.188  0.00  0.00    +0.260 C 
BRANCH  18  19
ATOM     19  C   LIG    1       -2.546   2.280   0.761  0.00  0.00    +0.250 C 
BRANCH  19  20
ATOM     20  C   LIG    1       -3.704   2.847  -0.019  0.00  0.00    -0.130 A 
ATOM     21  C   LIG    1       -4.589   1.998  -0.657  0.00  0.00    +0.050 A 
ATOM     22  C   LIG    1       -5.654   2.516  -1.369  0.00  0.00    -0.010 A 
ATOM     23  C   LIG    1       -5.829   3.887  -1.451  0.00  0.00    +0.100 A 
ATOM     24  C   LIG    1       -4.939   4.737  -0.816  0.00  0.00    -0.010 A 
ATOM     25  F   LIG    1       -6.867   4.395  -2.151  0.00  0.00    -0.140 F 
ATOM     26  C   LIG    1       -3.878   4.216  -0.101  0.00  0.00    +0.060 A 
ENDBRANCH  19  20
BRANCH  19  27
ATOM     27  O   LIG    1       -2.947   1.062   1.390  0.00  0.00    -0.540 OA
ATOM     28  H   LIG    1       -3.237   0.377   0.772  0.00  0.00    +0.360 HD
ENDBRANCH  19  27
ENDBRANCH  18  19
ENDBRANCH   4  18
TORSDOF 7
