REMARK  Name = ZINCpe000000Zv7o.1
REMARK                            x       y       z     vdW  Elec       q    Type
REMARK                         _______ _______ _______ _____ _____    ______ ____
ROOT
ATOM      1  O   LIG    1        4.711   1.583   0.072  0.00  0.00    -0.520 OA
ATOM      2  C   LIG    1        3.651   2.172  -0.021  0.00  0.00    +0.580 C 
ATOM      3  N   LIG    1        3.633   3.516  -0.116  0.00  0.00    -0.610 N 
ATOM      4  C   LIG    1        2.360   4.250  -0.108  0.00  0.00    +0.260 C 
ATOM      5  C   LIG    1        2.408   5.295   1.019  0.00  0.00    +0.300 C 
ATOM      6  N   LIG    1        3.662   6.054   0.900  0.00  0.00    -1.000 NA
ATOM      7  C   LIG    1        4.935   5.320   0.887  0.00  0.00    +0.300 C 
ATOM      8  C   LIG    1        4.886   4.274  -0.234  0.00  0.00    +0.290 C 
ENDROOT
BRANCH   2   9
ATOM      9  C   LIG    1        2.386   1.415  -0.030  0.00  0.00    -0.170 A 
ATOM     10  C   LIG    1        1.468   1.593  -1.069  0.00  0.00    +0.100 A 
ATOM     11  C   LIG    1        0.288   0.884  -1.072  0.00  0.00    -0.020 A 
ATOM     12  C   LIG    1        0.004  -0.007  -0.047  0.00  0.00    +0.140 A 
ATOM     13  C   LIG    1        0.904  -0.192   0.988  0.00  0.00    -0.040 A 
ATOM     14  F   LIG    1       -1.157  -0.698  -0.059  0.00  0.00    -0.130 F 
ATOM     15  C   LIG    1        2.096   0.514   1.005  0.00  0.00    +0.190 A 
BRANCH  15  16
ATOM     16  O   LIG    1        2.979   0.334   2.018  0.00  0.00    -0.490 OA
ATOM     17  H   LIG    1        3.626  -0.367   1.857  0.00  0.00    +0.410 HD
ENDBRANCH  15  16
ENDBRANCH   2   9
BRANCH   6  18
ATOM     18  S   LIG    1        3.640   7.705   0.783  0.00  0.00    +2.610 S 
ATOM     19  O   LIG    1        4.901   8.110   1.297  0.00  0.00    -0.940 OA
ATOM     20  O   LIG    1        2.431   8.086   1.426  0.00  0.00    -0.930 OA
BRANCH  18  21
ATOM     21  C   LIG    1        3.544   8.032  -0.998  0.00  0.00    -0.250 C 
BRANCH  21  22
ATOM     22  C   LIG    1        3.517   9.520  -1.236  0.00  0.00    +0.000 A 
ATOM     23  N   LIG    1        2.462  10.279  -1.310  0.00  0.00    -0.340 NA
ATOM     24  O   LIG    1        2.759  11.435  -1.504  0.00  0.00    +0.120 OA
ATOM     25  C   LIG    1        4.086  11.595  -1.597  0.00  0.00    +0.180 A 
ATOM     26  C   LIG    1        4.633  10.367  -1.427  0.00  0.00    -0.050 A 
ENDBRANCH  21  22
ENDBRANCH  18  21
ENDBRANCH   6  18
TORSDOF 5
