REMARK  Name = ZINCvU00000003Vl.0
REMARK                            x       y       z     vdW  Elec       q    Type
REMARK                         _______ _______ _______ _____ _____    ______ ____
ROOT
ATOM      1  C   LIG    1       -2.502   1.006   0.019  0.00  0.00    +0.230 A 
ATOM      2  N   LIG    1       -3.719   1.518   0.028  0.00  0.00    -0.460 NA
ATOM      3  C   LIG    1       -4.555   0.458   0.025  0.00  0.00    +0.220 A 
ATOM      4  N   LIG    1       -3.817  -0.622   0.015  0.00  0.00    -0.370 NA
ATOM      5  O   LIG    1       -2.640  -0.329   0.007  0.00  0.00    +0.090 OA
ENDROOT
BRANCH   1   8
ATOM      6  C   LIG    1        1.174   1.784   0.000  0.00  0.00    +0.120 A 
ATOM      7  C   LIG    1       -0.013   1.076   0.008  0.00  0.00    +0.000 A 
ATOM      8  C   LIG    1       -1.231   1.759   0.017  0.00  0.00    +0.010 A 
ATOM      9  C   LIG    1       -1.245   3.155   0.030  0.00  0.00    +0.090 A 
ATOM     10  C   LIG    1       -0.057   3.857   0.022  0.00  0.00    -0.030 A 
ATOM     11 CL   LIG    1       -0.076   5.593   0.030  0.00  0.00    -0.030 Cl
ATOM     12  C   LIG    1        1.154   3.178   0.007  0.00  0.00    +0.120 A 
BRANCH   6  14
ATOM     13  C   LIG    1        2.307  -0.306  -0.021  0.00  0.00    +0.250 C 
ATOM     14  O   LIG    1        2.361   1.122  -0.014  0.00  0.00    -0.300 OA
ENDBRANCH   6  14
BRANCH  12  15
ATOM     15  O   LIG    1        2.321   3.873  -0.000  0.00  0.00    -0.470 OA
ATOM     16  H   LIG    1        2.651   4.078  -0.886  0.00  0.00    +0.400 HD
ENDBRANCH  12  15
ENDBRANCH   1   8
BRANCH   3  17
ATOM     17  C   LIG    1       -6.038   0.509   0.033  0.00  0.00    -0.010 A 
ATOM     18  C   LIG    1       -6.696   1.738   0.049  0.00  0.00    +0.070 A 
ATOM     19  C   LIG    1       -8.075   1.779   0.051  0.00  0.00    +0.030 A 
ATOM     20  C   LIG    1       -8.805   0.605   0.047  0.00  0.00    -0.100 A 
ATOM     21  C   LIG    1       -8.158  -0.618   0.036  0.00  0.00    +0.030 A 
ATOM     22  C   LIG    1       -6.779  -0.671   0.029  0.00  0.00    +0.060 A 
BRANCH  20  23
ATOM     23  C   LIG    1      -10.311   0.656   0.055  0.00  0.00    +0.360 C 
BRANCH  23  24
ATOM     24  N   LIG    1      -10.792   0.664   1.438  0.00  0.00    -0.490 N 
ATOM     25  C   LIG    1      -11.184  -0.419   2.162  0.00  0.00    +0.470 A 
ATOM     26  N   LIG    1      -11.552  -0.051   3.354  0.00  0.00    -0.490 NA
ATOM     27  C   LIG    1      -11.421   1.295   3.478  0.00  0.00    +0.040 A 
ATOM     28  C   LIG    1      -11.667   2.196   4.517  0.00  0.00    +0.070 A 
ATOM     29  C   LIG    1      -11.431   3.529   4.332  0.00  0.00    +0.000 A 
ATOM     30  C   LIG    1      -10.947   4.001   3.121  0.00  0.00    +0.030 A 
ATOM     31  C   LIG    1      -10.698   3.130   2.081  0.00  0.00    +0.010 A 
ATOM     32  C   LIG    1      -10.926   1.772   2.252  0.00  0.00    +0.050 A 
ENDBRANCH  23  24
ENDBRANCH  20  23
ENDBRANCH   3  17
TORSDOF 6
