REMARK  Name = ZINCpk00000K7XOy.0
REMARK                            x       y       z     vdW  Elec       q    Type
REMARK                         _______ _______ _______ _____ _____    ______ ____
ROOT
ATOM      1  C   LIG    1        4.389  -2.205  -1.471  0.00  0.00    +0.500 C 
ATOM      2  N   LIG    1        4.836  -3.451  -1.728  0.00  0.00    -0.610 N 
ATOM      3  C   LIG    1        5.179  -4.364  -0.630  0.00  0.00    +0.270 C 
ATOM      4  C   LIG    1        4.404  -5.676  -0.825  0.00  0.00    +0.030 C 
ATOM      5  C   LIG    1        4.697  -6.232  -2.220  0.00  0.00    +0.030 C 
ATOM      6  C   LIG    1        4.226  -5.233  -3.279  0.00  0.00    +0.230 C 
ATOM      7  C   LIG    1        4.995  -3.918  -3.112  0.00  0.00    +0.290 C 
ATOM      8  O   LIG    1        4.114  -1.459  -2.386  0.00  0.00    -0.510 OA
ENDROOT
BRANCH   6   9
ATOM      9  N   LIG    1        4.478  -5.780  -4.615  0.00  0.00    -0.460 N 
ATOM     10  C   LIG    1        3.541  -6.030  -5.580  0.00  0.00    +0.120 A 
ATOM     11  C   LIG    1        4.200  -6.526  -6.645  0.00  0.00    +0.140 A 
ATOM     12  N   LIG    1        5.505  -6.577  -6.338  0.00  0.00    -0.490 NA
ATOM     13  C   LIG    1        5.679  -6.126  -5.125  0.00  0.00    +0.380 A 
ENDBRANCH   6   9
BRANCH   1  14
ATOM     14  C   LIG    1        4.232  -1.740  -0.046  0.00  0.00    +0.370 C 
BRANCH  14  18
ATOM     15  C   LIG    1        4.165   3.231  -0.020  0.00  0.00    +0.350 C 
ATOM     16  N   LIG    1        3.706   1.839  -0.023  0.00  0.00    -0.540 N 
ATOM     17  C   LIG    1        4.496   0.749  -0.036  0.00  0.00    +0.690 A 
ATOM     18  N   LIG    1        3.736  -0.362  -0.034  0.00  0.00    -0.530 N 
ATOM     19  C   LIG    1        2.397   0.022  -0.020  0.00  0.00    +0.100 A 
ATOM     20  C   LIG    1        1.204  -0.684  -0.013  0.00  0.00    +0.030 A 
ATOM     21  C   LIG    1        0.002  -0.004   0.002  0.00  0.00    +0.020 A 
ATOM     22  C   LIG    1       -0.017   1.380   0.010  0.00  0.00    +0.020 A 
ATOM     23  C   LIG    1        1.167   2.093   0.002  0.00  0.00    +0.030 A 
ATOM     24  O   LIG    1        5.713   0.766  -0.046  0.00  0.00    -0.550 OA
ATOM     25  C   LIG    1        2.378   1.419  -0.013  0.00  0.00    +0.090 A 
ENDBRANCH  14  18
ENDBRANCH   1  14
TORSDOF 3
