REMARK  Name = ZINCpe00000VVGpG.0
REMARK                            x       y       z     vdW  Elec       q    Type
REMARK                         _______ _______ _______ _____ _____    ______ ____
ROOT
ATOM      1  N   LIG    1        7.377  -1.885   4.479  0.00  0.00    -0.530 NA
ATOM      2  C   LIG    1        7.737  -2.433   3.163  0.00  0.00    +0.200 C 
ATOM      3  C   LIG    1        7.397  -1.409   2.077  0.00  0.00    +0.200 C 
ATOM      4  N   LIG    1        5.964  -1.092   2.138  0.00  0.00    -0.530 NA
ATOM      5  C   LIG    1        5.603  -0.545   3.453  0.00  0.00    +0.190 C 
ATOM      6  C   LIG    1        5.943  -1.568   4.539  0.00  0.00    +0.180 C 
ENDROOT
BRANCH   1   8
ATOM      7  C   LIG    1        9.270  -3.040   5.518  0.00  0.00    +0.080 C 
ATOM      8  C   LIG    1        7.758  -2.809   5.556  0.00  0.00    +0.270 C 
BRANCH   8   9
ATOM      9  C   LIG    1        7.373  -2.214   6.886  0.00  0.00    +0.190 A 
ATOM     10  N   LIG    1        6.779  -2.836   7.876  0.00  0.00    -0.480 NA
ATOM     11  C   LIG    1        6.639  -1.916   8.848  0.00  0.00    +0.200 A 
ATOM     12  N   LIG    1        7.146  -0.804   8.408  0.00  0.00    -0.380 NA
ATOM     13  O   LIG    1        7.578  -0.955   7.284  0.00  0.00    +0.090 OA
BRANCH  11  14
ATOM     14  C   LIG    1        6.010  -2.136  10.200  0.00  0.00    +0.060 C 
ATOM     15  C   LIG    1        5.772  -0.905  11.077  0.00  0.00    +0.050 C 
ATOM     16  C   LIG    1        6.883  -1.895  11.433  0.00  0.00    +0.050 C 
ENDBRANCH  11  14
ENDBRANCH   8   9
ENDBRANCH   1   8
BRANCH   4  17
ATOM     17  C   LIG    1        5.583  -0.169   1.061  0.00  0.00    +0.150 C 
BRANCH  17  18
ATOM     18  C   LIG    1        5.509  -0.932  -0.263  0.00  0.00    +0.210 C 
BRANCH  18  19
ATOM     19  O   LIG    1        4.525  -1.964  -0.164  0.00  0.00    -0.540 OA
ATOM     20  H   LIG    1        3.634  -1.640   0.029  0.00  0.00    +0.370 HD
ENDBRANCH  18  19
BRANCH  18  21
ATOM     21  C   LIG    1        5.125   0.032  -1.387  0.00  0.00    +0.290 C 
BRANCH  21  22
ATOM     22  N   LIG    1        5.170  -0.672  -2.671  0.00  0.00    -0.370 N 
ATOM     23  C   LIG    1        4.162  -0.759  -3.565  0.00  0.00    +0.220 A 
ATOM     24  C   LIG    1        4.603  -1.491  -4.614  0.00  0.00    -0.120 A 
ATOM     25  C   LIG    1        5.926  -1.864  -4.353  0.00  0.00    +0.230 A 
ATOM     26  N   LIG    1        6.267  -1.373  -3.189  0.00  0.00    -0.290 NA
ENDBRANCH  21  22
ENDBRANCH  18  21
ENDBRANCH  17  18
ENDBRANCH   4  17
TORSDOF 8
