REMARK  Name = ZINCvU000000041d.0
REMARK                            x       y       z     vdW  Elec       q    Type
REMARK                         _______ _______ _______ _____ _____    ______ ____
ROOT
ATOM      1  O   LIG    1        9.449  -2.457   0.612  0.00  0.00    -0.520 OA
ATOM      2  C   LIG    1        8.886  -1.902   1.532  0.00  0.00    +0.530 C 
ATOM      3  N   LIG    1        8.063  -0.862   1.290  0.00  0.00    -0.720 N 
ATOM      4  H   LIG    1        7.613  -0.419   2.026  0.00  0.00    +0.410 HD
ENDROOT
BRANCH   3   5
ATOM      5  C   LIG    1        7.849  -0.402  -0.084  0.00  0.00    +0.400 C 
BRANCH   5   6
ATOM      6  C   LIG    1        6.895   0.764  -0.081  0.00  0.00    -0.020 A 
ATOM      7  C   LIG    1        7.242   2.064   0.022  0.00  0.00    -0.020 A 
ATOM      8  C   LIG    1        6.052   2.814  -0.022  0.00  0.00    +0.000 A 
ATOM      9  C   LIG    1        5.029   1.920  -0.141  0.00  0.00    +0.060 A 
ATOM     10  O   LIG    1        5.559   0.681  -0.179  0.00  0.00    -0.140 OA
BRANCH   9  11
ATOM     11  C   LIG    1        3.599   2.251  -0.222  0.00  0.00    +0.170 A 
ATOM     12  N   LIG    1        2.646   1.384  -0.340  0.00  0.00    -0.440 NA
ATOM     13  C   LIG    1        1.384   1.843  -0.401  0.00  0.00    +0.080 A 
ATOM     14  C   LIG    1        0.183   1.110  -0.528  0.00  0.00    +0.080 A 
ATOM     15  C   LIG    1       -1.024   1.759  -0.580  0.00  0.00    +0.030 A 
ATOM     16  C   LIG    1       -1.087   3.143  -0.497  0.00  0.00    +0.050 A 
ATOM     17  C   LIG    1        0.071   3.879  -0.373  0.00  0.00    +0.060 A 
ATOM     18  C   LIG    1        1.307   3.239  -0.324  0.00  0.00    -0.170 A 
ATOM     19  S   LIG    1        2.941   3.880  -0.172  0.00  0.00    +0.120 S 
ENDBRANCH   9  11
ENDBRANCH   5   6
ENDBRANCH   3   5
BRANCH   2  20
ATOM     20  C   LIG    1        9.106  -2.376   2.946  0.00  0.00    +0.060 C 
BRANCH  20  21
ATOM     21  C   LIG    1        9.966  -3.641   2.932  0.00  0.00    +0.160 C 
BRANCH  21  22
ATOM     22  C   LIG    1       11.294  -3.338   2.288  0.00  0.00    -0.120 A 
ATOM     23  C   LIG    1       11.831  -2.068   2.375  0.00  0.00    +0.020 A 
ATOM     24  C   LIG    1       13.052  -1.791   1.788  0.00  0.00    +0.000 A 
ATOM     25  C   LIG    1       13.730  -2.783   1.105  0.00  0.00    +0.010 A 
ATOM     26  C   LIG    1       13.191  -4.052   1.013  0.00  0.00    +0.010 A 
ATOM     27  C   LIG    1       11.973  -4.330   1.604  0.00  0.00    +0.050 A 
ENDBRANCH  21  22
BRANCH  21  28
ATOM     28  C   LIG    1       10.192  -4.120   4.367  0.00  0.00    +0.470 C 
ATOM     29  F   LIG    1       10.753  -3.083   5.121  0.00  0.00    -0.170 F 
ATOM     30  F   LIG    1       11.062  -5.215   4.362  0.00  0.00    -0.170 F 
ATOM     31  F   LIG    1        8.969  -4.498   4.931  0.00  0.00    -0.170 F 
ENDBRANCH  21  28
BRANCH  21  32
ATOM     32  O   LIG    1        9.298  -4.663   2.189  0.00  0.00    -0.530 OA
ATOM     33  H   LIG    1        9.121  -4.428   1.268  0.00  0.00    +0.400 HD
ENDBRANCH  21  32
ENDBRANCH  20  21
ENDBRANCH   2  20
TORSDOF 8
