REMARK  Name = ZINCpk000000nRFP.0
REMARK                            x       y       z     vdW  Elec       q    Type
REMARK                         _______ _______ _______ _____ _____    ______ ____
ROOT
ATOM      1  C   LIG    1       -0.543   1.446  -3.655  0.00  0.00    +0.510 C 
ATOM      2  N   LIG    1       -0.067   1.120  -2.437  0.00  0.00    -0.700 N 
ATOM      3  H   LIG    1        0.730   0.573  -2.358  0.00  0.00    +0.420 HD
ATOM      4  O   LIG    1       -1.541   2.131  -3.753  0.00  0.00    -0.510 OA
ENDROOT
BRANCH   1   7
ATOM      5  N   LIG    1       -0.321   1.290  -6.101  0.00  0.00    -0.610 N 
ATOM      6  H   LIG    1       -1.118   1.838  -6.180  0.00  0.00    +0.420 HD
ATOM      7  C   LIG    1        0.155   0.965  -4.883  0.00  0.00    +0.510 C 
ATOM      8  O   LIG    1        1.153   0.279  -4.785  0.00  0.00    -0.510 OA
BRANCH   5  11
ATOM      9  N   LIG    1        0.858   0.477  -9.351  0.00  0.00    -0.360 N 
ATOM     10  C   LIG    1       -0.033   1.090  -8.540  0.00  0.00    +0.220 A 
ATOM     11  C   LIG    1        0.337   0.837  -7.257  0.00  0.00    -0.020 A 
ATOM     12  C   LIG    1        1.496   0.048  -7.293  0.00  0.00    +0.260 A 
ATOM     13  N   LIG    1        1.803  -0.171  -8.546  0.00  0.00    -0.280 NA
BRANCH   9  15
ATOM     14  C   LIG    1       -0.085  -0.620 -11.323  0.00  0.00    +0.040 C 
ATOM     15  C   LIG    1        0.839   0.489 -10.816  0.00  0.00    +0.270 C 
ATOM     16  C   LIG    1        0.326   1.845 -11.308  0.00  0.00    +0.060 C 
ENDBRANCH   9  15
ENDBRANCH   5  11
ENDBRANCH   1   7
BRANCH   2  17
ATOM     17  C   LIG    1       -0.753   1.593  -1.232  0.00  0.00    +0.310 C 
BRANCH  17  18
ATOM     18  C   LIG    1       -0.013   1.086   0.008  0.00  0.00    -0.250 C 
BRANCH  18  19
ATOM     19  S   LIG    1       -0.862   1.671   1.500  0.00  0.00    +1.270 S 
ATOM     20  O   LIG    1       -0.808   3.090   1.550  0.00  0.00    -0.830 OA
BRANCH  19  21
ATOM     21  C   LIG    1        0.146   0.980   2.841  0.00  0.00    -0.180 C 
BRANCH  21  22
ATOM     22  C   LIG    1       -0.439   1.384   4.169  0.00  0.00    -0.070 A 
ATOM     23  C   LIG    1       -0.026   2.553   4.780  0.00  0.00    +0.010 A 
ATOM     24  C   LIG    1       -0.567   2.926   5.997  0.00  0.00    +0.000 A 
ATOM     25  C   LIG    1       -1.513   2.124   6.607  0.00  0.00    +0.000 A 
ATOM     26  C   LIG    1       -1.923   0.952   5.999  0.00  0.00    +0.010 A 
ATOM     27  C   LIG    1       -1.386   0.582   4.780  0.00  0.00    +0.020 A 
ENDBRANCH  21  22
ENDBRANCH  19  21
ENDBRANCH  18  19
ENDBRANCH  17  18
ENDBRANCH   2  17
TORSDOF 8
