REMARK  Name = ZINCrD0000075dbN.0
REMARK                            x       y       z     vdW  Elec       q    Type
REMARK                         _______ _______ _______ _____ _____    ______ ____
ROOT
ATOM      1  N   LIG    1       -2.029   1.243  -1.416  0.00  0.00    -0.730 N 
ATOM      2  H   LIG    1       -2.487   0.675  -0.777  0.00  0.00    +0.400 HD
ATOM      3  C   LIG    1       -0.741   1.585  -1.213  0.00  0.00    +0.520 C 
ATOM      4  O   LIG    1       -0.169   2.294  -2.013  0.00  0.00    -0.530 OA
ENDROOT
BRANCH   3   5
ATOM      5  C   LIG    1       -0.013   1.086   0.008  0.00  0.00    -0.010 C 
ATOM      6  C   LIG    1       -0.730   1.579   1.267  0.00  0.00    +0.050 C 
ATOM      7  C   LIG    1       -0.152   0.871   2.498  0.00  0.00    +0.130 C 
ATOM      8  C   LIG    1        1.352   0.982   2.448  0.00  0.00    +0.090 A 
ATOM      9  C   LIG    1        2.054   1.316   1.335  0.00  0.00    -0.190 A 
ATOM     10  C   LIG    1        3.407   1.324   1.667  0.00  0.00    -0.000 A 
ATOM     11  N   LIG    1        3.517   1.005   2.933  0.00  0.00    -0.230 NA
ATOM     12  N   LIG    1        2.230   0.784   3.445  0.00  0.00    -0.440 N 
ATOM     13  H   LIG    1        2.012   0.533   4.356  0.00  0.00    +0.450 HD
ATOM     14  C   LIG    1        1.426   1.617  -0.003  0.00  0.00    +0.150 C 
BRANCH  10  15
ATOM     15  C   LIG    1        4.545   1.644   0.732  0.00  0.00    +0.560 C 
ATOM     16  F   LIG    1        4.197   1.274  -0.571  0.00  0.00    -0.160 F 
ATOM     17  F   LIG    1        5.686   0.938   1.129  0.00  0.00    -0.170 F 
ATOM     18  F   LIG    1        4.809   3.017   0.772  0.00  0.00    -0.170 F 
ENDBRANCH  10  15
ENDBRANCH   3   5
BRANCH   1  19
ATOM     19  C   LIG    1       -2.737   1.728  -2.603  0.00  0.00    +0.320 C 
BRANCH  19  27
ATOM     20  C   LIG    1       -5.635  -2.682  -4.417  0.00  0.00    +0.310 C 
ATOM     21  N   LIG    1       -6.334  -1.621  -3.688  0.00  0.00    -0.490 N 
ATOM     22  C   LIG    1       -7.672  -1.613  -3.403  0.00  0.00    +0.220 A 
ATOM     23  C   LIG    1       -7.989  -0.498  -2.725  0.00  0.00    -0.060 A 
ATOM     24  C   LIG    1       -6.752   0.270  -2.562  0.00  0.00    -0.100 A 
ATOM     25  C   LIG    1       -6.439   1.489  -1.958  0.00  0.00    +0.050 A 
ATOM     26  C   LIG    1       -5.151   1.945  -1.977  0.00  0.00    -0.010 A 
ATOM     27  C   LIG    1       -4.151   1.206  -2.593  0.00  0.00    -0.090 A 
ATOM     28  C   LIG    1       -4.438   0.003  -3.200  0.00  0.00    +0.010 A 
ATOM     29  C   LIG    1       -5.741  -0.483  -3.187  0.00  0.00    +0.090 A 
ENDBRANCH  19  27
ENDBRANCH   1  19
TORSDOF 4
