REMARK  Name = ZINCkj000005jU9W.0
REMARK                            x       y       z     vdW  Elec       q    Type
REMARK                         _______ _______ _______ _____ _____    ______ ____
ROOT
ATOM      1  C   LIG    1       -0.805   1.076   1.341  0.00  0.00    +0.110 C 
ATOM      2  C   LIG    1       -0.129   0.585   0.059  0.00  0.00    +0.150 C 
ATOM      3  C   LIG    1       -0.680   1.365  -1.140  0.00  0.00    +0.330 C 
ATOM      4  N   LIG    1        0.075   0.970  -2.339  0.00  0.00    -0.630 N 
ATOM      5  C   LIG    1        1.544   0.998  -2.275  0.00  0.00    +0.310 C 
ATOM      6  C   LIG    1        1.990   0.236  -1.022  0.00  0.00    +0.270 C 
ATOM      7  C   LIG    1       -0.562   0.593  -3.466  0.00  0.00    +0.580 C 
ATOM      8  O   LIG    1       -1.772   0.473  -3.469  0.00  0.00    -0.500 OA
ATOM      9  N   LIG    1        1.321   0.800   0.157  0.00  0.00    -0.500 N 
ATOM     10  H   LIG    1        1.671   0.347   0.988  0.00  0.00    +0.430 HD
ATOM     11  H   LIG    1        1.510   1.790   0.209  0.00  0.00    +0.430 HD
ENDROOT
BRANCH   7  12
ATOM     12  C   LIG    1        0.210   0.325  -4.696  0.00  0.00    -0.160 A 
ATOM     13  C   LIG    1        1.307   1.126  -5.022  0.00  0.00    +0.070 A 
ATOM     14  C   LIG    1        2.028   0.870  -6.168  0.00  0.00    +0.000 A 
ATOM     15  C   LIG    1        1.657  -0.177  -7.005  0.00  0.00    +0.180 A 
ATOM     16  C   LIG    1        0.563  -0.973  -6.686  0.00  0.00    +0.010 A 
ATOM     17  C   LIG    1       -0.159  -0.726  -5.539  0.00  0.00    +0.120 A 
BRANCH  15  18
ATOM     18  N   LIG    1        2.388  -0.430  -8.170  0.00  0.00    -0.420 N 
ATOM     19  C   LIG    1        3.484   0.266  -8.613  0.00  0.00    +0.120 A 
ATOM     20  C   LIG    1        3.871  -0.310  -9.767  0.00  0.00    +0.170 A 
ATOM     21  N   LIG    1        3.038  -1.329 -10.027  0.00  0.00    -0.470 NA
ATOM     22  C   LIG    1        2.149  -1.415  -9.075  0.00  0.00    +0.410 A 
ENDBRANCH  15  18
ENDBRANCH   7  12
TORSDOF 2
