REMARK  Name = ZINCtV000002OYEP.0
REMARK                            x       y       z     vdW  Elec       q    Type
REMARK                         _______ _______ _______ _____ _____    ______ ____
ROOT
ATOM      1  C   LIG    1       -1.480   3.853   2.555  0.00  0.00    -0.160 A 
ATOM      2  C   LIG    1       -2.015   2.993   3.518  0.00  0.00    +0.130 A 
ATOM      3  C   LIG    1       -2.647   3.511   4.627  0.00  0.00    -0.030 A 
ATOM      4  C   LIG    1       -2.755   4.882   4.793  0.00  0.00    +0.090 A 
ATOM      5  C   LIG    1       -2.231   5.744   3.849  0.00  0.00    -0.080 A 
ATOM      6  C   LIG    1       -1.587   5.240   2.730  0.00  0.00    +0.190 A 
ENDROOT
BRANCH   1   8
ATOM      7  O   LIG    1       -0.339   4.056   0.531  0.00  0.00    -0.490 OA
ATOM      8  C   LIG    1       -0.803   3.305   1.366  0.00  0.00    +0.510 C 
BRANCH   8   9
ATOM      9  O   LIG    1       -0.698   1.971   1.205  0.00  0.00    -0.350 OA
BRANCH   9  10
ATOM     10  C   LIG    1       -0.018   1.503   0.010  0.00  0.00    +0.280 C 
BRANCH  10  11
ATOM     11  C   LIG    1        0.002  -0.004   0.002  0.00  0.00    -0.100 A 
ATOM     12  C   LIG    1        1.056  -0.684   0.582  0.00  0.00    +0.080 A 
ATOM     13  C   LIG    1        1.073  -2.067   0.578  0.00  0.00    +0.020 A 
ATOM     14  C   LIG    1        0.040  -2.768  -0.014  0.00  0.00    +0.080 A 
ATOM     15  C   LIG    1       -1.012  -2.088  -0.598  0.00  0.00    -0.190 A 
ATOM     16  C   LIG    1       -1.031  -0.706  -0.591  0.00  0.00    +0.090 A 
BRANCH  15  17
ATOM     17  C   LIG    1       -2.139  -2.853  -1.244  0.00  0.00    +0.510 C 
ATOM     18  F   LIG    1       -3.322  -2.114  -1.144  0.00  0.00    -0.180 F 
ATOM     19  F   LIG    1       -2.300  -4.082  -0.594  0.00  0.00    -0.180 F 
ATOM     20  F   LIG    1       -1.839  -3.075  -2.592  0.00  0.00    -0.180 F 
ENDBRANCH  15  17
ENDBRANCH  10  11
ENDBRANCH   9  10
ENDBRANCH   8   9
ENDBRANCH   1   8
BRANCH   6  21
ATOM     21  O   LIG    1       -1.067   6.085   1.805  0.00  0.00    -0.280 OA
BRANCH  21  22
ATOM     22  C   LIG    1       -1.214   7.485   2.050  0.00  0.00    +0.260 C 
BRANCH  22  23
ATOM     23  C   LIG    1       -0.580   8.261   0.925  0.00  0.00    -0.090 A 
ATOM     24  C   LIG    1        0.019   7.592  -0.126  0.00  0.00    +0.070 A 
ATOM     25  C   LIG    1        0.600   8.304  -1.158  0.00  0.00    +0.020 A 
ATOM     26  C   LIG    1        0.583   9.686  -1.141  0.00  0.00    +0.030 A 
ATOM     27  C   LIG    1       -0.015  10.357  -0.091  0.00  0.00    +0.030 A 
ATOM     28  C   LIG    1       -0.603   9.645   0.940  0.00  0.00    -0.030 A 
ATOM     29 CL   LIG    1       -1.361  10.487   2.255  0.00  0.00    -0.070 Cl
ENDBRANCH  22  23
ENDBRANCH  21  22
ENDBRANCH   6  21
TORSDOF 8
