REMARK  Name = ZINCAx0000000k8O.1
REMARK                            x       y       z     vdW  Elec       q    Type
REMARK                         _______ _______ _______ _____ _____    ______ ____
ROOT
ATOM      1  C   LIG    1       -1.070  -5.090  -1.996  0.00  0.00    +0.520 C 
ATOM      2  N   LIG    1        0.071  -5.295  -1.309  0.00  0.00    -0.580 N 
ATOM      3  O   LIG    1       -1.998  -4.512  -1.471  0.00  0.00    -0.520 OA
ENDROOT
BRANCH   1   5
ATOM      4  C   LIG    1       -0.364  -4.678  -4.338  0.00  0.00    +0.060 C 
ATOM      5  C   LIG    1       -1.192  -5.577  -3.417  0.00  0.00    +0.240 C 
BRANCH   5   6
ATOM      6  N   LIG    1       -2.598  -5.534  -3.828  0.00  0.00    -0.700 N 
ATOM      7  H   LIG    1       -3.211  -4.920  -3.396  0.00  0.00    +0.420 HD
ATOM      8  C   LIG    1       -3.038  -6.350  -4.807  0.00  0.00    +0.610 C 
ATOM      9  O   LIG    1       -2.269  -7.120  -5.348  0.00  0.00    -0.530 OA
BRANCH   8  10
ATOM     10  C   LIG    1       -4.452  -6.307  -5.220  0.00  0.00    -0.000 A 
ATOM     11  N   LIG    1       -5.395  -5.531  -4.729  0.00  0.00    -0.200 NA
ATOM     12  N   LIG    1       -6.527  -5.731  -5.300  0.00  0.00    -0.410 N 
ATOM     13  H   LIG    1       -7.343  -5.256  -5.078  0.00  0.00    +0.450 HD
ATOM     14  C   LIG    1       -6.434  -6.701  -6.264  0.00  0.00    +0.060 A 
ATOM     15  C   LIG    1       -7.329  -7.286  -7.153  0.00  0.00    +0.010 A 
ATOM     16  C   LIG    1       -6.888  -8.255  -8.026  0.00  0.00    +0.050 A 
ATOM     17  C   LIG    1       -5.561  -8.664  -8.021  0.00  0.00    -0.010 A 
ATOM     18  C   LIG    1       -4.665  -8.105  -7.152  0.00  0.00    +0.090 A 
ATOM     19  C   LIG    1       -5.088  -7.119  -6.267  0.00  0.00    -0.110 A 
ENDBRANCH   8  10
ENDBRANCH   5   6
ENDBRANCH   1   5
BRANCH   2  20
ATOM     20  C   LIG    1        0.153  -4.920   0.104  0.00  0.00    +0.360 C 
BRANCH  20  21
ATOM     21  C   LIG    1        0.637  -3.498   0.220  0.00  0.00    -0.150 A 
ATOM     22  C   LIG    1       -0.274  -2.458   0.235  0.00  0.00    +0.090 A 
ATOM     23  C   LIG    1        0.168  -1.153   0.340  0.00  0.00    -0.020 A 
ATOM     24  C   LIG    1        1.526  -0.887   0.431  0.00  0.00    +0.140 A 
ATOM     25  C   LIG    1        2.438  -1.931   0.410  0.00  0.00    -0.080 A 
ATOM     26  C   LIG    1        1.992  -3.235   0.309  0.00  0.00    +0.050 A 
BRANCH  24  27
ATOM     27  O   LIG    1        1.962   0.396   0.535  0.00  0.00    -0.310 OA
BRANCH  27  28
ATOM     28  C   LIG    1        3.375   0.596   0.624  0.00  0.00    +0.240 C 
BRANCH  28  29
ATOM     29  C   LIG    1        3.668   2.070   0.732  0.00  0.00    -0.100 A 
ATOM     30  C   LIG    1        3.873   2.819  -0.411  0.00  0.00    +0.020 A 
ATOM     31  C   LIG    1        4.137   4.173  -0.312  0.00  0.00    +0.010 A 
ATOM     32  C   LIG    1        4.206   4.774   0.930  0.00  0.00    +0.020 A 
ATOM     33  C   LIG    1        4.007   4.024   2.074  0.00  0.00    +0.010 A 
ATOM     34  C   LIG    1        3.737   2.672   1.975  0.00  0.00    +0.020 A 
ENDBRANCH  28  29
ENDBRANCH  27  28
ENDBRANCH  24  27
ENDBRANCH  20  21
ENDBRANCH   2  20
BRANCH   2  35
ATOM     35  C   LIG    1        1.230  -5.894  -1.976  0.00  0.00    +0.310 C 
BRANCH  35  36
ATOM     36  C   LIG    1        1.241  -7.380  -1.726  0.00  0.00    +0.490 C 
ATOM     37  O   LIG    1        0.368  -7.889  -1.056  0.00  0.00    -0.530 OA
ATOM     38  N   LIG    1        2.222  -8.144  -2.246  0.00  0.00    -0.850 N 
ATOM     39  H   LIG    1        2.230  -9.101  -2.085  0.00  0.00    +0.410 HD
ATOM     40  H   LIG    1        2.921  -7.737  -2.782  0.00  0.00    +0.400 HD
ENDBRANCH  35  36
ENDBRANCH   2  35
TORSDOF 10
