REMARK  Name = ZINCrH000004tUgY.1
REMARK                            x       y       z     vdW  Elec       q    Type
REMARK                         _______ _______ _______ _____ _____    ______ ____
ROOT
ATOM      1  O   LIG    1        2.220  -0.041  -0.018  0.00  0.00    -0.450 OA
ATOM      2  C   LIG    1        1.178  -0.662  -0.012  0.00  0.00    +0.510 C 
ATOM      3  N   LIG    1        0.002  -0.004   0.002  0.00  0.00    -0.630 N 
ATOM      4  H   LIG    1       -0.831  -0.500   0.007  0.00  0.00    +0.430 HD
ENDROOT
BRANCH   3   5
ATOM      5  C   LIG    1       -0.017   1.387   0.010  0.00  0.00    +0.230 A 
ATOM      6  N   LIG    1        1.028   2.158   0.004  0.00  0.00    -0.270 NA
ATOM      7  N   LIG    1        0.836   3.406   0.012  0.00  0.00    -0.200 NA
ATOM      8  C   LIG    1       -0.397   3.802   0.025  0.00  0.00    -0.000 A 
ATOM      9  S   LIG    1       -1.422   2.366   0.021  0.00  0.00    +0.120 S 
BRANCH   8  10
ATOM     10  C   LIG    1       -0.871   5.232   0.036  0.00  0.00    +0.260 C 
ATOM     11  C   LIG    1       -0.668   5.841   1.437  0.00  0.00    +0.030 C 
ATOM     12  C   LIG    1        0.254   7.060   1.191  0.00  0.00    +0.020 C 
ATOM     13  C   LIG    1        0.034   7.334  -0.318  0.00  0.00    +0.220 C 
ATOM     14  O   LIG    1       -0.092   6.013  -0.886  0.00  0.00    -0.350 OA
ENDBRANCH   8  10
ENDBRANCH   3   5
BRANCH   2  15
ATOM     15  C   LIG    1        1.199  -2.169  -0.021  0.00  0.00    +0.120 C 
BRANCH  15  16
ATOM     16  C   LIG    1        2.648  -2.659  -0.036  0.00  0.00    +0.200 C 
ATOM     17  C   LIG    1        2.706  -4.201   0.081  0.00  0.00    +0.100 C 
ATOM     18  C   LIG    1        3.880  -4.539  -0.818  0.00  0.00    -0.180 A 
ATOM     19  C   LIG    1        4.644  -5.676  -0.953  0.00  0.00    +0.120 A 
ATOM     20  C   LIG    1        5.681  -5.708  -1.868  0.00  0.00    -0.220 A 
ATOM     21  C   LIG    1        5.945  -4.596  -2.646  0.00  0.00    +0.120 A 
ATOM     22  C   LIG    1        5.178  -3.456  -2.515  0.00  0.00    +0.000 A 
ATOM     23  C   LIG    1        4.131  -3.417  -1.598  0.00  0.00    +0.150 A 
ATOM     24  O   LIG    1        3.255  -2.414  -1.317  0.00  0.00    -0.280 OA
BRANCH  20  25
ATOM     25  C   LIG    1        6.520  -6.951  -2.018  0.00  0.00    +0.510 C 
ATOM     26  F   LIG    1        5.704  -8.022  -2.396  0.00  0.00    -0.180 F 
ATOM     27  F   LIG    1        7.140  -7.245  -0.798  0.00  0.00    -0.180 F 
ATOM     28  F   LIG    1        7.496  -6.740  -2.998  0.00  0.00    -0.180 F 
ENDBRANCH  20  25
ENDBRANCH  15  16
ENDBRANCH   2  15
TORSDOF 5
