REMARK  Name = ZINCvU0000000EPN.0
REMARK                            x       y       z     vdW  Elec       q    Type
REMARK                         _______ _______ _______ _____ _____    ______ ____
ROOT
ATOM      1  O   LIG    1       -3.568   1.955   0.003  0.00  0.00    -0.510 OA
ATOM      2  C   LIG    1       -3.581   3.168  -0.021  0.00  0.00    +0.520 C 
ATOM      3  N   LIG    1       -2.422   3.855   0.029  0.00  0.00    -0.670 N 
ATOM      4  H   LIG    1       -2.435   4.823   0.086  0.00  0.00    +0.410 HD
ENDROOT
BRANCH   2   5
ATOM      5  C   LIG    1       -4.892   3.906  -0.107  0.00  0.00    -0.010 C 
ATOM      6  C   LIG    1       -6.043   2.899  -0.154  0.00  0.00    +0.060 C 
ATOM      7  C   LIG    1       -7.376   3.648  -0.208  0.00  0.00    +0.030 C 
ATOM      8  C   LIG    1       -7.427   4.501  -1.480  0.00  0.00    +0.280 C 
ATOM      9  N   LIG    1       -6.244   5.372  -1.513  0.00  0.00    -0.600 N 
ATOM     10  C   LIG    1       -6.377   6.704  -1.665  0.00  0.00    +0.610 C 
ATOM     11  O   LIG    1       -5.388   7.406  -1.770  0.00  0.00    -0.520 OA
ATOM     12  C   LIG    1       -4.914   4.762  -1.377  0.00  0.00    +0.300 C 
BRANCH  10  13
ATOM     13  C   LIG    1       -7.712   7.309  -1.704  0.00  0.00    -0.090 A 
ATOM     14  C   LIG    1       -7.987   8.646  -1.722  0.00  0.00    +0.050 A 
ATOM     15  C   LIG    1       -9.385   8.770  -1.762  0.00  0.00    -0.060 A 
ATOM     16  C   LIG    1       -9.895   7.519  -1.758  0.00  0.00    +0.200 A 
ATOM     17  O   LIG    1       -8.884   6.641  -1.724  0.00  0.00    -0.160 OA
ENDBRANCH  10  13
ENDBRANCH   2   5
BRANCH   3  18
ATOM     18  C   LIG    1       -1.203   3.172  -0.001  0.00  0.00    +0.160 A 
ATOM     19  C   LIG    1       -1.082   2.000  -0.738  0.00  0.00    +0.020 A 
ATOM     20  C   LIG    1        0.117   1.321  -0.765  0.00  0.00    +0.060 A 
ATOM     21  C   LIG    1        1.215   1.819  -0.061  0.00  0.00    -0.040 A 
ATOM     22  C   LIG    1        1.092   3.001   0.673  0.00  0.00    +0.070 A 
ATOM     23  C   LIG    1       -0.111   3.671   0.701  0.00  0.00    +0.000 A 
BRANCH  21  24
ATOM     24  C   LIG    1        2.504   1.098  -0.093  0.00  0.00    +0.080 A 
ATOM     25  C   LIG    1        3.632   1.491   0.546  0.00  0.00    -0.030 A 
ATOM     26  C   LIG    1        4.647   0.481   0.236  0.00  0.00    -0.130 A 
ATOM     27  C   LIG    1        5.987   0.309   0.583  0.00  0.00    +0.060 A 
ATOM     28  C   LIG    1        6.678  -0.771   0.109  0.00  0.00    +0.000 A 
ATOM     29  C   LIG    1        6.054  -1.697  -0.714  0.00  0.00    +0.050 A 
ATOM     30  C   LIG    1        4.729  -1.545  -1.069  0.00  0.00    +0.020 A 
ATOM     31  C   LIG    1        4.009  -0.455  -0.599  0.00  0.00    +0.050 A 
ATOM     32  O   LIG    1        2.735  -0.046  -0.767  0.00  0.00    -0.190 OA
ENDBRANCH  21  24
ENDBRANCH   3  18
TORSDOF 4
