REMARK  Name = ZINCrg000000sK5y.0
REMARK                            x       y       z     vdW  Elec       q    Type
REMARK                         _______ _______ _______ _____ _____    ______ ____
ROOT
ATOM      1  N   LIG    1        1.762   1.332   1.583  0.00  0.00    -0.460 N 
ATOM      2  C   LIG    1        0.843   2.006   0.655  0.00  0.00    +0.200 C 
ATOM      3  C   LIG    1       -0.501   1.270   0.649  0.00  0.00    +0.330 C 
ATOM      4  N   LIG    1       -0.256  -0.150   0.359  0.00  0.00    -0.630 N 
ATOM      5  C   LIG    1        0.754  -0.860   1.159  0.00  0.00    +0.300 C 
ATOM      6  C   LIG    1       -0.939  -0.785  -0.615  0.00  0.00    +0.710 C 
ATOM      7  N   LIG    1       -0.610  -2.047  -0.955  0.00  0.00    -0.680 N 
ATOM      8  H   LIG    1        0.201  -2.449  -0.605  0.00  0.00    +0.410 HD
ATOM      9  O   LIG    1       -1.851  -0.220  -1.185  0.00  0.00    -0.560 OA
ATOM     10  C   LIG    1        2.049  -0.041   1.145  0.00  0.00    +0.200 C 
ENDROOT
BRANCH   1  16
ATOM     11  C   LIG    1        2.818   2.462   4.238  0.00  0.00    +0.350 C 
ATOM     12  N   LIG    1        3.419   2.570   2.906  0.00  0.00    -0.470 N 
ATOM     13  C   LIG    1        4.586   3.200   2.576  0.00  0.00    +0.380 A 
ATOM     14  N   LIG    1        4.750   3.063   1.290  0.00  0.00    -0.290 NA
ATOM     15  N   LIG    1        3.776   2.390   0.791  0.00  0.00    -0.310 NA
ATOM     16  C   LIG    1        2.932   2.058   1.739  0.00  0.00    +0.340 A 
ENDBRANCH   1  16
BRANCH   7  17
ATOM     17  C   LIG    1       -1.435  -2.776  -1.810  0.00  0.00    +0.190 A 
ATOM     18  C   LIG    1       -2.302  -2.111  -2.672  0.00  0.00    +0.020 A 
ATOM     19  C   LIG    1       -3.114  -2.828  -3.521  0.00  0.00    +0.070 A 
ATOM     20  C   LIG    1       -3.076  -4.225  -3.509  0.00  0.00    -0.160 A 
ATOM     21  C   LIG    1       -2.209  -4.890  -2.638  0.00  0.00    +0.110 A 
ATOM     22  C   LIG    1       -1.395  -4.167  -1.795  0.00  0.00    -0.030 A 
BRANCH  20  23
ATOM     23  C   LIG    1       -3.951  -4.997  -4.413  0.00  0.00    +0.570 C 
ATOM     24  N   LIG    1       -4.787  -4.354  -5.253  0.00  0.00    -0.700 N 
ATOM     25  H   LIG    1       -4.814  -3.385  -5.262  0.00  0.00    +0.400 HD
ATOM     26  O   LIG    1       -3.917  -6.212  -4.401  0.00  0.00    -0.540 OA
BRANCH  24  27
ATOM     27  C   LIG    1       -5.655  -5.120  -6.151  0.00  0.00    +0.220 C 
ATOM     28  C   LIG    1       -5.773  -4.640  -7.598  0.00  0.00    +0.010 C 
ATOM     29  C   LIG    1       -6.943  -4.449  -6.631  0.00  0.00    +0.020 C 
ENDBRANCH  24  27
ENDBRANCH  20  23
ENDBRANCH   7  17
TORSDOF 4
