REMARK  Name = ZINCrH000004lzRw.1
REMARK                            x       y       z     vdW  Elec       q    Type
REMARK                         _______ _______ _______ _____ _____    ______ ____
ROOT
ATOM      1  C   LIG    1       -2.736   3.634   3.067  0.00  0.00    +0.600 C 
ATOM      2  N   LIG    1       -2.492   3.346   1.773  0.00  0.00    -0.710 N 
ATOM      3  H   LIG    1       -3.037   3.744   1.076  0.00  0.00    +0.420 HD
ATOM      4  O   LIG    1       -2.051   3.135   3.940  0.00  0.00    -0.500 OA
ENDROOT
BRANCH   1   6
ATOM      5  C   LIG    1       -4.168   4.907   4.688  0.00  0.00    -0.080 A 
ATOM      6  C   LIG    1       -3.829   4.550   3.423  0.00  0.00    -0.010 A 
ATOM      7  O   LIG    1       -4.649   5.159   2.541  0.00  0.00    -0.180 OA
ATOM      8  C   LIG    1       -5.547   5.935   3.179  0.00  0.00    +0.070 A 
ATOM      9  C   LIG    1       -6.583   6.750   2.740  0.00  0.00    +0.030 A 
ATOM     10  C   LIG    1       -7.350   7.439   3.655  0.00  0.00    +0.060 A 
ATOM     11  C   LIG    1       -7.099   7.329   5.016  0.00  0.00    -0.010 A 
ATOM     12  C   LIG    1       -6.086   6.533   5.471  0.00  0.00    +0.070 A 
ATOM     13  C   LIG    1       -5.298   5.827   4.560  0.00  0.00    -0.130 A 
BRANCH   5  14
ATOM     14  C   LIG    1       -3.512   4.449   5.965  0.00  0.00    +0.260 C 
BRANCH  14  16
ATOM     15  C   LIG    1       -1.762   5.001   7.507  0.00  0.00    +0.210 C 
ATOM     16  O   LIG    1       -2.453   5.346   6.305  0.00  0.00    -0.380 OA
ENDBRANCH  14  16
ENDBRANCH   5  14
ENDBRANCH   1   6
BRANCH   2  17
ATOM     17  C   LIG    1       -1.402   2.433   1.418  0.00  0.00    +0.290 C 
BRANCH  17  18
ATOM     18  C   LIG    1       -1.413   2.189  -0.092  0.00  0.00    +0.220 C 
BRANCH  18  19
ATOM     19  C   LIG    1       -0.267   1.283  -0.463  0.00  0.00    -0.080 A 
ATOM     20  C   LIG    1       -0.517  -0.010  -0.882  0.00  0.00    +0.020 A 
ATOM     21  C   LIG    1        0.533  -0.841  -1.228  0.00  0.00    +0.050 A 
ATOM     22  C   LIG    1        1.833  -0.379  -1.155  0.00  0.00    -0.010 A 
ATOM     23  C   LIG    1        2.085   0.917  -0.734  0.00  0.00    +0.100 A 
ATOM     24  F   LIG    1        3.355   1.369  -0.662  0.00  0.00    -0.140 F 
ATOM     25  C   LIG    1        1.032   1.748  -0.389  0.00  0.00    -0.010 A 
ENDBRANCH  18  19
BRANCH  18  26
ATOM     26  N   LIG    1       -1.272   3.470  -0.797  0.00  0.00    -0.530 NA
ATOM     27  C   LIG    1       -0.633   3.283  -2.107  0.00  0.00    +0.190 C 
ATOM     28  C   LIG    1       -0.527   4.440   0.018  0.00  0.00    +0.180 C 
ENDBRANCH  18  26
ENDBRANCH  17  18
ENDBRANCH   2  17
TORSDOF 7
