REMARK  Name = ZINCrH00000tj1j4.0
REMARK                            x       y       z     vdW  Elec       q    Type
REMARK                         _______ _______ _______ _____ _____    ______ ____
ROOT
ATOM      1  C   LIG    1        1.595   1.385  -1.743  0.00  0.00    +0.050 C 
ATOM      2  C   LIG    1        1.096   1.868  -0.380  0.00  0.00    +0.410 C 
ATOM      3  N   LIG    1        1.774   1.109   0.678  0.00  0.00    -0.740 N 
ATOM      4  H   LIG    1        2.234   0.280   0.474  0.00  0.00    +0.410 HD
ATOM      5  C   LIG    1        1.744   1.601   1.979  0.00  0.00    +0.240 A 
ATOM      6  C   LIG    1        1.813   0.761   3.077  0.00  0.00    -0.060 A 
ATOM      7  C   LIG    1        1.808   1.299   4.350  0.00  0.00    +0.080 A 
ATOM      8  C   LIG    1        1.734   2.670   4.535  0.00  0.00    -0.040 A 
ATOM      9  C   LIG    1        1.656   3.520   3.451  0.00  0.00    +0.110 A 
ATOM     10  C   LIG    1        1.654   2.992   2.163  0.00  0.00    -0.200 A 
ATOM     11  C   LIG    1        1.558   3.857   0.974  0.00  0.00    +0.580 C 
ATOM     12  O   LIG    1        1.641   5.065   1.085  0.00  0.00    -0.510 OA
ATOM     13  N   LIG    1        1.376   3.297  -0.239  0.00  0.00    -0.620 N 
ENDROOT
BRANCH   2  14
ATOM     14  C   LIG    1       -0.413   1.636  -0.282  0.00  0.00    +0.020 C 
BRANCH  14  15
ATOM     15  C   LIG    1       -0.713   0.146  -0.460  0.00  0.00    +0.090 C 
BRANCH  15  16
ATOM     16  C   LIG    1       -2.199  -0.083  -0.364  0.00  0.00    -0.090 A 
ATOM     17  C   LIG    1       -2.777  -0.355   0.862  0.00  0.00    +0.030 A 
ATOM     18  C   LIG    1       -4.141  -0.559   0.954  0.00  0.00    -0.010 A 
ATOM     19  C   LIG    1       -4.928  -0.502  -0.187  0.00  0.00    +0.100 A 
ATOM     20  C   LIG    1       -4.344  -0.234  -1.417  0.00  0.00    -0.010 A 
ATOM     21  C   LIG    1       -2.981  -0.025  -1.502  0.00  0.00    +0.030 A 
BRANCH  19  22
ATOM     22  O   LIG    1       -6.268  -0.708  -0.100  0.00  0.00    -0.500 OA
ATOM     23  H   LIG    1       -6.532  -1.632  -0.204  0.00  0.00    +0.390 HD
ENDBRANCH  19  22
ENDBRANCH  15  16
ENDBRANCH  14  15
ENDBRANCH   2  14
BRANCH  13  24
ATOM     24  C   LIG    1        1.461   4.134  -1.438  0.00  0.00    +0.300 C 
BRANCH  24  25
ATOM     25  C   LIG    1        2.924   4.266  -1.866  0.00  0.00    +0.130 C 
ATOM     26  C   LIG    1        3.013   5.036  -3.198  0.00  0.00    +0.010 C 
ATOM     27  C   LIG    1        3.905   6.259  -2.870  0.00  0.00    +0.010 C 
ATOM     28  C   LIG    1        4.652   5.783  -1.598  0.00  0.00    +0.190 C 
ATOM     29  O   LIG    1        3.655   5.018  -0.884  0.00  0.00    -0.350 OA
ENDBRANCH  24  25
ENDBRANCH  13  24
TORSDOF 6
