REMARK  Name = ZINCrD00000F5LuK.0
REMARK                            x       y       z     vdW  Elec       q    Type
REMARK                         _______ _______ _______ _____ _____    ______ ____
ROOT
ATOM      1  C   LIG    1       -2.156   5.739   3.490  0.00  0.00    +0.510 C 
ATOM      2  N   LIG    1       -1.539   5.074   2.494  0.00  0.00    -0.730 N 
ATOM      3  H   LIG    1       -1.073   5.564   1.798  0.00  0.00    +0.400 HD
ATOM      4  O   LIG    1       -2.738   5.126   4.359  0.00  0.00    -0.530 OA
ENDROOT
BRANCH   1   5
ATOM      5  C   LIG    1       -2.123   7.246   3.524  0.00  0.00    +0.060 C 
BRANCH   5   7
ATOM      6  C   LIG    1       -2.173   7.296   6.021  0.00  0.00    +0.040 C 
ATOM      7  C   LIG    1       -2.892   7.746   4.748  0.00  0.00    +0.050 C 
BRANCH   7   8
ATOM      8  C   LIG    1       -2.964   9.251   4.716  0.00  0.00    -0.110 A 
ATOM      9  C   LIG    1       -1.802   9.998   4.724  0.00  0.00    +0.040 A 
ATOM     10  C   LIG    1       -1.868  11.379   4.694  0.00  0.00    +0.000 A 
ATOM     11  C   LIG    1       -3.096  12.013   4.657  0.00  0.00    +0.040 A 
ATOM     12  C   LIG    1       -4.259  11.267   4.649  0.00  0.00    -0.010 A 
ATOM     13  C   LIG    1       -4.195   9.884   4.672  0.00  0.00    +0.100 A 
ATOM     14  F   LIG    1       -5.331   9.154   4.658  0.00  0.00    -0.140 F 
ENDBRANCH   7   8
ENDBRANCH   5   7
ENDBRANCH   1   5
BRANCH   2  15
ATOM     15  C   LIG    1       -1.571   3.610   2.461  0.00  0.00    +0.270 C 
BRANCH  15  16
ATOM     16  C   LIG    1       -0.801   3.110   1.237  0.00  0.00    +0.000 C 
ATOM     17  C   LIG    1       -1.520   3.559  -0.037  0.00  0.00    +0.200 C 
ATOM     18  N   LIG    1       -0.793   3.061  -1.212  0.00  0.00    -0.500 N 
ATOM     19  C   LIG    1       -0.754   1.594  -1.231  0.00  0.00    +0.190 C 
ATOM     20  C   LIG    1       -0.013   1.086   0.008  0.00  0.00    +0.050 C 
ATOM     21  C   LIG    1       -0.731   1.580   1.267  0.00  0.00    -0.020 C 
ATOM     22  C   LIG    1        0.041   1.127   2.507  0.00  0.00    +0.030 C 
BRANCH  18  23
ATOM     23  C   LIG    1       -1.342   3.558  -2.383  0.00  0.00    +0.360 A 
ATOM     24  C   LIG    1       -2.612   3.153  -2.799  0.00  0.00    -0.120 A 
ATOM     25  C   LIG    1       -3.117   3.680  -3.971  0.00  0.00    +0.330 A 
ATOM     26  N   LIG    1       -2.383   4.540  -4.663  0.00  0.00    -0.520 NA
ATOM     27  C   LIG    1       -1.185   4.899  -4.246  0.00  0.00    +0.510 A 
ATOM     28  N   LIG    1       -0.666   4.425  -3.131  0.00  0.00    -0.500 NA
ENDBRANCH  18  23
ENDBRANCH  15  16
ENDBRANCH   2  15
TORSDOF 6
