REMARK  Name = ZINCpk000000pSJf.0
REMARK                            x       y       z     vdW  Elec       q    Type
REMARK                         _______ _______ _______ _____ _____    ______ ____
ROOT
ATOM      1  C   LIG    1       -0.552   1.812   1.300  0.00  0.00    -0.010 C 
ATOM      2  C   LIG    1       -2.002   1.314   1.116  0.00  0.00    +0.270 C 
ATOM      3  N   LIG    1       -2.403   0.830   2.459  0.00  0.00    -0.610 N 
ATOM      4  C   LIG    1       -1.194   0.154   2.983  0.00  0.00    +0.270 C 
ATOM      5  C   LIG    1       -3.598   0.975   3.066  0.00  0.00    +0.630 C 
ATOM      6  O   LIG    1       -3.773   0.519   4.179  0.00  0.00    -0.530 OA
ATOM      7  C   LIG    1       -0.020   1.048   2.530  0.00  0.00    +0.130 C 
ENDROOT
BRANCH   5   8
ATOM      8  C   LIG    1       -4.694   1.687   2.378  0.00  0.00    -0.010 A 
ATOM      9  N   LIG    1       -4.649   2.231   1.174  0.00  0.00    -0.260 NA
ATOM     10  N   LIG    1       -5.785   2.769   0.888  0.00  0.00    -0.270 N 
ATOM     11  C   LIG    1       -6.644   2.600   1.906  0.00  0.00    +0.010 A 
ATOM     12  C   LIG    1       -8.077   3.053   2.021  0.00  0.00    +0.110 C 
ATOM     13  C   LIG    1       -8.739   2.273   3.163  0.00  0.00    +0.030 C 
ATOM     14  C   LIG    1       -7.861   2.349   4.415  0.00  0.00    +0.010 C 
ATOM     15  C   LIG    1       -6.587   1.522   4.197  0.00  0.00    +0.120 C 
ATOM     16  C   LIG    1       -6.093   3.463  -0.365  0.00  0.00    +0.370 C 
ATOM     17  C   LIG    1       -5.989   1.913   2.874  0.00  0.00    -0.140 A 
ENDBRANCH   5   8
BRANCH   7  18
ATOM     18  N   LIG    1        1.137   0.223   2.158  0.00  0.00    -0.520 NA
ATOM     19  C   LIG    1        1.265  -0.938   3.050  0.00  0.00    +0.150 C 
ATOM     20  C   LIG    1        2.444  -1.800   2.591  0.00  0.00    +0.220 C 
ATOM     21  O   LIG    1        3.630  -1.003   2.568  0.00  0.00    -0.380 OA
ATOM     22  C   LIG    1        3.542   0.137   1.708  0.00  0.00    +0.220 C 
ATOM     23  C   LIG    1        2.374   1.019   2.159  0.00  0.00    +0.150 C 
ENDBRANCH   7  18
BRANCH   1  25
ATOM     24  C   LIG    1       -0.213   2.301  -1.127  0.00  0.00    -0.010 C 
ATOM     25  C   LIG    1        0.285   1.479   0.064  0.00  0.00    +0.040 C 
ENDBRANCH   1  25
TORSDOF 3
