REMARK  Name = ZINCAx0000000eUw.0
REMARK                            x       y       z     vdW  Elec       q    Type
REMARK                         _______ _______ _______ _____ _____    ______ ____
ROOT
ATOM      1  C   LIG    1       -1.809   4.135   0.811  0.00  0.00    +0.450 C 
ATOM      2  O   LIG    1       -2.349   4.686   1.741  0.00  0.00    -0.470 OA
ENDROOT
BRANCH   1   3
ATOM      3  C   LIG    1       -2.314   2.799   0.329  0.00  0.00    +0.410 C 
ATOM      4  C   LIG    1       -1.333   1.696   0.741  0.00  0.00    +0.110 C 
ATOM      5  C   LIG    1       -0.724   1.225  -0.593  0.00  0.00    +0.100 C 
ATOM      6  C   LIG    1       -1.421   2.022  -1.668  0.00  0.00    +0.540 C 
ATOM      7  O   LIG    1       -1.150   1.969  -2.849  0.00  0.00    -0.480 OA
ATOM      8  N   LIG    1       -3.652   2.555   0.864  0.00  0.00    -0.580 N 
ATOM      9  C   LIG    1       -4.752   2.934   0.176  0.00  0.00    +0.570 C 
ATOM     10  O   LIG    1       -5.856   2.742   0.647  0.00  0.00    -0.500 OA
ATOM     11  C   LIG    1       -4.620   3.580  -1.143  0.00  0.00    -0.170 A 
ATOM     12  C   LIG    1       -5.670   4.273  -1.737  0.00  0.00    +0.110 A 
ATOM     13  C   LIG    1       -5.489   4.843  -2.982  0.00  0.00    +0.000 A 
ATOM     14  C   LIG    1       -4.276   4.732  -3.642  0.00  0.00    +0.080 A 
ATOM     15  C   LIG    1       -3.220   4.051  -3.060  0.00  0.00    +0.020 A 
ATOM     16  C   LIG    1       -3.385   3.483  -1.817  0.00  0.00    +0.180 A 
ATOM     17  N   LIG    1       -2.376   2.791  -1.142  0.00  0.00    -0.560 N 
BRANCH   8  18
ATOM     18  C   LIG    1       -3.803   1.891   2.162  0.00  0.00    +0.180 C 
ATOM     19  C   LIG    1       -4.782   2.510   3.162  0.00  0.00    +0.070 C 
ATOM     20  C   LIG    1       -3.274   2.625   3.396  0.00  0.00    +0.030 C 
ENDBRANCH   8  18
ENDBRANCH   1   3
BRANCH   1  21
ATOM     21  O   LIG    1       -0.758   4.712   0.208  0.00  0.00    -0.320 OA
BRANCH  21  22
ATOM     22  C   LIG    1       -0.326   5.998   0.725  0.00  0.00    +0.270 C 
BRANCH  22  24
ATOM     23  N   LIG    1        1.430   7.670   0.232  0.00  0.00    -0.570 N 
ATOM     24  C   LIG    1        0.856   6.488  -0.071  0.00  0.00    +0.520 C 
ATOM     25  O   LIG    1        1.292   5.819  -0.984  0.00  0.00    -0.480 OA
BRANCH  23  26
ATOM     26  C   LIG    1        2.447   8.183  -0.583  0.00  0.00    +0.120 A 
ATOM     27  C   LIG    1        3.654   7.507  -0.697  0.00  0.00    +0.070 A 
ATOM     28  C   LIG    1        4.654   8.013  -1.505  0.00  0.00    +0.000 A 
ATOM     29  C   LIG    1        4.457   9.199  -2.192  0.00  0.00    +0.110 A 
ATOM     30  C   LIG    1        3.256   9.878  -2.074  0.00  0.00    +0.000 A 
ATOM     31  F   LIG    1        5.438   9.694  -2.977  0.00  0.00    -0.130 F 
ATOM     32  C   LIG    1        2.251   9.373  -1.272  0.00  0.00    +0.050 A 
ENDBRANCH  23  26
BRANCH  23  33
ATOM     33  C   LIG    1        0.989   8.416   1.413  0.00  0.00    +0.310 C 
BRANCH  33  34
ATOM     34  C   LIG    1        1.822   7.992   2.624  0.00  0.00    +0.180 C 
BRANCH  34  36
ATOM     35  N   LIG    1        1.038   9.322   4.726  0.00  0.00    -0.410 NA
ATOM     36  C   LIG    1        1.379   8.743   3.811  0.00  0.00    +0.200 C 
ENDBRANCH  34  36
ENDBRANCH  33  34
ENDBRANCH  23  33
ENDBRANCH  22  24
ENDBRANCH  21  22
ENDBRANCH   1  21
TORSDOF 9
