REMARK  Name = ZINCqH0000000pg1.0
REMARK                            x       y       z     vdW  Elec       q    Type
REMARK                         _______ _______ _______ _____ _____    ______ ____
ROOT
ATOM      1  C   LIG    1       -2.531   3.857   0.053  0.00  0.00    +0.560 C 
ATOM      2  N   LIG    1       -3.686   3.170  -0.044  0.00  0.00    -0.600 N 
ATOM      3  C   LIG    1       -3.669   1.705  -0.053  0.00  0.00    +0.280 C 
ATOM      4  O   LIG    1       -2.550   5.070   0.140  0.00  0.00    -0.530 OA
ENDROOT
BRANCH   1  12
ATOM      5  C   LIG    1        1.884  -0.843   1.085  0.00  0.00    +0.120 C 
ATOM      6  C   LIG    1        2.878   0.070   0.414  0.00  0.00    +0.520 C 
ATOM      7  N   LIG    1        2.486   1.277  -0.039  0.00  0.00    -0.550 N 
ATOM      8  C   LIG    1        3.358   2.247  -0.705  0.00  0.00    +0.280 C 
ATOM      9  C   LIG    1        2.455   3.449  -1.027  0.00  0.00    +0.110 C 
ATOM     10  C   LIG    1        1.094   3.052  -0.500  0.00  0.00    -0.140 A 
ATOM     11  C   LIG    1       -0.106   3.727  -0.504  0.00  0.00    +0.130 A 
ATOM     12  C   LIG    1       -1.242   3.137   0.055  0.00  0.00    -0.160 A 
ATOM     13  C   LIG    1       -1.151   1.858   0.610  0.00  0.00    +0.080 A 
ATOM     14  C   LIG    1        0.051   1.194   0.616  0.00  0.00    -0.020 A 
ATOM     15  C   LIG    1        1.190   1.783   0.057  0.00  0.00    +0.170 A 
ATOM     16  O   LIG    1        4.031  -0.281   0.283  0.00  0.00    -0.520 OA
ENDBRANCH   1  12
BRANCH   2  17
ATOM     17  C   LIG    1       -4.959   3.889  -0.142  0.00  0.00    +0.290 C 
ATOM     18  C   LIG    1       -5.636   3.537  -1.465  0.00  0.00    +0.010 C 
ATOM     19  C   LIG    1       -7.054   4.120  -1.454  0.00  0.00    +0.020 C 
ATOM     20  C   LIG    1       -7.890   3.333  -0.447  0.00  0.00    +0.080 C 
ATOM     21  C   LIG    1       -7.184   3.256   0.881  0.00  0.00    -0.070 A 
ATOM     22  C   LIG    1       -7.939   2.914   1.996  0.00  0.00    +0.000 A 
ATOM     23  C   LIG    1       -7.349   2.815   3.239  0.00  0.00    +0.010 A 
ATOM     24  C   LIG    1       -5.995   3.059   3.378  0.00  0.00    +0.000 A 
ATOM     25  C   LIG    1       -5.244   3.402   2.272  0.00  0.00    +0.020 A 
ATOM     26  C   LIG    1       -5.837   3.504   1.020  0.00  0.00    -0.090 A 
ENDBRANCH   2  17
TORSDOF 2
