REMARK  Name = ZINCrD000000B0DF.0
REMARK                            x       y       z     vdW  Elec       q    Type
REMARK                         _______ _______ _______ _____ _____    ______ ____
ROOT
ATOM      1  C   LIG    1       -2.449   1.117   0.020  0.00  0.00    +0.290 C 
ENDROOT
BRANCH   1   4
ATOM      2  O   LIG    1        0.002  -0.004   0.002  0.00  0.00    -0.530 OA
ATOM      3  C   LIG    1       -0.014   1.209   0.009  0.00  0.00    +0.520 C 
ATOM      4  N   LIG    1       -1.191   1.867   0.018  0.00  0.00    -0.730 N 
ATOM      5  H   LIG    1       -1.204   2.837   0.023  0.00  0.00    +0.400 HD
BRANCH   3   6
ATOM      6  C   LIG    1        1.280   1.980   0.001  0.00  0.00    +0.000 C 
ATOM      7  C   LIG    1        2.456   1.000  -0.016  0.00  0.00    +0.050 C 
ATOM      8  C   LIG    1        3.761   1.753   0.271  0.00  0.00    +0.110 C 
ATOM      9  C   LIG    1        3.831   2.944  -0.653  0.00  0.00    -0.240 A 
ATOM     10  C   LIG    1        4.903   3.695  -0.968  0.00  0.00    +0.240 A 
ATOM     11  N   LIG    1        4.494   4.649  -1.833  0.00  0.00    -0.480 N 
ATOM     12  H   LIG    1        5.052   5.335  -2.231  0.00  0.00    +0.440 HD
ATOM     13  N   LIG    1        3.119   4.474  -2.054  0.00  0.00    -0.280 NA
ATOM     14  C   LIG    1        2.722   3.456  -1.348  0.00  0.00    +0.080 A 
ATOM     15  C   LIG    1        1.333   2.874  -1.244  0.00  0.00    +0.150 C 
ENDBRANCH   3   6
ENDBRANCH   1   4
BRANCH   1  16
ATOM     16  C   LIG    1       -3.626   2.095   0.031  0.00  0.00    +0.190 C 
BRANCH  16  17
ATOM     17  O   LIG    1       -3.633   2.844  -1.186  0.00  0.00    -0.300 OA
BRANCH  17  18
ATOM     18  C   LIG    1       -4.622   3.764  -1.338  0.00  0.00    +0.140 A 
ATOM     19  C   LIG    1       -5.564   3.943  -0.338  0.00  0.00    -0.080 A 
ATOM     20  C   LIG    1       -6.568   4.880  -0.493  0.00  0.00    +0.050 A 
ATOM     21  C   LIG    1       -6.639   5.643  -1.645  0.00  0.00    -0.020 A 
ATOM     22  C   LIG    1       -5.707   5.475  -2.650  0.00  0.00    +0.060 A 
ATOM     23  C   LIG    1       -4.688   4.537  -2.501  0.00  0.00    -0.080 A 
BRANCH  23  24
ATOM     24  C   LIG    1       -3.680   4.357  -3.574  0.00  0.00    -0.040 A 
ATOM     25  C   LIG    1       -2.321   4.367  -3.267  0.00  0.00    +0.030 A 
ATOM     26  C   LIG    1       -1.388   4.193  -4.269  0.00  0.00    +0.000 A 
ATOM     27  C   LIG    1       -1.799   4.019  -5.578  0.00  0.00    +0.000 A 
ATOM     28  C   LIG    1       -3.147   4.014  -5.890  0.00  0.00    +0.000 A 
ATOM     29  C   LIG    1       -4.089   4.182  -4.895  0.00  0.00    +0.010 A 
ENDBRANCH  23  24
ENDBRANCH  17  18
ENDBRANCH  16  17
ENDBRANCH   1  16
TORSDOF 6
