REMARK  Name = ZINCpk00000eaIyi.0
REMARK                            x       y       z     vdW  Elec       q    Type
REMARK                         _______ _______ _______ _____ _____    ______ ____
ROOT
ATOM      1  S   LIG    1        3.816   6.337   2.365  0.00  0.00    +2.700 S 
ATOM      2  O   LIG    1        2.668   6.267   3.200  0.00  0.00    -0.950 OA
ATOM      3  O   LIG    1        4.310   7.555   1.824  0.00  0.00    -0.950 OA
ENDROOT
BRANCH   1   9
ATOM      4  C   LIG    1        7.619   1.478   5.295  0.00  0.00    +0.040 C 
ATOM      5  C   LIG    1        7.430   2.732   6.152  0.00  0.00    +0.190 C 
ATOM      6  C   LIG    1        5.948   3.175   6.156  0.00  0.00    +0.090 C 
ATOM      7  C   LIG    1        5.916   4.173   5.015  0.00  0.00    -0.190 A 
ATOM      8  C   LIG    1        4.877   4.732   4.305  0.00  0.00    +0.170 A 
ATOM      9  C   LIG    1        5.141   5.625   3.281  0.00  0.00    -0.710 A 
ATOM     10  C   LIG    1        6.449   5.961   2.984  0.00  0.00    +0.170 A 
ATOM     11  C   LIG    1        7.491   5.409   3.700  0.00  0.00    -0.020 A 
ATOM     12  C   LIG    1        7.234   4.506   4.729  0.00  0.00    +0.170 A 
ATOM     13  O   LIG    1        8.097   3.859   5.559  0.00  0.00    -0.290 OA
ENDBRANCH   1   9
BRANCH   1  14
ATOM     14  N   LIG    1        3.518   5.340   1.077  0.00  0.00    -1.000 NA
ATOM     15  C   LIG    1        4.213   5.535  -0.205  0.00  0.00    +0.300 C 
ATOM     16  C   LIG    1        3.167   5.578  -1.324  0.00  0.00    +0.180 C 
ATOM     17  N   LIG    1        2.325   4.376  -1.250  0.00  0.00    -0.520 NA
ATOM     18  C   LIG    1        1.573   4.329   0.011  0.00  0.00    +0.230 C 
ATOM     19  C   LIG    1        1.422   4.294  -2.406  0.00  0.00    +0.200 C 
ATOM     20  C   LIG    1        2.554   4.235   1.184  0.00  0.00    +0.340 C 
BRANCH  18  21
ATOM     21  C   LIG    1        0.669   3.123   0.013  0.00  0.00    +0.210 A 
ATOM     22  N   LIG    1        1.062   1.879   0.002  0.00  0.00    -0.460 NA
ATOM     23  C   LIG    1       -0.013   1.076   0.008  0.00  0.00    +0.140 A 
ATOM     24  C   LIG    1       -1.113   1.852   0.017  0.00  0.00    +0.130 A 
ATOM     25  N   LIG    1       -0.681   3.151   0.025  0.00  0.00    -0.570 N 
ATOM     26  H   LIG    1       -1.240   3.944   0.035  0.00  0.00    +0.420 HD
ENDBRANCH  18  21
ENDBRANCH   1  14
TORSDOF 3
