REMARK  Name = ZINCrH000004kvMX.0
REMARK                            x       y       z     vdW  Elec       q    Type
REMARK                         _______ _______ _______ _____ _____    ______ ____
ROOT
ATOM      1  N   LIG    1       -0.819   2.192   0.043  0.00  0.00    -0.480 N 
ENDROOT
BRANCH   1   2
ATOM      2  C   LIG    1        0.185   1.278  -0.228  0.00  0.00    +0.350 A 
ATOM      3  N   LIG    1        0.115   0.527  -1.316  0.00  0.00    -0.460 NA
ATOM      4  C   LIG    1        1.052  -0.352  -1.615  0.00  0.00    +0.080 A 
ATOM      5  C   LIG    1        2.155  -0.528  -0.800  0.00  0.00    +0.040 A 
ATOM      6  C   LIG    1        2.281   0.230   0.351  0.00  0.00    +0.150 A 
ATOM      7  C   LIG    1        1.276   1.157   0.650  0.00  0.00    -0.010 A 
BRANCH   4   8
ATOM      8  C   LIG    1        0.918  -1.179  -2.867  0.00  0.00    +0.520 C 
ATOM      9  F   LIG    1        0.749  -2.524  -2.522  0.00  0.00    -0.170 F 
ATOM     10  F   LIG    1        2.073  -1.038  -3.645  0.00  0.00    -0.170 F 
ATOM     11  F   LIG    1       -0.192  -0.742  -3.598  0.00  0.00    -0.160 F 
ENDBRANCH   4   8
BRANCH   7  12
ATOM     12  C   LIG    1        1.357   1.966   1.828  0.00  0.00    +0.260 C 
ATOM     13  N   LIG    1        1.422   2.608   2.763  0.00  0.00    -0.380 NA
ENDBRANCH   7  12
ENDBRANCH   1   2
BRANCH   1  14
ATOM     14  C   LIG    1       -2.115   1.519   0.197  0.00  0.00    +0.230 C 
BRANCH  14  15
ATOM     15  C   LIG    1       -3.107   2.471   0.868  0.00  0.00    +0.030 C 
ATOM     16  C   LIG    1       -2.634   2.781   2.290  0.00  0.00    +0.070 C 
BRANCH  15  17
ATOM     17  C   LIG    1       -4.467   1.824   0.921  0.00  0.00    +0.470 C 
ATOM     18  O   LIG    1       -4.627   0.716   0.468  0.00  0.00    -0.500 OA
BRANCH  17  20
ATOM     19  C   LIG    1       -6.782   1.796   1.488  0.00  0.00    +0.250 C 
ATOM     20  O   LIG    1       -5.501   2.480   1.472  0.00  0.00    -0.360 OA
ENDBRANCH  17  20
ENDBRANCH  15  17
ENDBRANCH  14  15
ENDBRANCH   1  14
BRANCH   1  21
ATOM     21  C   LIG    1       -0.882   3.228  -0.997  0.00  0.00    +0.260 C 
BRANCH  21  22
ATOM     22  C   LIG    1        0.258   4.196  -0.812  0.00  0.00    -0.090 A 
ATOM     23  C   LIG    1        0.126   5.261   0.059  0.00  0.00    +0.030 A 
ATOM     24  C   LIG    1        1.174   6.146   0.232  0.00  0.00    +0.000 A 
ATOM     25  C   LIG    1        2.349   5.972  -0.475  0.00  0.00    +0.010 A 
ATOM     26  C   LIG    1        2.479   4.910  -1.350  0.00  0.00    +0.000 A 
ATOM     27  C   LIG    1        1.433   4.022  -1.519  0.00  0.00    +0.000 A 
ENDBRANCH  21  22
ENDBRANCH   1  21
TORSDOF 9
