REMARK  Name = ZINCkj000005hmJ5.1
REMARK                            x       y       z     vdW  Elec       q    Type
REMARK                         _______ _______ _______ _____ _____    ______ ____
ROOT
ATOM      1  N   LIG    1        1.913   3.696   1.385  0.00  0.00    -0.730 N 
ATOM      2  H   LIG    1        1.733   3.090   2.121  0.00  0.00    +0.400 HD
ATOM      3  C   LIG    1        2.307   4.961   1.634  0.00  0.00    +0.710 C 
ATOM      4  N   LIG    1        2.452   5.383   2.906  0.00  0.00    -0.750 N 
ATOM      5  H   LIG    1        2.272   4.777   3.642  0.00  0.00    +0.400 HD
ATOM      6  O   LIG    1        2.532   5.721   0.712  0.00  0.00    -0.580 OA
ENDROOT
BRANCH   1   7
ATOM      7  C   LIG    1        1.755   3.237   0.003  0.00  0.00    +0.410 C 
BRANCH   7  12
ATOM      8  C   LIG    1        1.772  -1.782  -0.025  0.00  0.00    +0.390 C 
ATOM      9  N   LIG    1        1.294  -0.398  -0.012  0.00  0.00    -0.360 N 
ATOM     10  C   LIG    1        0.002  -0.004   0.002  0.00  0.00    +0.290 A 
ATOM     11  C   LIG    1       -0.016   1.349   0.009  0.00  0.00    -0.230 A 
ATOM     12  C   LIG    1        1.309   1.798  -0.001  0.00  0.00    +0.080 A 
ATOM     13 BR   LIG    1       -1.560   2.441   0.023  0.00  0.00    -0.010 Br
ATOM     14  N   LIG    1        2.095   0.751  -0.014  0.00  0.00    -0.260 NA
ENDBRANCH   7  12
ENDBRANCH   1   7
BRANCH   4  15
ATOM     15  C   LIG    1        2.881   6.758   3.177  0.00  0.00    +0.310 C 
BRANCH  15  16
ATOM     16  C   LIG    1        2.965   6.977   4.689  0.00  0.00    -0.020 C 
ATOM     17  C   LIG    1        4.070   6.091   5.273  0.00  0.00    +0.040 C 
ATOM     18  C   LIG    1        4.199   6.375   6.772  0.00  0.00    +0.050 C 
ATOM     19  C   LIG    1        4.479   7.864   6.981  0.00  0.00    +0.250 C 
ATOM     20  N   LIG    1        3.376   8.656   6.425  0.00  0.00    -0.380 N 
ATOM     21  C   LIG    1        3.612  10.081   6.697  0.00  0.00    +0.310 C 
ATOM     22  H   LIG    1        2.509   8.373   6.856  0.00  0.00    +0.420 HD
ATOM     23  C   LIG    1        3.291   8.444   4.975  0.00  0.00    +0.270 C 
ENDBRANCH  15  16
ENDBRANCH   4  15
TORSDOF 4
