REMARK  Name = ZINCkj000005hmJ5.0
REMARK                            x       y       z     vdW  Elec       q    Type
REMARK                         _______ _______ _______ _____ _____    ______ ____
ROOT
ATOM      1  N   LIG    1       -0.959   1.442   6.034  0.00  0.00    -0.730 N 
ATOM      2  H   LIG    1       -1.791   1.934   5.954  0.00  0.00    +0.400 HD
ATOM      3  C   LIG    1       -0.269   1.101   4.927  0.00  0.00    +0.710 C 
ATOM      4  N   LIG    1       -0.736   1.444   3.710  0.00  0.00    -0.750 N 
ATOM      5  H   LIG    1       -1.568   1.936   3.630  0.00  0.00    +0.400 HD
ATOM      6  O   LIG    1        0.773   0.484   5.027  0.00  0.00    -0.580 OA
ENDROOT
BRANCH   1   7
ATOM      7  C   LIG    1       -0.452   1.069   7.356  0.00  0.00    +0.410 C 
BRANCH   7  12
ATOM      8  C   LIG    1       -2.711   3.938  10.801  0.00  0.00    +0.390 C 
ATOM      9  N   LIG    1       -2.405   2.803   9.927  0.00  0.00    -0.360 N 
ATOM     10  C   LIG    1       -3.091   1.642   9.864  0.00  0.00    +0.290 A 
ATOM     11  C   LIG    1       -2.491   0.858   8.938  0.00  0.00    -0.230 A 
ATOM     12  C   LIG    1       -1.402   1.565   8.416  0.00  0.00    +0.080 A 
ATOM     13 BR   LIG    1       -3.031  -0.883   8.435  0.00  0.00    -0.010 Br
ATOM     14  N   LIG    1       -1.347   2.728   9.012  0.00  0.00    -0.260 NA
ENDBRANCH   7  12
ENDBRANCH   1   7
BRANCH   4  15
ATOM     15  C   LIG    1        0.014   1.073   2.507  0.00  0.00    +0.310 C 
BRANCH  15  16
ATOM     16  C   LIG    1       -0.728   1.579   1.268  0.00  0.00    -0.020 C 
ATOM     17  C   LIG    1       -0.745   3.110   1.272  0.00  0.00    +0.050 C 
ATOM     18  C   LIG    1       -1.421   3.606  -0.009  0.00  0.00    +0.050 C 
ATOM     19  C   LIG    1       -0.681   3.038  -1.222  0.00  0.00    +0.250 C 
ATOM     20  N   LIG    1       -0.722   1.571  -1.182  0.00  0.00    -0.380 N 
ATOM     21  C   LIG    1       -2.120   1.125  -1.134  0.00  0.00    +0.320 C 
ATOM     22  H   LIG    1       -0.280   1.201  -2.010  0.00  0.00    +0.430 HD
ATOM     23  C   LIG    1       -0.013   1.086   0.008  0.00  0.00    +0.280 C 
ENDBRANCH  15  16
ENDBRANCH   4  15
TORSDOF 4
