REMARK  Name = ZINCvU0000000BiV.0
REMARK                            x       y       z     vdW  Elec       q    Type
REMARK                         _______ _______ _______ _____ _____    ______ ____
ROOT
ATOM      1  N   LIG    1        1.409   1.400  -0.524  0.00  0.00    -0.660 N 
ATOM      2  H   LIG    1        1.413   2.212  -1.055  0.00  0.00    +0.420 HD
ATOM      3  C   LIG    1        0.270   0.985   0.065  0.00  0.00    +0.560 C 
ATOM      4  O   LIG    1        0.239  -0.086   0.641  0.00  0.00    -0.490 OA
ENDROOT
BRANCH   1   7
ATOM      5  C   LIG    1        3.928  -0.895   0.887  0.00  0.00    -0.150 A 
ATOM      6  C   LIG    1        2.751  -0.158   0.735  0.00  0.00    +0.160 A 
ATOM      7  C   LIG    1        2.588   0.659  -0.369  0.00  0.00    +0.100 A 
ATOM      8  C   LIG    1        3.593   0.742  -1.330  0.00  0.00    +0.140 A 
ATOM      9  C   LIG    1        4.763   0.018  -1.179  0.00  0.00    -0.010 A 
ATOM     10  F   LIG    1        3.429   1.538  -2.409  0.00  0.00    -0.120 F 
ATOM     11  C   LIG    1        4.936  -0.802  -0.080  0.00  0.00    +0.180 A 
ATOM     12  F   LIG    1        6.076  -1.513   0.061  0.00  0.00    -0.100 F 
BRANCH   5  13
ATOM     13  C   LIG    1        4.108  -1.768   2.061  0.00  0.00    +0.510 C 
ATOM     14  O   LIG    1        5.133  -2.409   2.191  0.00  0.00    -0.490 OA
BRANCH  13  16
ATOM     15  C   LIG    1        3.383  -2.735   4.120  0.00  0.00    +0.290 C 
ATOM     16  O   LIG    1        3.137  -1.856   2.991  0.00  0.00    -0.350 OA
ENDBRANCH  13  16
ENDBRANCH   5  13
ENDBRANCH   1   7
BRANCH   3  17
ATOM     17  C   LIG    1       -0.941   1.826   0.004  0.00  0.00    -0.130 A 
ATOM     18  C   LIG    1       -0.830   3.206  -0.164  0.00  0.00    +0.050 A 
ATOM     19  C   LIG    1       -1.966   3.987  -0.226  0.00  0.00    +0.020 A 
ATOM     20  C   LIG    1       -3.220   3.410  -0.110  0.00  0.00    +0.060 A 
ATOM     21  C   LIG    1       -3.349   2.046   0.062  0.00  0.00    +0.030 A 
ATOM     22  C   LIG    1       -2.216   1.241   0.121  0.00  0.00    +0.010 A 
BRANCH  22  23
ATOM     23  C   LIG    1       -2.350  -0.223   0.306  0.00  0.00    -0.010 A 
ATOM     24  C   LIG    1       -1.780  -1.101  -0.615  0.00  0.00    +0.040 A 
ATOM     25  C   LIG    1       -1.904  -2.463  -0.434  0.00  0.00    +0.070 A 
ATOM     26  C   LIG    1       -2.601  -2.958   0.653  0.00  0.00    -0.180 A 
ATOM     27  C   LIG    1       -3.173  -2.093   1.568  0.00  0.00    +0.070 A 
ATOM     28  C   LIG    1       -3.052  -0.728   1.400  0.00  0.00    +0.040 A 
BRANCH  26  29
ATOM     29  C   LIG    1       -2.738  -4.447   0.842  0.00  0.00    +0.510 C 
ATOM     30  F   LIG    1       -2.828  -4.738   2.207  0.00  0.00    -0.180 F 
ATOM     31  F   LIG    1       -1.619  -5.090   0.301  0.00  0.00    -0.180 F 
ATOM     32  F   LIG    1       -3.893  -4.896   0.192  0.00  0.00    -0.180 F 
ENDBRANCH  26  29
ENDBRANCH  22  23
ENDBRANCH   3  17
TORSDOF 6
