REMARK  Name = ZINCqH0000004Uq4.0
REMARK                            x       y       z     vdW  Elec       q    Type
REMARK                         _______ _______ _______ _____ _____    ______ ____
ROOT
ATOM      1  N   LIG    1       -2.639  -2.417   0.942  0.00  0.00    -0.640 N 
ATOM      2  H   LIG    1       -3.545  -2.085   1.052  0.00  0.00    +0.430 HD
ATOM      3  C   LIG    1       -1.610  -1.550   0.859  0.00  0.00    +0.580 C 
ATOM      4  O   LIG    1       -0.491  -1.958   0.616  0.00  0.00    -0.500 OA
ENDROOT
BRANCH   3   5
ATOM      5  C   LIG    1       -1.843  -0.104   1.064  0.00  0.00    +0.110 A 
ATOM      6  N   LIG    1       -3.059   0.343   1.326  0.00  0.00    -0.450 NA
ATOM      7  C   LIG    1       -3.323   1.623   1.517  0.00  0.00    +0.230 A 
ATOM      8  C   LIG    1       -2.349   2.579   1.461  0.00  0.00    +0.030 A 
ATOM      9  C   LIG    1       -1.028   2.188   1.182  0.00  0.00    -0.030 A 
ATOM     10  C   LIG    1        0.025   3.111   1.104  0.00  0.00    +0.030 A 
ATOM     11  C   LIG    1        1.285   2.669   0.836  0.00  0.00    +0.040 A 
ATOM     12  C   LIG    1        1.543   1.314   0.637  0.00  0.00    +0.020 A 
ATOM     13  C   LIG    1        0.543   0.390   0.706  0.00  0.00    +0.070 A 
ATOM     14  C   LIG    1       -0.765   0.808   0.980  0.00  0.00    -0.060 A 
ENDBRANCH   3   5
BRANCH   1  20
ATOM     15  C   LIG    1       -3.443  -4.666   0.531  0.00  0.00    -0.060 A 
ATOM     16  C   LIG    1       -3.195  -6.037   0.462  0.00  0.00    +0.050 A 
ATOM     17  C   LIG    1       -1.931  -6.522   0.728  0.00  0.00    -0.010 A 
ATOM     18  C   LIG    1       -0.906  -5.654   1.063  0.00  0.00    +0.050 A 
ATOM     19  C   LIG    1       -1.137  -4.293   1.129  0.00  0.00    +0.020 A 
ATOM     20  C   LIG    1       -2.403  -3.790   0.870  0.00  0.00    +0.190 A 
BRANCH  15  25
ATOM     21  N   LIG    1       -5.973  -4.595   0.775  0.00  0.00    -0.470 N 
ATOM     22  C   LIG    1       -6.948  -3.815   0.232  0.00  0.00    +0.380 A 
ATOM     23  N   LIG    1       -6.367  -2.965  -0.571  0.00  0.00    -0.290 NA
ATOM     24  N   LIG    1       -5.095  -3.152  -0.567  0.00  0.00    -0.270 NA
ATOM     25  C   LIG    1       -4.795  -4.141   0.246  0.00  0.00    +0.210 A 
BRANCH  21  27
ATOM     26  C   LIG    1       -5.814  -5.199   3.140  0.00  0.00    +0.050 C 
ATOM     27  C   LIG    1       -6.149  -5.692   1.731  0.00  0.00    +0.300 C 
ENDBRANCH  21  27
ENDBRANCH  15  25
ENDBRANCH   1  20
TORSDOF 4
