REMARK  Name = ZINCpe000000XU2u.0
REMARK                            x       y       z     vdW  Elec       q    Type
REMARK                         _______ _______ _______ _____ _____    ______ ____
ROOT
ATOM      1  C   LIG    1        0.166  -0.790   6.065  0.00  0.00    +0.520 C 
ATOM      2  N   LIG    1        0.430  -0.127   4.922  0.00  0.00    -0.620 N 
ATOM      3  C   LIG    1        0.351   1.341   4.865  0.00  0.00    +0.300 C 
ATOM      4  C   LIG    1       -0.530   1.735   3.675  0.00  0.00    +0.170 C 
ATOM      5  N   LIG    1       -0.018   1.093   2.457  0.00  0.00    -0.530 NA
ATOM      6  C   LIG    1       -0.095  -0.371   2.554  0.00  0.00    +0.160 C 
ATOM      7  C   LIG    1        0.804  -0.852   3.698  0.00  0.00    +0.280 C 
ATOM      8  O   LIG    1       -0.141  -0.177   7.065  0.00  0.00    -0.530 OA
ENDROOT
BRANCH   1   9
ATOM      9  C   LIG    1        0.253  -2.294   6.101  0.00  0.00    +0.100 C 
BRANCH   9  16
ATOM     10  C   LIG    1       -2.507  -2.702   6.853  0.00  0.00    +0.080 C 
ATOM     11  C   LIG    1       -1.407  -2.979   7.845  0.00  0.00    -0.070 A 
ATOM     12  C   LIG    1       -1.718  -3.434   9.113  0.00  0.00    +0.000 A 
ATOM     13  C   LIG    1       -0.709  -3.683  10.024  0.00  0.00    +0.010 A 
ATOM     14  C   LIG    1        0.611  -3.483   9.667  0.00  0.00    +0.000 A 
ATOM     15  C   LIG    1        0.922  -3.033   8.397  0.00  0.00    +0.020 A 
ATOM     16  C   LIG    1       -0.086  -2.784   7.485  0.00  0.00    -0.070 A 
ENDBRANCH   9  16
ENDBRANCH   1   9
BRANCH   5  17
ATOM     17  C   LIG    1       -0.729   1.579   1.267  0.00  0.00    +0.160 C 
BRANCH  17  18
ATOM     18  C   LIG    1       -0.013   1.086   0.008  0.00  0.00    +0.290 C 
BRANCH  18  19
ATOM     19  N   LIG    1       -0.721   1.571  -1.179  0.00  0.00    -0.580 N 
ATOM     20  C   LIG    1       -1.705   0.880  -1.768  0.00  0.00    +0.530 C 
ATOM     21  C   LIG    1       -2.220   1.663  -2.957  0.00  0.00    +0.080 C 
ATOM     22  C   LIG    1       -1.347   2.934  -2.958  0.00  0.00    +0.080 C 
ATOM     23  O   LIG    1       -2.120  -0.199  -1.405  0.00  0.00    -0.480 OA
ATOM     24  C   LIG    1       -0.434   2.739  -1.767  0.00  0.00    +0.530 C 
ATOM     25  O   LIG    1        0.421   3.517  -1.402  0.00  0.00    -0.470 OA
ENDBRANCH  18  19
ENDBRANCH  17  18
ENDBRANCH   5  17
TORSDOF 5
