REMARK  Name = ZINCpe00000VVH07.0
REMARK                            x       y       z     vdW  Elec       q    Type
REMARK                         _______ _______ _______ _____ _____    ______ ____
ROOT
ATOM      1  C   LIG    1       -4.376   4.468  -4.803  0.00  0.00    +0.130 C 
ATOM      2  C   LIG    1       -4.952   5.692  -4.055  0.00  0.00    +0.040 C 
ATOM      3  C   LIG    1       -6.361   5.849  -4.685  0.00  0.00    +0.180 C 
ATOM      4  N   LIG    1       -6.802   4.445  -4.888  0.00  0.00    -0.490 NA
ATOM      5  C   LIG    1       -5.603   3.707  -5.338  0.00  0.00    +0.190 C 
ENDROOT
BRANCH   1   6
ATOM      6  N   LIG    1       -3.612   3.619  -3.878  0.00  0.00    -0.520 NA
ATOM      7  C   LIG    1       -2.561   4.390  -3.202  0.00  0.00    +0.190 C 
BRANCH   6   8
ATOM      8  C   LIG    1       -3.047   2.457  -4.576  0.00  0.00    +0.300 C 
BRANCH   8  11
ATOM      9  C   LIG    1       -0.136   2.401  -3.426  0.00  0.00    +0.320 C 
ATOM     10  N   LIG    1       -1.221   1.480  -3.079  0.00  0.00    -0.470 N 
ATOM     11  C   LIG    1       -2.485   1.488  -3.567  0.00  0.00    +0.180 A 
ATOM     12  N   LIG    1       -3.128   0.506  -2.996  0.00  0.00    -0.270 NA
ATOM     13  N   LIG    1       -2.343  -0.114  -2.189  0.00  0.00    -0.290 NA
ATOM     14  C   LIG    1       -1.163   0.443  -2.208  0.00  0.00    +0.210 A 
BRANCH  14  15
ATOM     15  C   LIG    1        0.040   0.018  -1.406  0.00  0.00    +0.030 C 
ATOM     16  C   LIG    1       -0.058  -1.298  -0.630  0.00  0.00    +0.070 C 
ATOM     17  C   LIG    1       -0.086   0.036   0.119  0.00  0.00    +0.050 C 
ENDBRANCH  14  15
ENDBRANCH   8  11
ENDBRANCH   6   8
ENDBRANCH   1   6
BRANCH   4  18
ATOM     18  C   LIG    1       -7.874   4.370  -5.889  0.00  0.00    +0.200 C 
BRANCH  18  19
ATOM     19  C   LIG    1       -8.978   5.325  -5.516  0.00  0.00    +0.520 C 
ATOM     20  N   LIG    1      -10.073   5.428  -6.296  0.00  0.00    -0.590 N 
ATOM     21  C   LIG    1      -10.189   4.610  -7.506  0.00  0.00    +0.280 C 
ATOM     22  O   LIG    1       -8.882   6.002  -4.515  0.00  0.00    -0.520 OA
BRANCH  20  23
ATOM     23  C   LIG    1      -11.146   6.356  -5.934  0.00  0.00    +0.210 C 
ATOM     24  C   LIG    1      -12.445   6.284  -6.739  0.00  0.00    +0.030 C 
ATOM     25  C   LIG    1      -11.490   7.463  -6.932  0.00  0.00    +0.010 C 
ENDBRANCH  20  23
ENDBRANCH  18  19
ENDBRANCH   4  18
TORSDOF 7
