REMARK  Name = ZINCBu00000007TD.1
REMARK                            x       y       z     vdW  Elec       q    Type
REMARK                         _______ _______ _______ _____ _____    ______ ____
ROOT
ATOM      1  N   LIG    1        5.338   0.833  -0.936  0.00  0.00    -0.730 N 
ATOM      2  H   LIG    1        5.207   1.705  -0.530  0.00  0.00    +0.410 HD
ATOM      3  C   LIG    1        4.293   0.181  -1.482  0.00  0.00    +0.520 C 
ATOM      4  O   LIG    1        4.455  -0.908  -1.989  0.00  0.00    -0.520 OA
ENDROOT
BRANCH   1   5
ATOM      5  C   LIG    1        6.671   0.226  -0.954  0.00  0.00    +0.330 C 
BRANCH   5  10
ATOM      6  C   LIG    1        8.782   1.901   1.690  0.00  0.00    -0.160 A 
ATOM      7  C   LIG    1        9.457   2.849   0.944  0.00  0.00    +0.050 A 
ATOM      8  C   LIG    1        9.231   2.947  -0.416  0.00  0.00    +0.030 A 
ATOM      9  C   LIG    1        8.333   2.095  -1.031  0.00  0.00    +0.070 A 
ATOM     10  C   LIG    1        7.654   1.151  -0.284  0.00  0.00    -0.100 A 
ATOM     11  C   LIG    1        7.880   1.052   1.076  0.00  0.00    +0.050 A 
BRANCH   6  12
ATOM     12  C   LIG    1        9.029   1.794   3.173  0.00  0.00    +0.330 C 
BRANCH  12  17
ATOM     13  C   LIG    1       11.646  -0.081   5.101  0.00  0.00    +0.010 C 
ATOM     14  C   LIG    1       11.293  -1.501   4.649  0.00  0.00    +0.070 C 
ATOM     15  C   LIG    1       10.883  -1.469   3.174  0.00  0.00    +0.050 C 
ATOM     16  C   LIG    1        9.716  -0.496   2.994  0.00  0.00    +0.240 C 
ATOM     17  N   LIG    1       10.126   0.848   3.419  0.00  0.00    -0.380 N 
ATOM     18  H   LIG    1       10.939   1.133   2.893  0.00  0.00    +0.430 HD
ATOM     19  C   LIG    1       10.451   0.841   4.850  0.00  0.00    +0.290 C 
BRANCH  13  23
ATOM     20  N   LIG    1       14.008  -0.249   4.384  0.00  0.00    -0.830 N 
ATOM     21  H   LIG    1       14.774   0.069   3.881  0.00  0.00    +0.420 HD
ATOM     22  H   LIG    1       14.085  -1.045   4.933  0.00  0.00    +0.410 HD
ATOM     23  C   LIG    1       12.836   0.414   4.320  0.00  0.00    +0.520 C 
ATOM     24  O   LIG    1       12.740   1.409   3.633  0.00  0.00    -0.560 OA
ENDBRANCH  13  23
ENDBRANCH  12  17
ENDBRANCH   6  12
ENDBRANCH   5  10
ENDBRANCH   1   5
BRANCH   3  25
ATOM     25  C   LIG    1        2.921   0.806  -1.464  0.00  0.00    +0.260 C 
BRANCH  25  26
ATOM     26  N   LIG    1        1.966  -0.093  -2.115  0.00  0.00    -0.710 N 
ATOM     27  H   LIG    1        2.142  -1.047  -2.147  0.00  0.00    +0.410 HD
ATOM     28  C   LIG    1        0.842   0.403  -2.668  0.00  0.00    +0.570 C 
ATOM     29  O   LIG    1        0.621   1.598  -2.628  0.00  0.00    -0.510 OA
BRANCH  28  30
ATOM     30  C   LIG    1       -0.122  -0.505  -3.325  0.00  0.00    -0.190 A 
ATOM     31  C   LIG    1       -1.296  -0.002  -3.899  0.00  0.00    +0.140 A 
ATOM     32  C   LIG    1       -2.163  -0.893  -4.506  0.00  0.00    -0.030 A 
ATOM     33  C   LIG    1       -1.851  -2.241  -4.517  0.00  0.00    +0.290 A 
ATOM     34  N   LIG    1       -0.739  -2.687  -3.963  0.00  0.00    -0.490 NA
ATOM     35  C   LIG    1        0.119  -1.878  -3.379  0.00  0.00    +0.290 A 
ENDBRANCH  28  30
ENDBRANCH  25  26
BRANCH  25  36
ATOM     36  C   LIG    1        2.490   1.048  -0.016  0.00  0.00    +0.080 C 
BRANCH  36  37
ATOM     37  C   LIG    1        1.175   1.783   0.000  0.00  0.00    -0.070 A 
ATOM     38  C   LIG    1       -0.013   1.076   0.008  0.00  0.00    +0.000 A 
ATOM     39  C   LIG    1       -1.219   1.751   0.017  0.00  0.00    +0.010 A 
ATOM     40  C   LIG    1       -1.238   3.133   0.030  0.00  0.00    +0.010 A 
ATOM     41  C   LIG    1       -0.050   3.840   0.022  0.00  0.00    +0.010 A 
ATOM     42  C   LIG    1        1.156   3.165   0.008  0.00  0.00    +0.000 A 
ENDBRANCH  36  37
ENDBRANCH  25  36
ENDBRANCH   3  25
TORSDOF 10
