REMARK  Name = ZINCvU000000044b.0
REMARK                            x       y       z     vdW  Elec       q    Type
REMARK                         _______ _______ _______ _____ _____    ______ ____
ROOT
ATOM      1  C   LIG    1        1.250  -0.469  -0.012  0.00  0.00    +0.010 A 
ATOM      2  C   LIG    1        0.002  -0.004   0.002  0.00  0.00    -0.050 A 
ATOM      3  S   LIG    1       -0.022   1.749   0.012  0.00  0.00    +0.210 S 
ATOM      4  C   LIG    1        1.734   1.845  -0.005  0.00  0.00    +0.090 A 
ATOM      5  N   LIG    1        2.553   2.917  -0.007  0.00  0.00    -0.510 NA
ATOM      6  C   LIG    1        3.857   2.785  -0.021  0.00  0.00    +0.370 A 
ATOM      7  N   LIG    1        4.451   1.556  -0.033  0.00  0.00    -0.510 N 
ATOM      8  C   LIG    1        3.698   0.439  -0.032  0.00  0.00    +0.570 A 
ATOM      9  O   LIG    1        4.222  -0.661  -0.042  0.00  0.00    -0.490 OA
ATOM     10  C   LIG    1        2.278   0.565  -0.017  0.00  0.00    -0.220 A 
ENDROOT
BRANCH   1  15
ATOM     11  C   LIG    1        2.480  -6.094  -0.053  0.00  0.00    +0.090 C 
ATOM     12  C   LIG    1        2.158  -4.622  -0.042  0.00  0.00    -0.080 A 
ATOM     13  C   LIG    1        1.266  -4.118   0.888  0.00  0.00    -0.010 A 
ATOM     14  C   LIG    1        0.968  -2.771   0.903  0.00  0.00    +0.020 A 
ATOM     15  C   LIG    1        1.567  -1.917  -0.022  0.00  0.00    -0.040 A 
ATOM     16  C   LIG    1        2.461  -2.431  -0.961  0.00  0.00    +0.060 A 
ATOM     17  C   LIG    1        2.755  -3.779  -0.962  0.00  0.00    +0.000 A 
ENDBRANCH   1  15
BRANCH   6  18
ATOM     18  S   LIG    1        4.868   4.228  -0.022  0.00  0.00    +0.010 S 
BRANCH  18  19
ATOM     19  C   LIG    1        3.588   5.508  -0.003  0.00  0.00    +0.170 C 
BRANCH  19  20
ATOM     20  C   LIG    1        4.237   6.868  -0.001  0.00  0.00    -0.140 A 
ATOM     21  C   LIG    1        4.546   7.497   1.195  0.00  0.00    +0.090 A 
ATOM     22  C   LIG    1        5.149   8.745   1.147  0.00  0.00    -0.030 A 
ATOM     23  C   LIG    1        5.407   9.322  -0.081  0.00  0.00    +0.270 A 
ATOM     24  N   LIG    1        5.095   8.696  -1.200  0.00  0.00    -0.480 NA
ATOM     25  C   LIG    1        4.527   7.506  -1.193  0.00  0.00    +0.280 A 
ENDBRANCH  19  20
ENDBRANCH  18  19
ENDBRANCH   6  18
BRANCH   7  26
ATOM     26  C   LIG    1        5.912   1.451  -0.047  0.00  0.00    +0.300 C 
BRANCH  26  27
ATOM     27  C   LIG    1        6.434   1.407   1.390  0.00  0.00    +0.160 C 
ATOM     28  C   LIG    1        7.978   1.418   1.387  0.00  0.00    +0.020 C 
ATOM     29  C   LIG    1        8.316   0.422   2.531  0.00  0.00    +0.010 C 
ATOM     30  C   LIG    1        7.154  -0.593   2.392  0.00  0.00    +0.200 C 
ATOM     31  O   LIG    1        6.010   0.195   2.024  0.00  0.00    -0.360 OA
ENDBRANCH  26  27
ENDBRANCH   7  26
TORSDOF 6
