REMARK  Name = ZINCvU0000000B7m.0
REMARK                            x       y       z     vdW  Elec       q    Type
REMARK                         _______ _______ _______ _____ _____    ______ ____
ROOT
ATOM      1  C   LIG    1        2.422   1.183  -0.015  0.00  0.00    +0.240 C 
ATOM      2  C   LIG    1        2.919   0.971  -1.468  0.00  0.00    +0.020 C 
ATOM      3  C   LIG    1        3.503   2.343  -1.865  0.00  0.00    +0.020 C 
ATOM      4  C   LIG    1        4.864   2.122  -2.606  0.00  0.00    +0.200 C 
ATOM      5  N   LIG    1        5.769   3.162  -2.051  0.00  0.00    -0.450 N 
ATOM      6  C   LIG    1        5.444   3.192  -0.602  0.00  0.00    +0.220 C 
ATOM      7  C   LIG    1        3.910   3.040  -0.541  0.00  0.00    -0.010 C 
ATOM      8  C   LIG    1        3.551   2.055   0.591  0.00  0.00    +0.040 C 
ENDROOT
BRANCH   5   9
ATOM      9  C   LIG    1        7.099   2.824  -2.256  0.00  0.00    +0.370 A 
ATOM     10  N   LIG    1        7.898   2.584  -1.224  0.00  0.00    -0.540 NA
ATOM     11  C   LIG    1        9.159   2.253  -1.424  0.00  0.00    +0.520 A 
ATOM     12  N   LIG    1        9.673   2.165  -2.629  0.00  0.00    -0.530 NA
ATOM     13  C   LIG    1        8.945   2.405  -3.725  0.00  0.00    +0.190 A 
ATOM     14  C   LIG    1        9.643   2.298  -5.046  0.00  0.00    +0.110 C 
ATOM     15  C   LIG    1        8.700   2.048  -6.211  0.00  0.00    +0.050 C 
ATOM     16  C   LIG    1        7.703   3.212  -6.309  0.00  0.00    +0.080 C 
ATOM     17  S   LIG    1        6.544   3.052  -4.919  0.00  0.00    -0.060 S 
ATOM     18  C   LIG    1        7.620   2.738  -3.559  0.00  0.00    -0.200 A 
ENDBRANCH   5   9
BRANCH   1  20
ATOM     19  C   LIG    1       -0.014   1.209   0.009  0.00  0.00    +0.530 C 
ATOM     20  N   LIG    1        1.143   1.898   0.001  0.00  0.00    -0.720 N 
ATOM     21  H   LIG    1        1.130   2.868   0.007  0.00  0.00    +0.400 HD
ATOM     22  O   LIG    1        0.002  -0.004   0.002  0.00  0.00    -0.540 OA
BRANCH  19  23
ATOM     23  C   LIG    1       -1.330   1.944   0.019  0.00  0.00    -0.080 C 
ATOM     24  C   LIG    1       -1.429   2.829  -1.225  0.00  0.00    +0.050 C 
BRANCH  23  25
ATOM     25  C   LIG    1       -1.417   2.816   1.273  0.00  0.00    +0.030 C 
ATOM     26  C   LIG    1       -1.318   1.931   2.517  0.00  0.00    +0.010 C 
ENDBRANCH  23  25
BRANCH  23  27
ATOM     27  C   LIG    1       -2.479   0.934   0.019  0.00  0.00    +0.040 C 
BRANCH  27  28
ATOM     28  C   LIG    1       -3.814   1.681   0.029  0.00  0.00    +0.010 C 
BRANCH  28  29
ATOM     29  C   LIG    1       -4.963   0.671   0.029  0.00  0.00    +0.000 C 
BRANCH  29  30
ATOM     30  C   LIG    1       -6.299   1.418   0.040  0.00  0.00    +0.000 C 
BRANCH  30  32
ATOM     31  C   LIG    1       -8.783   1.155   0.050  0.00  0.00    +0.000 C 
ATOM     32  C   LIG    1       -7.448   0.408   0.040  0.00  0.00    -0.010 C 
ENDBRANCH  30  32
ENDBRANCH  29  30
ENDBRANCH  28  29
ENDBRANCH  27  28
ENDBRANCH  23  27
ENDBRANCH  19  23
ENDBRANCH   1  20
TORSDOF 9
