REMARK  Name = ZINCqH0000038ShK.0
REMARK                            x       y       z     vdW  Elec       q    Type
REMARK                         _______ _______ _______ _____ _____    ______ ____
ROOT
ATOM      1  C   LIG    1       -3.429   3.587  -2.989  0.00  0.00    +0.320 C 
ENDROOT
BRANCH   1   4
ATOM      2  C   LIG    1       -6.186   2.120  -3.282  0.00  0.00    +0.340 C 
ATOM      3  N   LIG    1       -5.987   3.530  -2.938  0.00  0.00    -0.460 N 
ATOM      4  C   LIG    1       -4.801   4.183  -2.806  0.00  0.00    +0.190 A 
ATOM      5  N   LIG    1       -5.069   5.424  -2.498  0.00  0.00    -0.280 NA
ATOM      6  N   LIG    1       -6.341   5.594  -2.421  0.00  0.00    -0.280 NA
ATOM      7  C   LIG    1       -6.956   4.462  -2.679  0.00  0.00    +0.220 A 
BRANCH   7   8
ATOM      8  C   LIG    1       -8.418   4.238  -2.694  0.00  0.00    -0.020 A 
ATOM      9  C   LIG    1       -9.292   5.322  -2.785  0.00  0.00    +0.070 A 
ATOM     10  C   LIG    1      -10.655   5.106  -2.803  0.00  0.00    +0.010 A 
ATOM     11  C   LIG    1      -11.155   3.819  -2.720  0.00  0.00    +0.030 A 
ATOM     12  C   LIG    1      -10.295   2.740  -2.624  0.00  0.00    +0.010 A 
ATOM     13  C   LIG    1       -8.930   2.942  -2.610  0.00  0.00    +0.020 A 
ENDBRANCH   7   8
ENDBRANCH   1   4
BRANCH   1  14
ATOM     14  N   LIG    1       -2.947   3.066  -1.703  0.00  0.00    -0.530 NA
ATOM     15  C   LIG    1       -2.728   4.156  -0.741  0.00  0.00    +0.150 C 
ATOM     16  C   LIG    1       -2.284   3.565   0.600  0.00  0.00    +0.240 C 
ATOM     17  O   LIG    1       -1.109   2.775   0.401  0.00  0.00    -0.370 OA
ATOM     18  C   LIG    1       -1.286   1.703  -0.529  0.00  0.00    +0.220 C 
ATOM     19  C   LIG    1       -1.720   2.275  -1.881  0.00  0.00    +0.170 C 
BRANCH  18  20
ATOM     20  C   LIG    1        0.013   0.958  -0.691  0.00  0.00    -0.070 A 
ATOM     21  C   LIG    1        0.005  -0.410  -0.890  0.00  0.00    +0.030 A 
ATOM     22  C   LIG    1        1.197  -1.093  -1.045  0.00  0.00    +0.030 A 
ATOM     23  C   LIG    1        2.397  -0.409  -1.002  0.00  0.00    +0.020 A 
ATOM     24  C   LIG    1        2.406   0.960  -0.803  0.00  0.00    -0.040 A 
ATOM     25 CL   LIG    1        3.913   1.820  -0.748  0.00  0.00    -0.070 Cl
ATOM     26  C   LIG    1        1.213   1.643  -0.647  0.00  0.00    +0.060 A 
ENDBRANCH  18  20
ENDBRANCH   1  14
TORSDOF 4
