REMARK  Name = ZINCvU00000009Ze.0
REMARK                            x       y       z     vdW  Elec       q    Type
REMARK                         _______ _______ _______ _____ _____    ______ ____
ROOT
ATOM      1  C   LIG    1        5.068  -3.417   0.450  0.00  0.00    +0.000 A 
ATOM      2  N   LIG    1        6.165  -2.728   0.436  0.00  0.00    -0.280 NA
ATOM      3  N   LIG    1        7.330  -3.460   0.518  0.00  0.00    -0.280 NA
ATOM      4  C   LIG    1        7.179  -4.745   0.597  0.00  0.00    +0.000 A 
ATOM      5  S   LIG    1        5.461  -5.128   0.580  0.00  0.00    +0.170 S 
ENDROOT
BRANCH   1   6
ATOM      6  S   LIG    1        3.440  -2.748   0.359  0.00  0.00    +0.120 S 
BRANCH   6   7
ATOM      7  C   LIG    1        3.739  -0.962   0.250  0.00  0.00    +0.100 C 
BRANCH   7  10
ATOM      8  N   LIG    1        2.397   1.108   0.076  0.00  0.00    -0.660 N 
ATOM      9  H   LIG    1        3.227   1.605   0.001  0.00  0.00    +0.420 HD
ATOM     10  C   LIG    1        2.421  -0.236   0.165  0.00  0.00    +0.540 C 
ATOM     11  O   LIG    1        1.383  -0.862   0.176  0.00  0.00    -0.500 OA
BRANCH   8  19
ATOM     12  C   LIG    1        2.291   3.654   1.343  0.00  0.00    +0.110 C 
ATOM     13  C   LIG    1        1.078   3.034   0.699  0.00  0.00    -0.100 A 
ATOM     14  C   LIG    1       -0.130   3.703   0.712  0.00  0.00    +0.060 A 
ATOM     15  C   LIG    1       -1.244   3.134   0.121  0.00  0.00    -0.110 A 
ATOM     16  C   LIG    1       -1.150   1.897  -0.490  0.00  0.00    +0.060 A 
ATOM     17  C   LIG    1        0.055   1.220  -0.502  0.00  0.00    +0.040 A 
ATOM     18  I   LIG    1       -3.074   4.152   0.144  0.00  0.00    -0.040 I 
ATOM     19  C   LIG    1        1.174   1.789   0.091  0.00  0.00    +0.160 A 
ENDBRANCH   8  19
ENDBRANCH   7  10
ENDBRANCH   6   7
ENDBRANCH   1   6
BRANCH   4  20
ATOM     20  S   LIG    1        8.486  -5.921   0.712  0.00  0.00    +0.120 S 
BRANCH  20  21
ATOM     21  C   LIG    1        9.973  -4.883   0.686  0.00  0.00    +0.100 C 
BRANCH  21  22
ATOM     22  C   LIG    1       11.197  -5.756   0.779  0.00  0.00    +0.540 C 
ATOM     23  N   LIG    1       12.425  -5.198   0.777  0.00  0.00    -0.660 N 
ATOM     24  H   LIG    1       12.518  -4.233   0.783  0.00  0.00    +0.420 HD
ATOM     25  O   LIG    1       11.079  -6.961   0.854  0.00  0.00    -0.500 OA
BRANCH  23  26
ATOM     26  C   LIG    1       13.563  -6.012   0.768  0.00  0.00    +0.160 A 
ATOM     27  C   LIG    1       13.557  -7.225   1.445  0.00  0.00    +0.040 A 
ATOM     28  C   LIG    1       14.682  -8.026   1.434  0.00  0.00    +0.060 A 
ATOM     29  C   LIG    1       15.813  -7.622   0.749  0.00  0.00    -0.110 A 
ATOM     30  C   LIG    1       15.822  -6.415   0.073  0.00  0.00    +0.060 A 
ATOM     31  I   LIG    1       17.517  -8.841   0.734  0.00  0.00    -0.040 I 
ATOM     32  C   LIG    1       14.699  -5.612   0.077  0.00  0.00    -0.100 A 
ATOM     33  C   LIG    1       14.708  -4.299  -0.664  0.00  0.00    +0.110 C 
ENDBRANCH  23  26
ENDBRANCH  21  22
ENDBRANCH  20  21
ENDBRANCH   4  20
TORSDOF 8
