REMARK  Name = ZINCnE000008J35p.0
REMARK                            x       y       z     vdW  Elec       q    Type
REMARK                         _______ _______ _______ _____ _____    ______ ____
ROOT
ATOM      1  C   LIG    1        0.008   1.093   0.018  0.00  0.00    +0.100 C 
ATOM      2  C   LIG    1       -0.689   1.588   1.259  0.00  0.00    -0.010 A 
ATOM      3  C   LIG    1       -2.066   1.605   1.318  0.00  0.00    -0.030 A 
ATOM      4  C   LIG    1       -2.710   2.055   2.460  0.00  0.00    +0.060 A 
ATOM      5  C   LIG    1       -1.984   2.500   3.545  0.00  0.00    -0.100 A 
ATOM      6  C   LIG    1       -0.594   2.495   3.502  0.00  0.00    +0.200 A 
ATOM      7  N   LIG    1        0.365   2.877   4.426  0.00  0.00    -0.450 N 
ATOM      8  C   LIG    1        1.631   2.683   3.915  0.00  0.00    +0.340 A 
ATOM      9  N   LIG    1        2.830   2.900   4.424  0.00  0.00    -0.470 NA
ATOM     10  C   LIG    1        3.921   2.619   3.704  0.00  0.00    +0.130 A 
ATOM     11  C   LIG    1        5.207   2.844   4.228  0.00  0.00    +0.050 A 
ATOM     12  C   LIG    1        6.303   2.552   3.477  0.00  0.00    +0.030 A 
ATOM     13  C   LIG    1        6.173   2.030   2.190  0.00  0.00    +0.010 A 
ATOM     14  C   LIG    1        4.947   1.799   1.649  0.00  0.00    +0.060 A 
ATOM     15  C   LIG    1        3.789   2.089   2.395  0.00  0.00    +0.050 A 
ATOM     16  N   LIG    1        2.573   1.871   1.886  0.00  0.00    -0.390 NA
ATOM     17  C   LIG    1        1.504   2.152   2.605  0.00  0.00    +0.110 A 
ATOM     18  C   LIG    1       -2.698   2.991   4.777  0.00  0.00    +0.100 C 
ATOM     19  C   LIG    1        0.056   2.035   2.348  0.00  0.00    -0.110 A 
ENDROOT
BRANCH   7  20
ATOM     20  C   LIG    1        0.075   3.414   5.758  0.00  0.00    +0.210 C 
BRANCH  20  21
ATOM     21  C   LIG    1       -0.118   2.276   6.727  0.00  0.00    +0.490 C 
ATOM     22  O   LIG    1       -0.370   2.508   7.897  0.00  0.00    -0.690 OA
ATOM     23  O   LIG    1       -0.023   1.124   6.341  0.00  0.00    -0.670 OA
ENDBRANCH  20  21
ENDBRANCH   7  20
TORSDOF 2
