REMARK  Name = ZINCnE000001IQL0.0
REMARK                            x       y       z     vdW  Elec       q    Type
REMARK                         _______ _______ _______ _____ _____    ______ ____
ROOT
ATOM      1  C   LIG    1       -5.738   3.013   2.820  0.00  0.00    +0.280 C 
ATOM      2  N   LIG    1       -5.040   3.898   1.883  0.00  0.00    -0.600 N 
ATOM      3  C   LIG    1       -4.796   5.179   2.222  0.00  0.00    +0.600 C 
ATOM      4  O   LIG    1       -4.147   5.892   1.479  0.00  0.00    -0.510 OA
ENDROOT
BRANCH   3   5
ATOM      5  C   LIG    1       -5.314   5.715   3.485  0.00  0.00    -0.270 A 
ATOM      6  C   LIG    1       -6.483   6.384   3.651  0.00  0.00    +0.120 A 
ATOM      7  N   LIG    1       -6.718   6.755   4.884  0.00  0.00    -0.460 NA
ATOM      8  C   LIG    1       -5.827   6.459   5.775  0.00  0.00    +0.210 A 
ATOM      9  S   LIG    1       -4.526   5.613   5.058  0.00  0.00    +0.190 S 
BRANCH   6  10
ATOM     10  C   LIG    1       -7.431   6.671   2.515  0.00  0.00    +0.000 C 
ATOM     11  C   LIG    1       -6.731   7.550   1.476  0.00  0.00    +0.040 C 
ATOM     12  C   LIG    1       -8.665   7.399   3.051  0.00  0.00    +0.050 C 
ATOM     13  C   LIG    1       -7.859   5.354   1.863  0.00  0.00    +0.050 C 
ENDBRANCH   6  10
ENDBRANCH   3   5
BRANCH   2  14
ATOM     14  C   LIG    1       -4.606   3.389   0.580  0.00  0.00    +0.340 C 
BRANCH  14  15
ATOM     15  C   LIG    1       -3.212   2.829   0.697  0.00  0.00    -0.130 A 
ATOM     16  C   LIG    1       -3.031   1.496   1.019  0.00  0.00    -0.010 A 
ATOM     17  C   LIG    1       -1.758   0.977   1.128  0.00  0.00    +0.040 A 
ATOM     18  C   LIG    1       -0.650   1.801   0.913  0.00  0.00    -0.120 A 
ATOM     19  C   LIG    1       -0.841   3.147   0.593  0.00  0.00    +0.040 A 
ATOM     20  C   LIG    1       -2.120   3.651   0.482  0.00  0.00    +0.010 A 
BRANCH  18  21
ATOM     21  C   LIG    1        0.715   1.253   1.028  0.00  0.00    +0.520 C 
ATOM     22  O   LIG    1        1.683   1.975   0.834  0.00  0.00    -0.690 OA
ATOM     23  O   LIG    1        0.879   0.075   1.312  0.00  0.00    -0.690 OA
ENDBRANCH  18  21
ENDBRANCH  14  15
ENDBRANCH   2  14
TORSDOF 5
