REMARK  Name = ZINCkj000005iwQA.0
REMARK                            x       y       z     vdW  Elec       q    Type
REMARK                         _______ _______ _______ _____ _____    ______ ____
ROOT
ATOM      1  C   LIG    1       -0.971   2.344   1.071  0.00  0.00    +0.160 C 
ATOM      2  C   LIG    1       -0.060   1.724   0.008  0.00  0.00    +0.010 C 
ATOM      3  C   LIG    1       -0.742   1.818  -1.361  0.00  0.00    +0.300 C 
ATOM      4  N   LIG    1       -2.071   1.198  -1.270  0.00  0.00    -0.610 N 
ATOM      5  C   LIG    1       -2.995   1.658  -0.223  0.00  0.00    +0.230 C 
ATOM      6  C   LIG    1       -2.437   0.228  -2.131  0.00  0.00    +0.530 C 
ATOM      7  O   LIG    1       -3.500  -0.339  -1.990  0.00  0.00    -0.520 OA
ATOM      8  C   LIG    1       -2.288   1.566   1.133  0.00  0.00    +0.020 C 
ENDROOT
BRANCH   1  10
ATOM      9  C   LIG    1        0.477   3.434   2.640  0.00  0.00    +0.220 C 
ATOM     10  O   LIG    1       -0.323   2.288   2.344  0.00  0.00    -0.380 OA
ENDBRANCH   1  10
BRANCH   5  11
ATOM     11  C   LIG    1       -4.242   0.772  -0.215  0.00  0.00    +0.300 C 
BRANCH  11  12
ATOM     12  N   LIG    1       -5.176   1.250   0.813  0.00  0.00    -0.640 N 
ATOM     13  H   LIG    1       -5.365   2.231   0.666  0.00  0.00    +0.430 HD
ATOM     14  H   LIG    1       -4.766   1.121   1.726  0.00  0.00    +0.430 HD
ATOM     15  H   LIG    1       -6.038   0.729   0.754  0.00  0.00    +0.440 HD
ENDBRANCH  11  12
ENDBRANCH   5  11
BRANCH   6  16
ATOM     16  C   LIG    1       -1.525  -0.152  -3.269  0.00  0.00    +0.220 C 
BRANCH  16  17
ATOM     17  O   LIG    1       -2.130  -1.196  -4.035  0.00  0.00    -0.360 OA
BRANCH  17  18
ATOM     18  C   LIG    1       -1.343  -1.633  -5.145  0.00  0.00    +0.150 C 
ATOM     19  C   LIG    1       -1.699  -0.804  -6.380  0.00  0.00    -0.010 C 
ATOM     20  C   LIG    1       -0.857  -1.272  -7.569  0.00  0.00    +0.010 C 
ATOM     21  C   LIG    1       -1.142  -2.749  -7.846  0.00  0.00    +0.010 C 
ATOM     22  C   LIG    1       -0.786  -3.578  -6.611  0.00  0.00    +0.010 C 
ATOM     23  C   LIG    1       -1.628  -3.111  -5.422  0.00  0.00    +0.020 C 
ENDBRANCH  17  18
ENDBRANCH  16  17
ENDBRANCH   6  16
TORSDOF 6
