REMARK  Name = ZINCvU0000000DWl.0
REMARK                            x       y       z     vdW  Elec       q    Type
REMARK                         _______ _______ _______ _____ _____    ______ ____
ROOT
ATOM      1  C   LIG    1       -0.014   1.210   0.009  0.00  0.00    +0.530 C 
ATOM      2  O   LIG    1        0.002  -0.004   0.002  0.00  0.00    -0.480 OA
ENDROOT
BRANCH   1   3
ATOM      3  C   LIG    1       -1.304   1.932   0.019  0.00  0.00    -0.060 A 
ATOM      4  C   LIG    1       -1.931   2.293  -1.173  0.00  0.00    -0.070 A 
ATOM      5  C   LIG    1       -1.247   1.921  -2.462  0.00  0.00    +0.080 C 
ATOM      6  C   LIG    1       -2.230   1.982  -3.630  0.00  0.00    +0.030 C 
ATOM      7  C   LIG    1       -2.940   3.341  -3.592  0.00  0.00    +0.030 C 
ATOM      8  C   LIG    1       -3.881   3.362  -2.391  0.00  0.00    +0.110 C 
ATOM      9  C   LIG    1       -3.147   2.962  -1.134  0.00  0.00    +0.170 A 
ATOM     10  N   LIG    1       -3.712   3.277   0.016  0.00  0.00    -0.460 NA
ATOM     11  C   LIG    1       -3.168   2.972   1.192  0.00  0.00    +0.140 A 
ATOM     12  C   LIG    1       -3.798   3.322   2.400  0.00  0.00    +0.060 A 
ATOM     13  C   LIG    1       -3.217   2.993   3.586  0.00  0.00    +0.040 A 
ATOM     14  C   LIG    1       -2.003   2.311   3.627  0.00  0.00    +0.030 A 
ATOM     15  C   LIG    1       -1.363   1.956   2.477  0.00  0.00    +0.010 A 
ATOM     16  C   LIG    1       -1.932   2.280   1.239  0.00  0.00    -0.070 A 
ENDBRANCH   1   3
BRANCH   1  17
ATOM     17  O   LIG    1        1.143   1.900   0.001  0.00  0.00    -0.330 OA
BRANCH  17  19
ATOM     18  C   LIG    1        2.789   0.862  -1.462  0.00  0.00    +0.100 C 
ATOM     19  C   LIG    1        2.371   1.126  -0.015  0.00  0.00    +0.310 C 
BRANCH  19  20
ATOM     20  C   LIG    1        3.459   1.895   0.690  0.00  0.00    +0.150 A 
ATOM     21  N   LIG    1        3.729   3.161   0.537  0.00  0.00    -0.240 NA
ATOM     22  N   LIG    1        4.718   3.485   1.293  0.00  0.00    -0.270 NA
ATOM     23  C   LIG    1        5.117   2.427   1.960  0.00  0.00    +0.220 A 
ATOM     24  O   LIG    1        4.323   1.401   1.593  0.00  0.00    -0.210 OA
BRANCH  23  25
ATOM     25  C   LIG    1        6.226   2.372   2.935  0.00  0.00    -0.040 A 
ATOM     26  C   LIG    1        6.536   1.172   3.577  0.00  0.00    +0.090 A 
ATOM     27  C   LIG    1        7.575   1.125   4.482  0.00  0.00    +0.000 A 
ATOM     28  C   LIG    1        8.305   2.269   4.763  0.00  0.00    +0.130 A 
ATOM     29  C   LIG    1        7.999   3.465   4.132  0.00  0.00    +0.000 A 
ATOM     30  F   LIG    1        9.319   2.219   5.654  0.00  0.00    -0.130 F 
ATOM     31  C   LIG    1        6.965   3.522   3.222  0.00  0.00    +0.120 A 
ENDBRANCH  23  25
ENDBRANCH  19  20
ENDBRANCH  17  19
ENDBRANCH   1  17
TORSDOF 5
