REMARK  Name = ZINCqH0000003cEl.0
REMARK                            x       y       z     vdW  Elec       q    Type
REMARK                         _______ _______ _______ _____ _____    ______ ____
ROOT
ATOM      1  N   LIG    1        8.209   2.591   0.994  0.00  0.00    -0.680 N 
ATOM      2  H   LIG    1        8.301   2.670   0.031  0.00  0.00    +0.410 HD
ATOM      3  C   LIG    1        7.053   2.146   1.526  0.00  0.00    +0.720 C 
ATOM      4  N   LIG    1        5.991   1.913   0.731  0.00  0.00    -0.630 N 
ATOM      5  C   LIG    1        5.954   2.101  -0.727  0.00  0.00    +0.230 C 
ATOM      6  C   LIG    1        4.530   1.737  -1.201  0.00  0.00    +0.050 C 
ATOM      7  C   LIG    1        3.682   1.906   0.087  0.00  0.00    +0.030 C 
ATOM      8  C   LIG    1        4.673   1.427   1.178  0.00  0.00    +0.280 C 
ATOM      9  O   LIG    1        6.969   1.956   2.724  0.00  0.00    -0.560 OA
ENDROOT
BRANCH   7  10
ATOM     10  C   LIG    1        2.458   1.029   0.047  0.00  0.00    -0.080 A 
ATOM     11  C   LIG    1        2.590  -0.336  -0.125  0.00  0.00    +0.010 A 
ATOM     12  C   LIG    1        1.467  -1.141  -0.161  0.00  0.00    +0.000 A 
ATOM     13  C   LIG    1        0.211  -0.580  -0.026  0.00  0.00    +0.010 A 
ATOM     14  C   LIG    1        0.078   0.785   0.145  0.00  0.00    +0.000 A 
ATOM     15  C   LIG    1        1.201   1.590   0.182  0.00  0.00    -0.080 A 
ATOM     16  C   LIG    1        1.056   3.078   0.369  0.00  0.00    +0.090 C 
ENDBRANCH   7  10
BRANCH   1  20
ATOM     17  C   LIG    1       11.384   3.630   3.481  0.00  0.00    -0.160 A 
ATOM     18  C   LIG    1       11.633   3.069   2.225  0.00  0.00    +0.110 A 
ATOM     19  C   LIG    1       10.581   2.727   1.406  0.00  0.00    -0.030 A 
ATOM     20  C   LIG    1        9.272   2.938   1.827  0.00  0.00    +0.200 A 
ATOM     21  C   LIG    1        9.021   3.501   3.074  0.00  0.00    +0.010 A 
ATOM     22  C   LIG    1       10.068   3.841   3.901  0.00  0.00    +0.070 A 
BRANCH  17  25
ATOM     23  N   LIG    1       12.268   4.538   5.573  0.00  0.00    -0.730 N 
ATOM     24  H   LIG    1       11.355   4.685   5.866  0.00  0.00    +0.400 HD
ATOM     25  C   LIG    1       12.509   3.998   4.362  0.00  0.00    +0.560 C 
ATOM     26  O   LIG    1       13.654   3.814   3.996  0.00  0.00    -0.540 OA
BRANCH  23  28
ATOM     27  C   LIG    1       12.841   5.491   7.752  0.00  0.00    +0.030 C 
ATOM     28  C   LIG    1       13.385   4.904   6.448  0.00  0.00    +0.250 C 
ENDBRANCH  23  28
ENDBRANCH  17  25
ENDBRANCH   1  20
TORSDOF 4
