REMARK  Name = ZINCrH000004oTc3.0
REMARK                            x       y       z     vdW  Elec       q    Type
REMARK                         _______ _______ _______ _____ _____    ______ ____
ROOT
ATOM      1  C   LIG    1        4.990  -0.184  -0.350  0.00  0.00    +0.500 C 
ATOM      2  N   LIG    1        3.869  -0.861  -0.668  0.00  0.00    -0.670 N 
ATOM      3  H   LIG    1        3.882  -1.830  -0.708  0.00  0.00    +0.420 HD
ATOM      4  O   LIG    1        4.950   1.018  -0.198  0.00  0.00    -0.480 OA
ENDROOT
BRANCH   1  15
ATOM      5  C   LIG    1        5.148  -2.648   1.225  0.00  0.00    +0.090 C 
ATOM      6  C   LIG    1        6.308  -1.652   1.165  0.00  0.00    +0.160 C 
ATOM      7  O   LIG    1        6.162  -0.675   2.203  0.00  0.00    -0.300 OA
ATOM      8  C   LIG    1        6.936   0.440   2.107  0.00  0.00    +0.060 A 
ATOM      9  C   LIG    1        7.117   1.241   3.225  0.00  0.00    +0.020 A 
ATOM     10  C   LIG    1        7.897   2.379   3.142  0.00  0.00    +0.020 A 
ATOM     11  C   LIG    1        8.499   2.722   1.946  0.00  0.00    +0.020 A 
ATOM     12  C   LIG    1        8.323   1.927   0.828  0.00  0.00    +0.030 A 
ATOM     13  C   LIG    1        7.543   0.784   0.905  0.00  0.00    +0.060 A 
ATOM     14  O   LIG    1        7.381   0.010  -0.203  0.00  0.00    -0.280 OA
ATOM     15  C   LIG    1        6.294  -0.922  -0.185  0.00  0.00    +0.200 C 
ENDBRANCH   1  15
BRANCH   2  16
ATOM     16  C   LIG    1        2.683  -0.164  -0.940  0.00  0.00    +0.200 A 
ATOM     17  C   LIG    1        1.460  -0.703  -0.564  0.00  0.00    -0.030 A 
ATOM     18  C   LIG    1        0.290  -0.017  -0.833  0.00  0.00    +0.120 A 
ATOM     19  C   LIG    1        0.339   1.213  -1.480  0.00  0.00    -0.000 A 
ATOM     20  C   LIG    1        1.564   1.751  -1.855  0.00  0.00    +0.180 A 
ATOM     21  F   LIG    1        1.612   2.946  -2.484  0.00  0.00    -0.110 F 
ATOM     22  F   LIG    1       -0.900  -0.541  -0.468  0.00  0.00    -0.120 F 
ATOM     23  C   LIG    1        2.733   1.064  -1.586  0.00  0.00    +0.000 A 
BRANCH  19  24
ATOM     24  N   LIG    1       -0.847   1.907  -1.758  0.00  0.00    -0.470 N 
ATOM     25  C   LIG    1       -1.794   1.057  -2.524  0.00  0.00    +0.180 C 
ATOM     26  C   LIG    1       -3.162   1.741  -2.280  0.00  0.00    +0.040 C 
ATOM     27  C   LIG    1       -3.062   2.198  -0.806  0.00  0.00    +0.020 C 
ATOM     28  C   LIG    1       -1.553   2.272  -0.510  0.00  0.00    +0.180 C 
ENDBRANCH  19  24
ENDBRANCH   2  16
TORSDOF 3
