REMARK  Name = ZINCqH0000036tne.0
REMARK                            x       y       z     vdW  Elec       q    Type
REMARK                         _______ _______ _______ _____ _____    ______ ____
ROOT
ATOM      1  C   LIG    1       -0.977  -2.162  -0.000  0.00  0.00    +0.540 C 
ATOM      2  N   LIG    1       -1.120  -0.822   0.008  0.00  0.00    -0.610 N 
ATOM      3  H   LIG    1       -2.007  -0.429   0.019  0.00  0.00    +0.430 HD
ATOM      4  O   LIG    1        0.134  -2.655  -0.013  0.00  0.00    -0.480 OA
ENDROOT
BRANCH   1  10
ATOM      5  C   LIG    1       -2.027  -4.421  -0.008  0.00  0.00    -0.600 A 
ATOM      6  C   LIG    1       -3.146  -5.228   0.004  0.00  0.00    +0.130 A 
ATOM      7  C   LIG    1       -4.409  -4.664   0.019  0.00  0.00    +0.040 A 
ATOM      8  C   LIG    1       -4.559  -3.288   0.028  0.00  0.00    +0.070 A 
ATOM      9  C   LIG    1       -3.449  -2.470   0.022  0.00  0.00    +0.040 A 
ATOM     10  C   LIG    1       -2.171  -3.033   0.006  0.00  0.00    -0.050 A 
BRANCH   5  12
ATOM     11  C   LIG    1        0.277  -4.635  -1.632  0.00  0.00    -0.250 C 
ATOM     12  S   LIG    1       -0.419  -5.141  -0.035  0.00  0.00    +2.510 S 
ATOM     13  O   LIG    1       -0.662  -6.542  -0.019  0.00  0.00    -0.950 OA
ATOM     14  O   LIG    1        0.268  -4.505   1.033  0.00  0.00    -0.910 OA
ENDBRANCH   5  12
ENDBRANCH   1  10
BRANCH   2  15
ATOM     15  C   LIG    1        0.002  -0.004   0.002  0.00  0.00    +0.270 A 
ATOM     16  N   LIG    1       -0.015   1.293   0.009  0.00  0.00    -0.490 NA
ATOM     17  C   LIG    1        1.157   1.911   0.001  0.00  0.00    +0.110 A 
ATOM     18  C   LIG    1        2.234   1.104  -0.013  0.00  0.00    -0.080 A 
ATOM     19  S   LIG    1        1.671  -0.566  -0.017  0.00  0.00    +0.230 S 
BRANCH  17  20
ATOM     20  C   LIG    1        1.274   3.389   0.008  0.00  0.00    -0.020 A 
ATOM     21  C   LIG    1        0.129   4.181   0.023  0.00  0.00    +0.050 A 
ATOM     22  C   LIG    1        0.244   5.559   0.029  0.00  0.00    +0.090 A 
ATOM     23  C   LIG    1        1.496   6.152   0.019  0.00  0.00    +0.030 A 
ATOM     24  C   LIG    1        2.637   5.370   0.004  0.00  0.00    +0.030 A 
ATOM     25  F   LIG    1       -0.867   6.328   0.043  0.00  0.00    -0.130 F 
ATOM     26  C   LIG    1        2.533   3.992   0.004  0.00  0.00    +0.100 A 
ATOM     27  F   LIG    1        3.649   3.230  -0.005  0.00  0.00    -0.120 F 
ENDBRANCH  17  20
ENDBRANCH   2  15
TORSDOF 4
