REMARK  Name = ZINCrg000000nbPc.1
REMARK                            x       y       z     vdW  Elec       q    Type
REMARK                         _______ _______ _______ _____ _____    ______ ____
ROOT
ATOM      1  N   LIG    1        3.528  -3.188   0.038  0.00  0.00    -0.590 N 
ATOM      2  C   LIG    1        4.927  -2.991  -0.367  0.00  0.00    +0.290 C 
ATOM      3  C   LIG    1        5.244  -3.927  -1.531  0.00  0.00    +0.040 C 
ATOM      4  C   LIG    1        4.901  -5.365  -1.135  0.00  0.00    -0.010 C 
ATOM      5  C   LIG    1        3.405  -5.467  -0.825  0.00  0.00    +0.040 C 
ATOM      6  C   LIG    1        3.069  -4.548   0.353  0.00  0.00    +0.290 C 
ENDROOT
BRANCH   1  13
ATOM      7  C   LIG    1       -0.826  -1.152   0.741  0.00  0.00    +0.220 A 
ATOM      8  N   LIG    1       -1.150   0.117   0.689  0.00  0.00    -0.260 NA
ATOM      9  N   LIG    1       -0.114   0.828   0.409  0.00  0.00    -0.250 NA
ATOM     10  C   LIG    1        0.936   0.034   0.268  0.00  0.00    +0.110 A 
ATOM     11  C   LIG    1        2.293   0.258  -0.032  0.00  0.00    +0.190 A 
ATOM     12  C   LIG    1        3.138  -0.804  -0.105  0.00  0.00    -0.030 A 
ATOM     13  C   LIG    1        2.654  -2.109   0.116  0.00  0.00    +0.420 A 
ATOM     14  N   LIG    1        1.389  -2.318   0.394  0.00  0.00    -0.340 NA
ATOM     15  N   LIG    1        0.495  -1.249   0.478  0.00  0.00    -0.270 N 
BRANCH   7  17
ATOM     16  C   LIG    1       -3.170  -1.755   1.280  0.00  0.00    +0.080 C 
ATOM     17  C   LIG    1       -1.759  -2.296   1.040  0.00  0.00    +0.020 C 
ATOM     18  C   LIG    1       -1.277  -3.034   2.291  0.00  0.00    +0.050 C 
ATOM     19  C   LIG    1       -1.778  -3.263  -0.146  0.00  0.00    +0.050 C 
ENDBRANCH   7  17
ENDBRANCH   1  13
BRANCH   4  20
ATOM     20  C   LIG    1        5.242  -6.294  -2.272  0.00  0.00    +0.520 C 
ATOM     21  N   LIG    1        6.508  -6.729  -2.430  0.00  0.00    -0.610 N 
ATOM     22  C   LIG    1        6.882  -7.557  -3.586  0.00  0.00    +0.290 C 
ATOM     23  C   LIG    1        7.617  -8.799  -3.083  0.00  0.00    +0.170 C 
ATOM     24  N   LIG    1        8.736  -8.389  -2.223  0.00  0.00    -0.690 NA
ATOM     25  H   LIG    1        9.307  -9.182  -1.971  0.00  0.00    +0.350 HD
ATOM     26  C   LIG    1        8.257  -7.684  -1.027  0.00  0.00    +0.170 C 
ATOM     27  C   LIG    1        7.550  -6.391  -1.449  0.00  0.00    +0.280 C 
ATOM     28  O   LIG    1        4.377  -6.651  -3.044  0.00  0.00    -0.530 OA
ENDBRANCH   4  20
TORSDOF 3
