REMARK  Name = ZINCrD00000F5Llm.0
REMARK                            x       y       z     vdW  Elec       q    Type
REMARK                         _______ _______ _______ _____ _____    ______ ____
ROOT
ATOM      1  C   LIG    1       -2.521   3.870   0.044  0.00  0.00    +0.580 C 
ATOM      2  N   LIG    1       -3.682   3.185   0.051  0.00  0.00    -0.580 N 
ATOM      3  H   LIG    1       -3.672   2.215   0.047  0.00  0.00    +0.380 HD
ATOM      4  O   LIG    1       -2.533   5.086   0.049  0.00  0.00    -0.490 OA
ENDROOT
BRANCH   1   8
ATOM      5  C   LIG    1        1.177   1.782   0.000  0.00  0.00    -0.050 A 
ATOM      6  C   LIG    1       -0.013   1.076   0.008  0.00  0.00    +0.040 A 
ATOM      7  C   LIG    1       -1.217   1.748   0.017  0.00  0.00    +0.040 A 
ATOM      8  C   LIG    1       -1.234   3.144   0.029  0.00  0.00    -0.120 A 
ATOM      9  C   LIG    1       -0.030   3.850   0.022  0.00  0.00    +0.090 A 
ATOM     10  C   LIG    1        1.167   3.166   0.007  0.00  0.00    +0.040 A 
BRANCH   5  11
ATOM     11  C   LIG    1        2.489   1.042  -0.015  0.00  0.00    +0.150 C 
BRANCH  11  12
ATOM     12  S   LIG    1        2.999   0.753  -1.728  0.00  0.00    +0.010 S 
BRANCH  12  18
ATOM     13  C   LIG    1        5.188  -0.498  -3.867  0.00  0.00    +0.350 C 
ATOM     14  N   LIG    1        5.358  -0.585  -2.415  0.00  0.00    -0.470 N 
ATOM     15  C   LIG    1        6.396  -1.164  -1.738  0.00  0.00    +0.390 A 
ATOM     16  N   LIG    1        6.154  -1.028  -0.466  0.00  0.00    -0.290 NA
ATOM     17  N   LIG    1        5.045  -0.402  -0.292  0.00  0.00    -0.290 NA
ATOM     18  C   LIG    1        4.515  -0.103  -1.456  0.00  0.00    +0.150 A 
ENDBRANCH  12  18
ENDBRANCH  11  12
ENDBRANCH   5  11
ENDBRANCH   1   8
BRANCH   2  19
ATOM     19  N   LIG    1       -4.902   3.873   0.065  0.00  0.00    -0.200 NA
ATOM     20  C   LIG    1       -6.020   3.213   0.072  0.00  0.00    +0.220 C 
BRANCH  20  21
ATOM     21  C   LIG    1       -7.303   3.938   0.087  0.00  0.00    -0.080 A 
ATOM     22  C   LIG    1       -8.508   3.232   0.089  0.00  0.00    +0.090 A 
ATOM     23  C   LIG    1       -9.706   3.917   0.107  0.00  0.00    -0.110 A 
ATOM     24  C   LIG    1       -9.719   5.301   0.113  0.00  0.00    +0.080 A 
ATOM     25  C   LIG    1       -8.532   6.011   0.107  0.00  0.00    -0.010 A 
ATOM     26 BR   LIG    1      -11.337   2.960   0.115  0.00  0.00    -0.040 Br
ATOM     27  C   LIG    1       -7.321   5.340   0.093  0.00  0.00    +0.160 A 
BRANCH  27  28
ATOM     28  O   LIG    1       -6.155   6.037   0.087  0.00  0.00    -0.470 OA
ATOM     29  H   LIG    1       -5.825   6.242  -0.798  0.00  0.00    +0.400 HD
ENDBRANCH  27  28
ENDBRANCH  20  21
ENDBRANCH   2  19
TORSDOF 7
