REMARK  Name = ZINCpe000000XRcs.0
REMARK                            x       y       z     vdW  Elec       q    Type
REMARK                         _______ _______ _______ _____ _____    ______ ____
ROOT
ATOM      1  C   LIG    1        1.399   1.613  -0.003  0.00  0.00    +0.530 C 
ATOM      2  N   LIG    1        2.244   1.296   0.999  0.00  0.00    -0.610 N 
ATOM      3  C   LIG    1        3.589   1.884   1.056  0.00  0.00    +0.310 C 
ATOM      4  C   LIG    1        4.620   0.760   1.154  0.00  0.00    +0.060 C 
ATOM      5  C   LIG    1        4.267  -0.151   2.325  0.00  0.00    +0.120 C 
ATOM      6  N   LIG    1        4.330   0.592   3.591  0.00  0.00    -0.720 N 
ATOM      7  H   LIG    1        3.795   1.361   3.840  0.00  0.00    +0.440 HD
ATOM      8  C   LIG    1        5.278  -0.006   4.337  0.00  0.00    +0.710 C 
ATOM      9  N   LIG    1        5.839  -1.048   3.710  0.00  0.00    -0.680 N 
ATOM     10  H   LIG    1        6.540  -1.601   4.090  0.00  0.00    +0.440 HD
ATOM     11  O   LIG    1        5.590   0.358   5.453  0.00  0.00    -0.540 OA
ATOM     12  C   LIG    1        2.884  -0.766   2.136  0.00  0.00    +0.060 C 
ATOM     13  C   LIG    1        5.309  -1.234   2.483  0.00  0.00    +0.530 C 
ATOM     14  O   LIG    1        5.605  -2.091   1.678  0.00  0.00    -0.450 OA
ATOM     15  C   LIG    1        1.838   0.352   2.048  0.00  0.00    +0.280 C 
ATOM     16  O   LIG    1        1.776   2.318  -0.914  0.00  0.00    -0.500 OA
ENDROOT
BRANCH   1  23
ATOM     17  C   LIG    1       -6.224   0.668  -1.697  0.00  0.00    +0.100 C 
ATOM     18  C   LIG    1       -4.736   0.862  -1.562  0.00  0.00    -0.110 A 
ATOM     19  C   LIG    1       -3.951   0.998  -2.692  0.00  0.00    +0.040 A 
ATOM     20  C   LIG    1       -2.588   1.177  -2.567  0.00  0.00    -0.010 A 
ATOM     21  C   LIG    1       -2.001   1.223  -1.307  0.00  0.00    +0.120 A 
ATOM     22  O   LIG    1       -0.657   1.409  -1.224  0.00  0.00    -0.290 OA
ATOM     23  C   LIG    1       -0.014   1.091   0.011  0.00  0.00    +0.180 C 
ATOM     24  C   LIG    1       -0.799   1.753   1.151  0.00  0.00    +0.030 C 
ATOM     25  C   LIG    1       -2.192   1.120   1.207  0.00  0.00    +0.090 C 
ATOM     26  C   LIG    1       -2.789   1.083  -0.177  0.00  0.00    -0.160 A 
ATOM     27  C   LIG    1       -4.155   0.905  -0.309  0.00  0.00    +0.050 A 
ENDBRANCH   1  23
TORSDOF 1
