REMARK  Name = ZINCrH000004to5o.0
REMARK                            x       y       z     vdW  Elec       q    Type
REMARK                         _______ _______ _______ _____ _____    ______ ____
ROOT
ATOM      1  C   LIG    1       -2.373   1.084  -0.072  0.00  0.00    +0.150 A 
ATOM      2  C   LIG    1       -2.284  -0.278   0.193  0.00  0.00    +0.000 A 
ATOM      3  C   LIG    1       -3.424  -1.009   0.470  0.00  0.00    +0.050 A 
ATOM      4  C   LIG    1       -4.659  -0.394   0.474  0.00  0.00    +0.000 A 
ATOM      5  C   LIG    1       -4.760   0.972   0.204  0.00  0.00    +0.000 A 
ATOM      6  C   LIG    1       -3.610   1.710  -0.070  0.00  0.00    +0.080 A 
ENDROOT
BRANCH   5   7
ATOM      7  C   LIG    1       -6.083   1.633   0.208  0.00  0.00    +0.210 A 
ATOM      8  N   LIG    1       -6.315   2.925   0.315  0.00  0.00    -0.270 NA
ATOM      9  N   LIG    1       -7.583   3.144   0.274  0.00  0.00    -0.290 NA
ATOM     10  C   LIG    1       -8.224   2.018   0.135  0.00  0.00    +0.190 A 
ATOM     11  C   LIG    1       -9.715   1.826   0.025  0.00  0.00    +0.150 C 
ATOM     12  C   LIG    1      -10.144   0.690   0.958  0.00  0.00    +0.030 C 
ATOM     13  C   LIG    1      -10.044  -0.642   0.222  0.00  0.00    +0.020 C 
ATOM     14  C   LIG    1       -8.881  -0.624  -0.768  0.00  0.00    +0.030 C 
ATOM     15  C   LIG    1       -7.565  -0.411  -0.015  0.00  0.00    +0.290 C 
ATOM     16  N   LIG    1       -7.298   1.023   0.094  0.00  0.00    -0.470 N 
ENDBRANCH   5   7
BRANCH   1  18
ATOM     17  C   LIG    1       -1.116   3.098   0.071  0.00  0.00    +0.560 C 
ATOM     18  N   LIG    1       -1.216   1.820  -0.346  0.00  0.00    -0.670 N 
ATOM     19  H   LIG    1       -0.486   1.411  -0.837  0.00  0.00    +0.410 HD
ATOM     20  O   LIG    1       -2.062   3.637   0.611  0.00  0.00    -0.500 OA
BRANCH  17  25
ATOM     21  C   LIG    1        1.450   5.853   0.130  0.00  0.00    -0.030 A 
ATOM     22  C   LIG    1        2.531   5.222  -0.491  0.00  0.00    +0.100 A 
ATOM     23  C   LIG    1        2.417   3.915  -0.922  0.00  0.00    +0.020 A 
ATOM     24  C   LIG    1        1.238   3.221  -0.736  0.00  0.00    +0.070 A 
ATOM     25  C   LIG    1        0.147   3.841  -0.121  0.00  0.00    -0.140 A 
ATOM     26  C   LIG    1        0.255   5.160   0.315  0.00  0.00    +0.140 A 
BRANCH  21  28
ATOM     27  N   LIG    1        1.664   8.284   0.929  0.00  0.00    -0.400 NA
ATOM     28  C   LIG    1        1.569   7.209   0.575  0.00  0.00    +0.250 C 
ENDBRANCH  21  28
ENDBRANCH  17  25
ENDBRANCH   1  18
TORSDOF 4
