REMARK  Name = ZINCvU0000000GNP.0
REMARK                            x       y       z     vdW  Elec       q    Type
REMARK                         _______ _______ _______ _____ _____    ______ ____
ROOT
ATOM      1  C   LIG    1       -1.053   2.677   4.735  0.00  0.00    +0.450 C 
ATOM      2  O   LIG    1       -2.027   3.023   5.370  0.00  0.00    -0.460 OA
ENDROOT
BRANCH   1   6
ATOM      3  N   LIG    1       -2.058   1.822   1.350  0.00  0.00    -0.380 N 
ATOM      4  C   LIG    1       -0.718   1.572   1.248  0.00  0.00    +0.020 A 
ATOM      5  C   LIG    1       -0.129   1.833   2.427  0.00  0.00    +0.000 A 
ATOM      6  C   LIG    1       -1.196   2.277   3.334  0.00  0.00    -0.260 A 
ATOM      7  C   LIG    1       -0.013   1.086   0.008  0.00  0.00    +0.130 C 
ATOM      8  C   LIG    1       -2.363   2.240   2.594  0.00  0.00    +0.130 A 
ATOM      9  C   LIG    1       -3.737   2.609   3.090  0.00  0.00    +0.150 C 
BRANCH   3  13
ATOM     10  C   LIG    1       -4.812   1.350  -1.746  0.00  0.00    +0.140 A 
ATOM     11  C   LIG    1       -4.151   0.245  -1.232  0.00  0.00    +0.000 A 
ATOM     12  C   LIG    1       -3.239   0.400  -0.207  0.00  0.00    +0.080 A 
ATOM     13  C   LIG    1       -2.984   1.664   0.309  0.00  0.00    +0.060 A 
ATOM     14  C   LIG    1       -3.650   2.769  -0.202  0.00  0.00    +0.070 A 
ATOM     15  C   LIG    1       -4.558   2.613  -1.231  0.00  0.00    -0.060 A 
BRANCH  10  17
ATOM     16  C   LIG    1       -6.354   2.378  -3.236  0.00  0.00    +0.250 C 
ATOM     17  O   LIG    1       -5.710   1.197  -2.756  0.00  0.00    -0.310 OA
ENDBRANCH  10  17
ENDBRANCH   3  13
ENDBRANCH   1   6
BRANCH   1  18
ATOM     18  C   LIG    1        0.305   2.658   5.389  0.00  0.00    +0.100 C 
BRANCH  18  19
ATOM     19  S   LIG    1        0.153   3.202   7.113  0.00  0.00    +0.070 S 
BRANCH  19  20
ATOM     20  C   LIG    1        1.811   3.116   7.703  0.00  0.00    +0.210 A 
ATOM     21  N   LIG    1        2.851   2.735   7.008  0.00  0.00    -0.290 NA
ATOM     22  N   LIG    1        3.978   2.811   7.837  0.00  0.00    -0.260 NA
ATOM     23  C   LIG    1        3.577   3.230   9.013  0.00  0.00    +0.180 A 
ATOM     24  S   LIG    1        4.125   3.634  10.644  0.00  0.00    +0.200 S 
ATOM     25  C   LIG    1        2.518   4.069  11.237  0.00  0.00    -0.140 A 
ATOM     26  C   LIG    1        2.070   4.512  12.472  0.00  0.00    +0.100 A 
ATOM     27  C   LIG    1        0.729   4.783  12.660  0.00  0.00    +0.050 A 
ATOM     28  C   LIG    1       -0.155   4.608  11.610  0.00  0.00    +0.060 A 
ATOM     29  C   LIG    1        0.286   4.167  10.383  0.00  0.00    +0.050 A 
ATOM     30  C   LIG    1        1.643   3.887  10.170  0.00  0.00    +0.100 A 
ATOM     31  N   LIG    1        2.233   3.435   8.983  0.00  0.00    -0.440 N 
ENDBRANCH  19  20
ENDBRANCH  18  19
ENDBRANCH   1  18
TORSDOF 6
