REMARK  Name = ZINCrD00000hQ4ux.0
REMARK                            x       y       z     vdW  Elec       q    Type
REMARK                         _______ _______ _______ _____ _____    ______ ____
ROOT
ATOM      1  O   LIG    1       -3.847   2.783   0.047  0.00  0.00    -0.530 OA
ATOM      2  C   LIG    1       -3.653   1.582   0.034  0.00  0.00    +0.700 C 
ATOM      3  N   LIG    1       -4.645   0.681   0.029  0.00  0.00    -0.560 N 
ATOM      4  C   LIG    1       -4.065  -0.671   0.019  0.00  0.00    +0.270 C 
ATOM      5  C   LIG    1       -4.522  -1.440   1.273  0.00  0.00    -0.290 C 
ATOM      6  S   LIG    1       -3.218  -1.037   2.504  0.00  0.00    +2.380 S 
ATOM      7  C   LIG    1       -1.865  -0.999   1.268  0.00  0.00    -0.290 C 
ATOM      8  O   LIG    1       -3.037  -2.132   3.391  0.00  0.00    -0.920 OA
ATOM      9  O   LIG    1       -3.428   0.272   3.017  0.00  0.00    -0.900 OA
ATOM     10  C   LIG    1       -2.551  -0.425   0.013  0.00  0.00    +0.270 C 
ATOM     11  N   LIG    1       -2.428   1.040   0.020  0.00  0.00    -0.570 N 
ENDROOT
BRANCH   3  12
ATOM     12  C   LIG    1       -6.012   0.979   0.037  0.00  0.00    +0.180 A 
ATOM     13  C   LIG    1       -6.947  -0.048   0.031  0.00  0.00    -0.040 A 
ATOM     14  C   LIG    1       -8.296   0.249   0.045  0.00  0.00    +0.040 A 
ATOM     15  C   LIG    1       -8.716   1.566   0.053  0.00  0.00    -0.010 A 
ATOM     16  C   LIG    1       -7.787   2.591   0.054  0.00  0.00    +0.040 A 
ATOM     17  C   LIG    1       -6.437   2.301   0.046  0.00  0.00    +0.010 A 
ENDBRANCH   3  12
BRANCH  11  18
ATOM     18  C   LIG    1       -1.224   1.754   0.017  0.00  0.00    +0.190 A 
ATOM     19  C   LIG    1       -0.013   1.076   0.008  0.00  0.00    +0.000 A 
ATOM     20  C   LIG    1        1.174   1.783   0.000  0.00  0.00    +0.050 A 
ATOM     21  C   LIG    1        1.156   3.166   0.007  0.00  0.00    +0.040 A 
ATOM     22  C   LIG    1       -0.049   3.845   0.022  0.00  0.00    -0.150 A 
ATOM     23  C   LIG    1       -1.238   3.143   0.030  0.00  0.00    +0.070 A 
BRANCH  22  24
ATOM     24  C   LIG    1       -0.064   5.352   0.030  0.00  0.00    +0.510 C 
ATOM     25  F   LIG    1       -0.718   5.805   1.181  0.00  0.00    -0.170 F 
ATOM     26  F   LIG    1       -0.738   5.817  -1.103  0.00  0.00    -0.170 F 
ATOM     27  F   LIG    1        1.250   5.831   0.021  0.00  0.00    -0.180 F 
ENDBRANCH  22  24
ENDBRANCH  11  18
TORSDOF 3
