REMARK  Name = ZINCnE000001Otb8.0
REMARK                            x       y       z     vdW  Elec       q    Type
REMARK                         _______ _______ _______ _____ _____    ______ ____
ROOT
ATOM      1  C   LIG    1       -2.560   6.519   0.059  0.00  0.00    +0.590 C 
ATOM      2  N   LIG    1       -3.903   6.439  -0.030  0.00  0.00    -0.600 N 
ATOM      3  C   LIG    1       -4.577   5.134  -0.032  0.00  0.00    +0.260 C 
ATOM      4  C   LIG    1       -5.645   5.129   1.066  0.00  0.00    +0.000 C 
ATOM      5  C   LIG    1       -6.583   6.322   0.865  0.00  0.00    +0.020 C 
ATOM      6  C   LIG    1       -5.786   7.624   0.972  0.00  0.00    -0.030 C 
ATOM      7  C   LIG    1       -4.720   7.657  -0.122  0.00  0.00    +0.280 C 
ATOM      8  O   LIG    1       -2.023   7.601   0.201  0.00  0.00    -0.510 OA
ENDROOT
BRANCH   1  11
ATOM      9  C   LIG    1        0.498   6.375   0.604  0.00  0.00    +0.150 C 
ATOM     10  C   LIG    1       -0.410   5.234   0.223  0.00  0.00    -0.080 A 
ATOM     11  C   LIG    1       -1.746   5.297  -0.014  0.00  0.00    -0.030 A 
ATOM     12  O   LIG    1       -2.212   4.070  -0.328  0.00  0.00    -0.180 OA
ATOM     13  C   LIG    1       -1.219   3.160  -0.310  0.00  0.00    +0.060 A 
ATOM     14  C   LIG    1       -1.174   1.794  -0.560  0.00  0.00    +0.020 A 
ATOM     15  C   LIG    1        0.021   1.116  -0.457  0.00  0.00    +0.050 A 
ATOM     16  C   LIG    1        1.189   1.785  -0.115  0.00  0.00    -0.010 A 
ATOM     17  C   LIG    1        1.171   3.129   0.130  0.00  0.00    +0.070 A 
ATOM     18  C   LIG    1       -0.032   3.833   0.036  0.00  0.00    -0.140 A 
ENDBRANCH   1  11
BRANCH   6  19
ATOM     19  C   LIG    1       -6.731   8.816   0.804  0.00  0.00    +0.040 C 
BRANCH  19  20
ATOM     20  C   LIG    1       -5.957  10.116   1.034  0.00  0.00    -0.070 C 
BRANCH  20  21
ATOM     21  C   LIG    1       -6.887  11.290   0.869  0.00  0.00    +0.490 C 
ATOM     22  O   LIG    1       -6.466  12.425   1.012  0.00  0.00    -0.710 OA
ATOM     23  O   LIG    1       -8.060  11.104   0.592  0.00  0.00    -0.700 OA
ENDBRANCH  20  21
ENDBRANCH  19  20
ENDBRANCH   6  19
TORSDOF 4
