REMARK  Name = ZINCpe00000zsuwQ.0
REMARK                            x       y       z     vdW  Elec       q    Type
REMARK                         _______ _______ _______ _____ _____    ______ ____
ROOT
ATOM      1  C   LIG    1        1.238  -0.337   0.864  0.00  0.00    +0.200 C 
ATOM      2  C   LIG    1        0.001  -0.003   0.004  0.00  0.00    +0.060 C 
ATOM      3  C   LIG    1       -0.019   1.548   0.012  0.00  0.00    +0.040 C 
ATOM      4  C   LIG    1        1.494   1.879  -0.002  0.00  0.00    +0.250 C 
ATOM      5  N   LIG    1        2.114   0.844   0.845  0.00  0.00    -0.600 N 
ATOM      6  C   LIG    1        3.290   0.960   1.494  0.00  0.00    +0.540 C 
ATOM      7  O   LIG    1        3.663   0.076   2.236  0.00  0.00    -0.520 OA
ENDROOT
BRANCH   6   8
ATOM      8  C   LIG    1        4.140   2.189   1.298  0.00  0.00    -0.010 C 
ATOM      9  C   LIG    1        5.621   1.800   1.353  0.00  0.00    +0.090 C 
ATOM     10  C   LIG    1        6.482   2.995   0.931  0.00  0.00    +0.340 C 
ATOM     11  N   LIG    1        6.065   4.172   1.697  0.00  0.00    -0.310 N 
ATOM     12  N   LIG    1        6.703   5.272   1.875  0.00  0.00    -0.090 NA
ATOM     13  N   LIG    1        5.987   6.049   2.616  0.00  0.00    -0.080 NA
ATOM     14  N   LIG    1        4.883   5.454   2.921  0.00  0.00    -0.290 NA
ATOM     15  C   LIG    1        4.897   4.278   2.362  0.00  0.00    +0.190 A 
ATOM     16  C   LIG    1        3.843   3.202   2.412  0.00  0.00    +0.190 C 
ENDBRANCH   6   8
BRANCH   1  18
ATOM     17  O   LIG    1        0.893   0.221   3.131  0.00  0.00    -0.430 OA
ATOM     18  C   LIG    1        0.814  -0.638   2.278  0.00  0.00    +0.390 C 
BRANCH  18  19
ATOM     19  C   LIG    1        0.304  -1.971   2.624  0.00  0.00    -0.180 A 
ATOM     20  C   LIG    1        0.205  -2.962   1.640  0.00  0.00    +0.080 A 
ATOM     21  C   LIG    1       -0.266  -4.207   1.969  0.00  0.00    -0.020 A 
ATOM     22  C   LIG    1       -0.657  -4.482   3.275  0.00  0.00    +0.140 A 
ATOM     23  C   LIG    1       -0.567  -3.499   4.255  0.00  0.00    -0.020 A 
ATOM     24  C   LIG    1       -0.091  -2.253   3.937  0.00  0.00    +0.100 A 
BRANCH  22  25
ATOM     25  O   LIG    1       -1.128  -5.714   3.594  0.00  0.00    -0.500 OA
ATOM     26  H   LIG    1       -2.085  -5.806   3.497  0.00  0.00    +0.400 HD
ENDBRANCH  22  25
ENDBRANCH  18  19
ENDBRANCH   1  18
TORSDOF 4
