REMARK  Name = ZINCtV00000pcDTl.0
REMARK                            x       y       z     vdW  Elec       q    Type
REMARK                         _______ _______ _______ _____ _____    ______ ____
ROOT
ATOM      1  O   LIG    1        3.627  -5.623  -0.108  0.00  0.00    -0.490 OA
ATOM      2  C   LIG    1        2.436  -5.849  -0.072  0.00  0.00    +0.540 C 
ATOM      3  N   LIG    1        1.991  -7.121  -0.058  0.00  0.00    -0.670 N 
ATOM      4  H   LIG    1        1.043  -7.303   0.034  0.00  0.00    +0.420 HD
ENDROOT
BRANCH   3   5
ATOM      5  C   LIG    1        2.899  -8.182  -0.177  0.00  0.00    +0.140 A 
ATOM      6  C   LIG    1        2.535  -9.335  -0.859  0.00  0.00    +0.010 A 
ATOM      7  C   LIG    1        3.432 -10.377  -0.981  0.00  0.00    +0.030 A 
ATOM      8  C   LIG    1        4.693 -10.277  -0.411  0.00  0.00    +0.070 A 
ATOM      9  C   LIG    1        5.056  -9.127   0.276  0.00  0.00    +0.040 A 
ATOM     10  C   LIG    1        4.162  -8.082   0.393  0.00  0.00    +0.050 A 
BRANCH   8  11
ATOM     11  O   LIG    1        5.574 -11.306  -0.526  0.00  0.00    -0.260 OA
BRANCH  11  12
ATOM     12  C   LIG    1        6.194 -11.485  -1.722  0.00  0.00    +0.120 A 
ATOM     13  C   LIG    1        5.844 -10.698  -2.811  0.00  0.00    -0.070 A 
ATOM     14  C   LIG    1        6.478 -10.879  -4.024  0.00  0.00    +0.050 A 
ATOM     15  C   LIG    1        7.454 -11.849  -4.158  0.00  0.00    -0.020 A 
ATOM     16  C   LIG    1        7.801 -12.637  -3.077  0.00  0.00    +0.050 A 
ATOM     17  C   LIG    1        7.174 -12.458  -1.859  0.00  0.00    -0.020 A 
ENDBRANCH  11  12
ENDBRANCH   8  11
ENDBRANCH   3   5
BRANCH   2  18
ATOM     18  C   LIG    1        1.452  -4.707  -0.043  0.00  0.00    +0.080 C 
BRANCH  18  19
ATOM     19  S   LIG    1        2.351  -3.136  -0.071  0.00  0.00    +0.120 S 
BRANCH  19  20
ATOM     20  C   LIG    1        0.998  -2.009  -0.032  0.00  0.00    +0.040 A 
ATOM     21  N   LIG    1        1.100  -0.715  -0.036  0.00  0.00    -0.440 NA
ATOM     22  C   LIG    1       -0.038  -0.022  -0.003  0.00  0.00    +0.120 A 
ATOM     23  C   LIG    1       -1.160  -0.761   0.036  0.00  0.00    -0.050 A 
ATOM     24  S   LIG    1       -0.703  -2.462   0.019  0.00  0.00    +0.080 S 
BRANCH  22  25
ATOM     25  C   LIG    1       -0.064   1.461  -0.002  0.00  0.00    -0.030 A 
ATOM     26  C   LIG    1       -1.281   2.139   0.028  0.00  0.00    +0.020 A 
ATOM     27  C   LIG    1       -1.299   3.519   0.033  0.00  0.00    +0.010 A 
ATOM     28  C   LIG    1       -0.112   4.229  -0.002  0.00  0.00    +0.020 A 
ATOM     29  C   LIG    1        1.099   3.561  -0.038  0.00  0.00    +0.010 A 
ATOM     30  C   LIG    1        1.129   2.182  -0.038  0.00  0.00    +0.050 A 
ENDBRANCH  22  25
ENDBRANCH  19  20
ENDBRANCH  18  19
ENDBRANCH   2  18
TORSDOF 7
