REMARK  Name = ZINCpe000000Zuak.1
REMARK                            x       y       z     vdW  Elec       q    Type
REMARK                         _______ _______ _______ _____ _____    ______ ____
ROOT
ATOM      1  O   LIG    1        1.624   5.245  -0.534  0.00  0.00    -0.520 OA
ATOM      2  C   LIG    1        0.805   5.916   0.058  0.00  0.00    +0.530 C 
ATOM      3  N   LIG    1        0.539   7.172  -0.353  0.00  0.00    -0.610 N 
ATOM      4  C   LIG    1       -0.455   7.995   0.350  0.00  0.00    +0.260 C 
ATOM      5  C   LIG    1        0.202   9.327   0.741  0.00  0.00    +0.020 C 
ATOM      6  C   LIG    1        0.791   9.985  -0.509  0.00  0.00    +0.140 C 
ATOM      7  C   LIG    1        1.867   9.075  -1.107  0.00  0.00    +0.010 C 
ATOM      8  C   LIG    1        1.232   7.742  -1.516  0.00  0.00    +0.280 C 
ENDROOT
BRANCH   2   9
ATOM      9  C   LIG    1        0.085   5.346   1.253  0.00  0.00    +0.020 C 
ATOM     10  C   LIG    1       -1.418   5.146   0.949  0.00  0.00    +0.260 C 
ATOM     11  O   LIG    1       -1.727   3.931   1.653  0.00  0.00    -0.300 OA
ATOM     12  C   LIG    1       -0.604   3.166   1.741  0.00  0.00    +0.110 A 
ATOM     13  C   LIG    1       -0.469   1.804   1.997  0.00  0.00    -0.010 A 
ATOM     14  C   LIG    1        0.784   1.230   2.057  0.00  0.00    +0.050 A 
ATOM     15  C   LIG    1        1.916   1.998   1.855  0.00  0.00    -0.020 A 
ATOM     16  C   LIG    1        1.790   3.351   1.592  0.00  0.00    +0.090 A 
ATOM     17  C   LIG    1        0.540   3.926   1.533  0.00  0.00    -0.160 A 
ENDBRANCH   2   9
BRANCH   6  18
ATOM     18  O   LIG    1       -0.245  10.193  -1.470  0.00  0.00    -0.550 OA
ATOM     19  H   LIG    1       -0.685   9.382  -1.757  0.00  0.00    +0.370 HD
ENDBRANCH   6  18
BRANCH   6  20
ATOM     20  C   LIG    1        1.415  11.330  -0.131  0.00  0.00    +0.210 C 
BRANCH  20  21
ATOM     21  N   LIG    1        0.418  12.152   0.568  0.00  0.00    -0.530 NA
ATOM     22  C   LIG    1       -0.582  12.680  -0.373  0.00  0.00    +0.170 C 
ATOM     23  C   LIG    1       -1.632  13.480   0.403  0.00  0.00    +0.220 C 
ATOM     24  O   LIG    1       -0.983  14.518   1.143  0.00  0.00    -0.390 OA
ATOM     25  C   LIG    1       -0.004  14.039   2.069  0.00  0.00    +0.220 C 
ATOM     26  C   LIG    1        1.063  13.245   1.310  0.00  0.00    +0.130 C 
ENDBRANCH  20  21
ENDBRANCH   6  20
TORSDOF 4
