REMARK  Name = ZINCnE000001SApT.0
REMARK                            x       y       z     vdW  Elec       q    Type
REMARK                         _______ _______ _______ _____ _____    ______ ____
ROOT
ATOM      1  O   LIG    1        3.109   2.429  -3.404  0.00  0.00    -0.610 OA
ATOM      2  C   LIG    1        1.932   2.118  -3.460  0.00  0.00    +0.670 C 
ATOM      3  N   LIG    1        1.362   1.450  -2.437  0.00  0.00    -0.620 N 
ATOM      4  C   LIG    1        2.147   1.092  -1.247  0.00  0.00    +0.270 C 
ATOM      5  C   LIG    1        1.423   1.615  -0.003  0.00  0.00    +0.010 C 
ATOM      6  C   LIG    1       -0.013   1.086   0.008  0.00  0.00    +0.060 C 
ATOM      7  C   LIG    1       -0.754   1.593  -1.231  0.00  0.00    +0.010 C 
ATOM      8  C   LIG    1       -0.055   1.069  -2.490  0.00  0.00    +0.280 C 
ENDROOT
BRANCH   6   9
ATOM      9  C   LIG    1       -0.718   1.571   1.248  0.00  0.00    -0.150 A 
ATOM     10  C   LIG    1       -0.929   2.850   1.598  0.00  0.00    +0.220 A 
ATOM     11  N   LIG    1       -1.601   2.904   2.788  0.00  0.00    -0.600 N 
ATOM     12  H   LIG    1       -1.866   3.719   3.242  0.00  0.00    +0.410 HD
ATOM     13  C   LIG    1       -1.845   1.628   3.245  0.00  0.00    +0.090 A 
ATOM     14  C   LIG    1       -2.478   1.121   4.375  0.00  0.00    -0.010 A 
ATOM     15  C   LIG    1       -2.567  -0.242   4.556  0.00  0.00    +0.020 A 
ATOM     16  C   LIG    1       -2.030  -1.117   3.622  0.00  0.00    -0.030 A 
ATOM     17  C   LIG    1       -1.403  -0.640   2.505  0.00  0.00    +0.050 A 
ATOM     18  C   LIG    1       -1.308   0.738   2.298  0.00  0.00    -0.100 A 
ENDBRANCH   6   9
BRANCH   2  19
ATOM     19  N   LIG    1        1.207   2.438  -4.535  0.00  0.00    -0.680 NA
ATOM     20  C   LIG    1        1.770   3.097  -5.546  0.00  0.00    +0.360 A 
ATOM     21  N   LIG    1        3.048   3.516  -5.636  0.00  0.00    -0.420 NA
ATOM     22  N   LIG    1        3.398   4.179  -6.792  0.00  0.00    -0.280 NA
ATOM     23  C   LIG    1        2.477   4.350  -7.680  0.00  0.00    +0.160 A 
ATOM     24  S   LIG    1        1.018   3.601  -7.011  0.00  0.00    -0.090 S 
ENDBRANCH   2  19
TORSDOF 2
