REMARK  Name = ZINCkj000005iS1D.0
REMARK                            x       y       z     vdW  Elec       q    Type
REMARK                         _______ _______ _______ _____ _____    ______ ____
ROOT
ATOM      1  C   LIG    1        0.678  -0.514   1.276  0.00  0.00    +0.320 C 
ENDROOT
BRANCH   1   2
ATOM      2  C   LIG    1        0.002  -0.004   0.002  0.00  0.00    -0.580 C 
ATOM      3  C   LIG    1       -0.019   1.528   0.010  0.00  0.00    +0.080 C 
ATOM      4  C   LIG    1        1.420   2.050  -0.001  0.00  0.00    +0.240 C 
ATOM      5  O   LIG    1        2.102   1.539  -1.148  0.00  0.00    -0.360 OA
ATOM      6  C   LIG    1        2.194   0.114  -1.186  0.00  0.00    +0.230 C 
ATOM      7  C   LIG    1        0.786  -0.486  -1.222  0.00  0.00    +0.050 C 
BRANCH   2   9
ATOM      8  C   LIG    1       -2.286   0.078  -1.640  0.00  0.00    -0.210 C 
ATOM      9  S   LIG    1       -1.697  -0.634  -0.079  0.00  0.00    +2.400 S 
ATOM     10  O   LIG    1       -2.443  -0.064   0.988  0.00  0.00    -0.900 OA
ATOM     11  O   LIG    1       -1.650  -2.047  -0.215  0.00  0.00    -0.940 OA
ENDBRANCH   2   9
ENDBRANCH   1   2
BRANCH   1  12
ATOM     12  N   LIG    1        0.697  -1.983   1.267  0.00  0.00    -0.520 N 
ATOM     13  H   LIG    1        1.211  -2.307   0.461  0.00  0.00    +0.430 HD
ATOM     14  H   LIG    1       -0.249  -2.331   1.226  0.00  0.00    +0.430 HD
BRANCH  12  15
ATOM     15  C   LIG    1        1.347  -2.472   2.490  0.00  0.00    +0.270 C 
BRANCH  15  16
ATOM     16  C   LIG    1        1.367  -4.002   2.480  0.00  0.00    -0.010 C 
ATOM     17  C   LIG    1        2.282  -4.527   1.347  0.00  0.00    +0.030 C 
ATOM     18  C   LIG    1        3.388  -5.327   2.106  0.00  0.00    +0.030 C 
ATOM     19  C   LIG    1        2.637  -6.518   2.713  0.00  0.00    -0.010 C 
ATOM     20  C   LIG    1        1.858  -6.071   3.678  0.00  0.00    -0.030 C 
ATOM     21  C   LIG    1        3.555  -4.433   3.389  0.00  0.00    +0.030 C 
ATOM     22  C   LIG    1        2.036  -4.551   3.780  0.00  0.00    +0.050 C 
ENDBRANCH  15  16
ENDBRANCH  12  15
ENDBRANCH   1  12
TORSDOF 5
