REMARK  Name = ZINCrH000004pKCB.0
REMARK                            x       y       z     vdW  Elec       q    Type
REMARK                         _______ _______ _______ _____ _____    ______ ____
ROOT
ATOM      1  C   LIG    1        0.002  -0.004   0.002  0.00  0.00    +0.520 C 
ATOM      2  F   LIG    1       -0.661  -0.473  -1.137  0.00  0.00    -0.150 F 
ATOM      3  F   LIG    1       -0.641  -0.485   1.148  0.00  0.00    -0.150 F 
ENDROOT
BRANCH   1   8
ATOM      4  C   LIG    1        2.499  -4.700  -1.970  0.00  0.00    +0.060 C 
ATOM      5  C   LIG    1        2.243  -3.194  -1.882  0.00  0.00    +0.000 C 
ATOM      6  C   LIG    1        0.968  -2.814  -1.113  0.00  0.00    +0.280 C 
ATOM      7  N   LIG    1        1.724  -1.702  -0.516  0.00  0.00    -0.630 N 
ATOM      8  C   LIG    1        1.429  -0.487  -0.014  0.00  0.00    +0.520 C 
ATOM      9  O   LIG    1        2.313   0.218   0.426  0.00  0.00    -0.430 OA
ATOM     10  C   LIG    1        2.943  -2.504  -0.704  0.00  0.00    +0.300 C 
BRANCH  10  11
ATOM     11  C   LIG    1        4.142  -1.686  -1.111  0.00  0.00    -0.100 A 
ATOM     12  C   LIG    1        3.967  -0.440  -1.682  0.00  0.00    +0.030 A 
ATOM     13  C   LIG    1        5.066   0.312  -2.051  0.00  0.00    +0.000 A 
ATOM     14  C   LIG    1        6.341  -0.187  -1.859  0.00  0.00    +0.010 A 
ATOM     15  C   LIG    1        6.516  -1.436  -1.292  0.00  0.00    +0.000 A 
ATOM     16  C   LIG    1        5.417  -2.185  -0.918  0.00  0.00    +0.020 A 
ENDBRANCH  10  11
ENDBRANCH   1   8
BRANCH   1  17
ATOM     17  N   LIG    1       -0.018   1.461   0.010  0.00  0.00    -0.350 N 
ATOM     18  C   LIG    1       -1.126   2.236   0.019  0.00  0.00    +0.180 A 
ATOM     19  C   LIG    1       -0.683   3.527   0.026  0.00  0.00    +0.040 A 
ATOM     20  N   LIG    1        0.660   3.463   0.014  0.00  0.00    -0.230 NA
ATOM     21  N   LIG    1        1.016   2.227   0.004  0.00  0.00    -0.010 NA
BRANCH  19  22
ATOM     22  C   LIG    1       -1.517   4.755   0.040  0.00  0.00    -0.020 A 
ATOM     23  C   LIG    1       -2.906   4.657   0.046  0.00  0.00    +0.020 A 
ATOM     24  C   LIG    1       -3.676   5.802   0.064  0.00  0.00    +0.010 A 
ATOM     25  C   LIG    1       -3.071   7.046   0.065  0.00  0.00    +0.020 A 
ATOM     26  C   LIG    1       -1.692   7.149   0.054  0.00  0.00    +0.010 A 
ATOM     27  C   LIG    1       -0.912   6.010   0.041  0.00  0.00    +0.040 A 
ENDBRANCH  19  22
ENDBRANCH   1  17
TORSDOF 4
