REMARK  Name = ZINCqH0000038s3W.0
REMARK                            x       y       z     vdW  Elec       q    Type
REMARK                         _______ _______ _______ _____ _____    ______ ____
ROOT
ATOM      1  N   LIG    1       -0.238  10.503  -2.064  0.00  0.00    -0.690 NA
ATOM      2  C   LIG    1       -0.755   9.381  -1.574  0.00  0.00    +0.500 A 
ATOM      3  C   LIG    1       -1.824   9.283  -0.657  0.00  0.00    -0.110 A 
ATOM      4  C   LIG    1       -2.049   7.975  -0.409  0.00  0.00    +0.340 A 
ATOM      5  N   LIG    1       -1.165   7.229  -1.132  0.00  0.00    -0.390 N 
ATOM      6  N   LIG    1       -0.346   8.101  -1.861  0.00  0.00    -0.480 N 
ATOM      7  H   LIG    1        0.375   7.848  -2.459  0.00  0.00    +0.450 HD
ENDROOT
BRANCH   1  10
ATOM      8  N   LIG    1       -0.210  12.826  -2.188  0.00  0.00    -0.720 N 
ATOM      9  H   LIG    1        0.528  12.786  -2.816  0.00  0.00    +0.400 HD
ATOM     10  C   LIG    1       -0.735  11.688  -1.691  0.00  0.00    +0.690 C 
ATOM     11  O   LIG    1       -1.662  11.739  -0.902  0.00  0.00    -0.620 OA
BRANCH   8  12
ATOM     12  C   LIG    1       -0.754  14.123  -1.779  0.00  0.00    +0.300 C 
ATOM     13  C   LIG    1       -1.960  14.470  -2.655  0.00  0.00    +0.040 C 
BRANCH  12  20
ATOM     14  C   LIG    1       -0.878  16.536  -0.193  0.00  0.00    +0.090 C 
ATOM     15  C   LIG    1        0.245  16.339  -1.179  0.00  0.00    -0.070 A 
ATOM     16  C   LIG    1        1.218  17.310  -1.322  0.00  0.00    +0.000 A 
ATOM     17  C   LIG    1        2.245  17.132  -2.230  0.00  0.00    +0.000 A 
ATOM     18  C   LIG    1        2.301  15.980  -2.992  0.00  0.00    +0.000 A 
ATOM     19  C   LIG    1        1.330  15.007  -2.846  0.00  0.00    +0.010 A 
ATOM     20  C   LIG    1        0.304  15.185  -1.938  0.00  0.00    -0.090 A 
ENDBRANCH  12  20
ENDBRANCH   8  12
ENDBRANCH   1  10
BRANCH   5  21
ATOM     21  C   LIG    1       -1.083   5.766  -1.140  0.00  0.00    +0.350 C 
BRANCH  21  22
ATOM     22  C   LIG    1       -0.217   5.298   0.031  0.00  0.00    +0.100 C 
BRANCH  22  23
ATOM     23  C   LIG    1       -0.132   3.793   0.023  0.00  0.00    +0.120 A 
ATOM     24  C   LIG    1        1.106   3.179   0.008  0.00  0.00    -0.030 A 
ATOM     25  C   LIG    1        1.173   1.794   0.001  0.00  0.00    +0.070 A 
ATOM     26  C   LIG    1       -0.013   1.076   0.008  0.00  0.00    -0.030 A 
ATOM     27  C   LIG    1       -1.214   1.759   0.017  0.00  0.00    +0.270 A 
ATOM     28  N   LIG    1       -1.240   3.078   0.029  0.00  0.00    -0.480 NA
ENDBRANCH  22  23
ENDBRANCH  21  22
ENDBRANCH   5  21
TORSDOF 6
