REMARK  Name = ZINCvU0000000G4k.0
REMARK                            x       y       z     vdW  Elec       q    Type
REMARK                         _______ _______ _______ _____ _____    ______ ____
ROOT
ATOM      1  C   LIG    1       -2.371  -0.513   1.701  0.00  0.00    +0.050 A 
ATOM      2  C   LIG    1       -1.592  -1.635   1.440  0.00  0.00    +0.000 A 
ATOM      3  C   LIG    1       -2.217  -2.858   1.172  0.00  0.00    +0.210 A 
ATOM      4  N   LIG    1       -3.529  -2.991   1.157  0.00  0.00    -0.460 NA
ATOM      5  C   LIG    1       -4.354  -1.967   1.397  0.00  0.00    +0.140 A 
ATOM      6  C   LIG    1       -5.749  -2.139   1.374  0.00  0.00    +0.050 A 
ATOM      7  C   LIG    1       -6.564  -1.077   1.621  0.00  0.00    +0.040 A 
ATOM      8  C   LIG    1       -6.040   0.182   1.898  0.00  0.00    +0.020 A 
ATOM      9  C   LIG    1       -4.691   0.386   1.929  0.00  0.00    +0.040 A 
ATOM     10  C   LIG    1       -3.825  -0.685   1.686  0.00  0.00    -0.070 A 
ENDROOT
BRANCH   3  11
ATOM     11  C   LIG    1       -1.375  -4.046   0.895  0.00  0.00    -0.060 A 
ATOM     12  C   LIG    1        0.011  -3.965   1.016  0.00  0.00    +0.020 A 
ATOM     13  C   LIG    1        0.790  -5.076   0.763  0.00  0.00    +0.010 A 
ATOM     14  C   LIG    1        0.198  -6.265   0.378  0.00  0.00    +0.030 A 
ATOM     15  C   LIG    1       -1.177  -6.350   0.250  0.00  0.00    +0.010 A 
ATOM     16  C   LIG    1       -1.966  -5.247   0.506  0.00  0.00    +0.070 A 
ENDBRANCH   3  11
BRANCH   1  20
ATOM     17  C   LIG    1       -0.508   2.587   1.905  0.00  0.00    +0.150 A 
ATOM     18  N   LIG    1       -1.332   2.658   2.929  0.00  0.00    -0.290 NA
ATOM     19  N   LIG    1       -2.064   1.603   2.980  0.00  0.00    -0.250 NA
ATOM     20  C   LIG    1       -1.757   0.796   1.988  0.00  0.00    +0.220 A 
ATOM     21  N   LIG    1       -0.753   1.405   1.268  0.00  0.00    -0.450 N 
BRANCH  17  22
ATOM     22  S   LIG    1        0.687   3.795   1.440  0.00  0.00    +0.060 S 
BRANCH  22  23
ATOM     23  C   LIG    1        0.409   5.028   2.736  0.00  0.00    +0.080 C 
BRANCH  23  25
ATOM     24  C   LIG    1        1.318   7.356   3.488  0.00  0.00    +0.090 C 
ATOM     25  C   LIG    1        1.349   6.189   2.536  0.00  0.00    +0.370 C 
ATOM     26  O   LIG    1        2.127   6.183   1.612  0.00  0.00    -0.440 OA
ENDBRANCH  23  25
ENDBRANCH  22  23
ENDBRANCH  17  22
BRANCH  21  27
ATOM     27  C   LIG    1       -0.085   0.889   0.071  0.00  0.00    +0.290 C 
BRANCH  27  28
ATOM     28  C   LIG    1       -0.768   1.450  -1.177  0.00  0.00    +0.020 C 
BRANCH  28  29
ATOM     29  C   LIG    1        0.009   1.019  -2.422  0.00  0.00    -0.010 C 
ATOM     30  C   LIG    1       -0.590   1.694  -3.657  0.00  0.00    +0.030 C 
ATOM     31  C   LIG    1       -0.080  -0.501  -2.578  0.00  0.00    +0.020 C 
ENDBRANCH  28  29
ENDBRANCH  27  28
ENDBRANCH  21  27
ENDBRANCH   1  20
TORSDOF 8
