REMARK  Name = ZINCvU00000006UV.0
REMARK                            x       y       z     vdW  Elec       q    Type
REMARK                         _______ _______ _______ _____ _____    ______ ____
ROOT
ATOM      1  C   LIG    1       -1.377  -0.462  -0.824  0.00  0.00    +0.540 C 
ATOM      2  N   LIG    1       -1.598  -1.776  -1.022  0.00  0.00    -0.720 N 
ATOM      3  H   LIG    1       -0.854  -2.398  -1.026  0.00  0.00    +0.400 HD
ATOM      4  O   LIG    1       -2.308   0.316  -0.819  0.00  0.00    -0.520 OA
ENDROOT
BRANCH   2   5
ATOM      5  C   LIG    1       -2.963  -2.266  -1.230  0.00  0.00    +0.290 C 
ATOM      6  C   LIG    1       -3.334  -2.132  -2.708  0.00  0.00    +0.040 C 
BRANCH   5   7
ATOM      7  C   LIG    1       -3.045  -3.714  -0.821  0.00  0.00    -0.090 A 
ATOM      8  C   LIG    1       -2.009  -4.577  -1.130  0.00  0.00    +0.010 A 
ATOM      9  C   LIG    1       -2.076  -5.903  -0.754  0.00  0.00    +0.020 A 
ATOM     10  C   LIG    1       -3.195  -6.375  -0.071  0.00  0.00    -0.040 A 
ATOM     11  C   LIG    1       -4.238  -5.503   0.233  0.00  0.00    +0.020 A 
ATOM     12  C   LIG    1       -4.158  -4.177  -0.143  0.00  0.00    +0.030 A 
BRANCH  10  13
ATOM     13  C   LIG    1       -3.276  -7.801   0.330  0.00  0.00    -0.050 A 
ATOM     14  C   LIG    1       -4.393  -8.272   1.018  0.00  0.00    +0.020 A 
ATOM     15  C   LIG    1       -4.465  -9.601   1.385  0.00  0.00    +0.010 A 
ATOM     16  C   LIG    1       -3.426 -10.462   1.080  0.00  0.00    +0.000 A 
ATOM     17  C   LIG    1       -2.313  -9.999   0.402  0.00  0.00    +0.010 A 
ATOM     18  C   LIG    1       -2.233  -8.674   0.026  0.00  0.00    +0.020 A 
ENDBRANCH  10  13
ENDBRANCH   5   7
ENDBRANCH   2   5
BRANCH   1  19
ATOM     19  C   LIG    1        0.027   0.043  -0.610  0.00  0.00    +0.110 C 
BRANCH  19  20
ATOM     20  S   LIG    1       -0.005   1.837  -0.376  0.00  0.00    +0.080 S 
BRANCH  20  24
ATOM     21  C   LIG    1        3.646   3.115   0.176  0.00  0.00    +0.270 A 
ATOM     22  N   LIG    1        3.812   1.823   0.022  0.00  0.00    -0.270 NA
ATOM     23  N   LIG    1        2.676   1.253  -0.167  0.00  0.00    -0.290 NA
ATOM     24  C   LIG    1        1.715   2.147  -0.155  0.00  0.00    +0.140 A 
ATOM     25  N   LIG    1        2.298   3.364   0.068  0.00  0.00    -0.460 N 
ATOM     26  C   LIG    1        1.626   4.662   0.169  0.00  0.00    +0.360 C 
BRANCH  21  29
ATOM     27  C   LIG    1        6.367   3.348  -1.363  0.00  0.00    +0.190 C 
ATOM     28  C   LIG    1        5.894   4.231  -0.238  0.00  0.00    +0.060 A 
ATOM     29  C   LIG    1        4.708   4.116   0.419  0.00  0.00    -0.140 A 
ATOM     30  C   LIG    1        4.699   5.194   1.416  0.00  0.00    -0.050 A 
ATOM     31  C   LIG    1        5.867   5.841   1.273  0.00  0.00    +0.180 A 
ATOM     32  O   LIG    1        6.569   5.265   0.285  0.00  0.00    -0.170 OA
ENDBRANCH  21  29
ENDBRANCH  20  24
ENDBRANCH  19  20
ENDBRANCH   1  19
TORSDOF 7
