REMARK  Name = ZINCpk000000oyLz.0
REMARK                            x       y       z     vdW  Elec       q    Type
REMARK                         _______ _______ _______ _____ _____    ______ ____
ROOT
ATOM      1  C   LIG    1       -6.072  -1.161   2.634  0.00  0.00    +0.300 C 
ENDROOT
BRANCH   1   2
ATOM      2  N   LIG    1       -4.813  -0.412   2.632  0.00  0.00    -0.720 N 
ATOM      3  H   LIG    1       -4.393  -0.168   3.472  0.00  0.00    +0.410 HD
ATOM      4  C   LIG    1       -4.240  -0.060   1.464  0.00  0.00    +0.520 C 
ATOM      5  O   LIG    1       -4.766  -0.365   0.415  0.00  0.00    -0.540 OA
BRANCH   4   6
ATOM      6  C   LIG    1       -2.945   0.711   1.462  0.00  0.00    +0.070 C 
BRANCH   6   7
ATOM      7  C   LIG    1       -2.514   0.980   0.019  0.00  0.00    +0.100 C 
BRANCH   7   8
ATOM      8  C   LIG    1       -1.219   1.751   0.017  0.00  0.00    -0.090 A 
ATOM      9  C   LIG    1       -0.013   1.076   0.008  0.00  0.00    +0.010 A 
ATOM     10  C   LIG    1        1.175   1.783   0.000  0.00  0.00    +0.000 A 
ATOM     11  C   LIG    1        1.156   3.165   0.008  0.00  0.00    -0.090 A 
ATOM     12  C   LIG    1       -0.050   3.840   0.023  0.00  0.00    +0.000 A 
ATOM     13  C   LIG    1        2.451   3.937  -0.001  0.00  0.00    +0.090 C 
ATOM     14  C   LIG    1       -1.238   3.133   0.030  0.00  0.00    +0.010 A 
ENDBRANCH   7   8
ENDBRANCH   6   7
ENDBRANCH   4   6
ENDBRANCH   1   2
BRANCH   1  16
ATOM     15  N   LIG    1       -7.634  -2.105   4.304  0.00  0.00    -0.590 N 
ATOM     16  C   LIG    1       -6.497  -1.426   4.056  0.00  0.00    +0.520 C 
ATOM     17  O   LIG    1       -5.815  -1.028   4.977  0.00  0.00    -0.530 OA
BRANCH  15  19
ATOM     18  C   LIG    1       -8.006  -3.993   2.794  0.00  0.00    +0.020 C 
ATOM     19  C   LIG    1       -8.457  -2.587   3.192  0.00  0.00    +0.280 C 
ENDBRANCH  15  19
BRANCH  15  20
ATOM     20  C   LIG    1       -8.047  -2.363   5.686  0.00  0.00    +0.330 C 
BRANCH  20  21
ATOM     21  C   LIG    1       -8.916  -1.230   6.170  0.00  0.00    +0.500 C 
ATOM     22  N   LIG    1       -9.415  -1.252   7.421  0.00  0.00    -0.730 N 
ATOM     23  H   LIG    1       -9.216  -1.996   8.010  0.00  0.00    +0.400 HD
ATOM     24  O   LIG    1       -9.165  -0.300   5.433  0.00  0.00    -0.530 OA
BRANCH  22  25
ATOM     25  C   LIG    1      -10.260  -0.151   7.891  0.00  0.00    +0.230 C 
ATOM     26  C   LIG    1       -9.375   0.980   8.421  0.00  0.00    +0.030 C 
ATOM     27  C   LIG    1      -11.173  -0.651   9.012  0.00  0.00    +0.030 C 
ENDBRANCH  22  25
ENDBRANCH  20  21
ENDBRANCH  15  20
ENDBRANCH   1  16
TORSDOF 9
