REMARK  Name = ZINCrH00000No57W.0
REMARK                            x       y       z     vdW  Elec       q    Type
REMARK                         _______ _______ _______ _____ _____    ______ ____
ROOT
ATOM      1  C   LIG    1        0.002  -0.004   0.002  0.00  0.00    +0.220 A 
ATOM      2  N   LIG    1        1.275  -0.369  -0.012  0.00  0.00    -0.470 NA
ATOM      3  C   LIG    1        1.979   0.781  -0.013  0.00  0.00    +0.220 A 
ATOM      4  N   LIG    1        1.119   1.768   0.001  0.00  0.00    -0.380 NA
ATOM      5  O   LIG    1       -0.016   1.340   0.009  0.00  0.00    +0.080 OA
ENDROOT
BRANCH   3   6
ATOM      6  C   LIG    1        3.457   0.905  -0.026  0.00  0.00    -0.050 A 
ATOM      7  C   LIG    1        4.254  -0.239  -0.033  0.00  0.00    +0.100 A 
ATOM      8  C   LIG    1        5.627  -0.121  -0.050  0.00  0.00    -0.030 A 
ATOM      9  C   LIG    1        6.218   1.138  -0.049  0.00  0.00    +0.130 A 
ATOM     10  C   LIG    1        5.425   2.280  -0.036  0.00  0.00    -0.010 A 
ATOM     11  C   LIG    1        4.052   2.167  -0.025  0.00  0.00    +0.080 A 
BRANCH   9  12
ATOM     12  N   LIG    1        7.607   1.255  -0.062  0.00  0.00    -0.490 N 
ATOM     13  C   LIG    1        8.058   2.062  -1.204  0.00  0.00    +0.180 C 
ATOM     14  C   LIG    1        9.580   2.215  -1.146  0.00  0.00    +0.230 C 
ATOM     15  O   LIG    1       10.184   0.919  -1.127  0.00  0.00    -0.380 OA
ATOM     16  C   LIG    1        9.768   0.105  -0.027  0.00  0.00    +0.220 C 
ATOM     17  C   LIG    1        8.247  -0.069  -0.074  0.00  0.00    +0.170 C 
ENDBRANCH   9  12
ENDBRANCH   3   6
BRANCH   1  19
ATOM     18  C   LIG    1       -2.406  -0.375   0.022  0.00  0.00    +0.130 C 
ATOM     19  C   LIG    1       -1.161  -0.893   0.008  0.00  0.00    +0.050 C 
BRANCH  18  25
ATOM     20  C   LIG    1       -4.872  -0.733   0.043  0.00  0.00    +0.160 A 
ATOM     21  C   LIG    1       -5.965  -1.584   0.048  0.00  0.00    -0.080 A 
ATOM     22  C   LIG    1       -5.777  -2.953   0.039  0.00  0.00    +0.070 A 
ATOM     23  C   LIG    1       -4.499  -3.486   0.025  0.00  0.00    -0.030 A 
ATOM     24  C   LIG    1       -3.399  -2.655   0.012  0.00  0.00    +0.080 A 
ATOM     25  C   LIG    1       -3.574  -1.268   0.028  0.00  0.00    -0.110 A 
BRANCH  20  27
ATOM     26  C   LIG    1       -6.404   1.083   0.067  0.00  0.00    +0.240 C 
ATOM     27  O   LIG    1       -5.055   0.612   0.051  0.00  0.00    -0.310 OA
ENDBRANCH  20  27
ENDBRANCH  18  25
ENDBRANCH   1  19
TORSDOF 5
