REMARK  Name = ZINCAx0000000aiy.0
REMARK                            x       y       z     vdW  Elec       q    Type
REMARK                         _______ _______ _______ _____ _____    ______ ____
ROOT
ATOM      1  C   LIG    1        5.181  -5.292  -7.635  0.00  0.00    +0.300 C 
ATOM      2  N   LIG    1        4.743  -5.493  -6.252  0.00  0.00    -0.600 N 
ATOM      3  C   LIG    1        5.397  -6.362  -5.457  0.00  0.00    +0.530 C 
ATOM      4  O   LIG    1        6.391  -6.926  -5.864  0.00  0.00    -0.530 OA
ENDROOT
BRANCH   3   5
ATOM      5  C   LIG    1        4.895  -6.634  -4.062  0.00  0.00    -0.020 C 
ATOM      6  C   LIG    1        5.565  -5.668  -3.082  0.00  0.00    +0.040 C 
ATOM      7  C   LIG    1        5.026  -5.924  -1.671  0.00  0.00    +0.280 C 
ATOM      8  N   LIG    1        5.214  -7.344  -1.343  0.00  0.00    -0.610 N 
ATOM      9  C   LIG    1        4.688  -8.358  -2.267  0.00  0.00    +0.270 C 
ATOM     10  C   LIG    1        5.858  -7.709  -0.217  0.00  0.00    +0.550 C 
ATOM     11  O   LIG    1        6.206  -6.864   0.587  0.00  0.00    -0.540 OA
ATOM     12  C   LIG    1        5.230  -8.075  -3.671  0.00  0.00    +0.040 C 
BRANCH  10  13
ATOM     13  C   LIG    1        6.138  -9.123   0.041  0.00  0.00    -0.090 C 
ATOM     14  C   LIG    1        6.704  -9.497   1.206  0.00  0.00    +0.130 C 
BRANCH  14  15
ATOM     15  C   LIG    1        6.987 -10.919   1.464  0.00  0.00    -0.080 A 
ATOM     16  C   LIG    1        6.663 -11.885   0.506  0.00  0.00    +0.030 A 
ATOM     17  C   LIG    1        6.936 -13.214   0.753  0.00  0.00    +0.010 A 
ATOM     18  C   LIG    1        7.517 -13.594   1.951  0.00  0.00    +0.020 A 
ATOM     19  C   LIG    1        7.834 -12.644   2.906  0.00  0.00    +0.010 A 
ATOM     20  C   LIG    1        7.574 -11.310   2.671  0.00  0.00    +0.040 A 
ENDBRANCH  14  15
ENDBRANCH  10  13
ENDBRANCH   3   5
BRANCH   2  21
ATOM     21  C   LIG    1        3.593  -4.748  -5.732  0.00  0.00    +0.310 C 
BRANCH  21  22
ATOM     22  C   LIG    1        4.075  -3.493  -5.049  0.00  0.00    +0.490 C 
ATOM     23  N   LIG    1        3.187  -2.647  -4.492  0.00  0.00    -0.610 N 
ATOM     24  C   LIG    1        3.635  -1.417  -3.821  0.00  0.00    +0.300 C 
ATOM     25  C   LIG    1        2.997  -1.362  -2.429  0.00  0.00    +0.170 C 
ATOM     26  N   LIG    1        1.540  -1.504  -2.555  0.00  0.00    -0.530 NA
ATOM     27  C   LIG    1        1.180  -2.813  -3.118  0.00  0.00    +0.170 C 
ATOM     28  C   LIG    1        1.744  -2.928  -4.538  0.00  0.00    +0.280 C 
ATOM     29  O   LIG    1        5.261  -3.246  -5.001  0.00  0.00    -0.520 OA
BRANCH  26  30
ATOM     30  C   LIG    1        0.875  -1.285  -1.264  0.00  0.00    +0.230 C 
BRANCH  30  31
ATOM     31  C   LIG    1       -0.614  -1.196  -1.474  0.00  0.00    -0.080 A 
ATOM     32  C   LIG    1       -1.390  -2.338  -1.418  0.00  0.00    +0.000 A 
ATOM     33  C   LIG    1       -2.757  -2.256  -1.610  0.00  0.00    +0.000 A 
ATOM     34  C   LIG    1       -3.347  -1.030  -1.859  0.00  0.00    +0.000 A 
ATOM     35  C   LIG    1       -2.571   0.112  -1.914  0.00  0.00    +0.000 A 
ATOM     36  C   LIG    1       -1.204   0.029  -1.724  0.00  0.00    +0.020 A 
ENDBRANCH  30  31
ENDBRANCH  26  30
ENDBRANCH  21  22
ENDBRANCH   2  21
TORSDOF 7
