REMARK  Name = ZINCpk00000y6zc8.0
REMARK                            x       y       z     vdW  Elec       q    Type
REMARK                         _______ _______ _______ _____ _____    ______ ____
ROOT
ATOM      1  C   LIG    1        0.042   0.691  -1.786  0.00  0.00    +0.200 C 
ENDROOT
BRANCH   1   4
ATOM      2  N   LIG    1        0.952  -1.608  -1.685  0.00  0.00    -0.730 N 
ATOM      3  H   LIG    1        1.579  -1.358  -2.382  0.00  0.00    +0.400 HD
ATOM      4  C   LIG    1        0.096  -0.692  -1.189  0.00  0.00    +0.520 C 
ATOM      5  O   LIG    1       -0.630  -0.981  -0.261  0.00  0.00    -0.500 OA
BRANCH   2   7
ATOM      6  C   LIG    1        1.328  -2.962   0.306  0.00  0.00    +0.050 C 
ATOM      7  C   LIG    1        0.934  -2.980  -1.173  0.00  0.00    +0.190 C 
ATOM      8  C   LIG    1       -0.484  -3.539  -1.299  0.00  0.00    +0.080 C 
ATOM      9  C   LIG    1       -0.620  -4.243  -2.674  0.00  0.00    -0.300 C 
ATOM     10  S   LIG    1        0.988  -5.129  -2.781  0.00  0.00    +2.380 S 
ATOM     11  O   LIG    1        0.950  -6.287  -1.958  0.00  0.00    -0.920 OA
ATOM     12  O   LIG    1        1.386  -5.231  -4.141  0.00  0.00    -0.930 OA
ATOM     13  C   LIG    1        1.960  -3.816  -1.952  0.00  0.00    -0.300 C 
ENDBRANCH   2   7
ENDBRANCH   1   4
BRANCH   1  14
ATOM     14  N   LIG    1       -0.859   1.534  -0.989  0.00  0.00    -0.510 NA
BRANCH  14  15
ATOM     15  C   LIG    1       -0.229   1.924   0.280  0.00  0.00    +0.190 C 
BRANCH  15  16
ATOM     16  C   LIG    1       -1.312   2.314   1.288  0.00  0.00    +0.180 C 
ATOM     17  C   LIG    1       -0.672   2.666   2.655  0.00  0.00    +0.010 C 
ATOM     18  C   LIG    1       -1.757   3.601   3.256  0.00  0.00    +0.000 C 
ATOM     19  C   LIG    1       -2.297   4.324   2.003  0.00  0.00    +0.190 C 
ATOM     20  O   LIG    1       -1.977   3.515   0.865  0.00  0.00    -0.380 OA
ENDBRANCH  15  16
ENDBRANCH  14  15
BRANCH  14  21
ATOM     21  C   LIG    1       -1.286   2.715  -1.750  0.00  0.00    +0.290 C 
BRANCH  21  22
ATOM     22  C   LIG    1       -2.197   2.287  -2.872  0.00  0.00    -0.170 A 
ATOM     23  C   LIG    1       -3.524   2.177  -2.785  0.00  0.00    +0.030 A 
ATOM     24  C   LIG    1       -4.152   1.766  -3.948  0.00  0.00    +0.010 A 
ATOM     25  C   LIG    1       -3.336   1.543  -4.979  0.00  0.00    -0.050 A 
ATOM     26  S   LIG    1       -1.675   1.864  -4.497  0.00  0.00    +0.070 S 
ENDBRANCH  21  22
ENDBRANCH  14  21
ENDBRANCH   1  14
TORSDOF 7
