REMARK  Name = ZINCrD000000CWL8.0
REMARK                            x       y       z     vdW  Elec       q    Type
REMARK                         _______ _______ _______ _____ _____    ______ ____
ROOT
ATOM      1  C   LIG    1       -5.610  -1.781  -0.600  0.00  0.00    +0.150 A 
ATOM      2  N   LIG    1       -5.525  -1.755   0.710  0.00  0.00    -0.250 NA
ATOM      3  N   LIG    1       -4.387  -1.275   1.065  0.00  0.00    -0.240 NA
ATOM      4  C   LIG    1       -3.684  -0.960   0.014  0.00  0.00    +0.180 A 
ATOM      5  N   LIG    1       -4.436  -1.274  -1.087  0.00  0.00    -0.410 N 
ENDROOT
BRANCH   5   6
ATOM      6  C   LIG    1       -4.077  -1.109  -2.433  0.00  0.00    +0.090 A 
ATOM      7  C   LIG    1       -3.887   0.165  -2.950  0.00  0.00    +0.040 A 
ATOM      8  C   LIG    1       -3.529   0.324  -4.275  0.00  0.00    +0.040 A 
ATOM      9  C   LIG    1       -3.371  -0.783  -5.088  0.00  0.00    +0.040 A 
ATOM     10  C   LIG    1       -3.566  -2.053  -4.576  0.00  0.00    +0.030 A 
ATOM     11  C   LIG    1       -3.918  -2.219  -3.251  0.00  0.00    +0.030 A 
ENDBRANCH   5   6
BRANCH   1  12
ATOM     12  S   LIG    1       -6.976  -2.359  -1.551  0.00  0.00    +0.070 S 
BRANCH  12  18
ATOM     13  O   LIG    1       -7.832  -0.913   1.203  0.00  0.00    -0.400 OA
ATOM     14  C   LIG    1       -8.555  -1.637   0.560  0.00  0.00    +0.480 C 
ATOM     15  O   LIG    1       -9.880  -1.484   0.430  0.00  0.00    -0.340 OA
ATOM     16  C   LIG    1      -10.489  -2.748   0.029  0.00  0.00    +0.270 C 
ATOM     17  C   LIG    1       -9.396  -3.453  -0.806  0.00  0.00    +0.090 C 
ATOM     18  C   LIG    1       -8.099  -2.851  -0.220  0.00  0.00    -0.010 C 
ENDBRANCH  12  18
ENDBRANCH   1  12
BRANCH   4  19
ATOM     19  C   LIG    1       -2.299  -0.367   0.011  0.00  0.00    +0.350 C 
BRANCH  19  20
ATOM     20  O   LIG    1       -2.391   1.059   0.019  0.00  0.00    -0.300 OA
BRANCH  20  21
ATOM     21  C   LIG    1       -1.222   1.753   0.017  0.00  0.00    +0.100 A 
ATOM     22  C   LIG    1       -0.013   1.076   0.008  0.00  0.00    -0.040 A 
ATOM     23  C   LIG    1        1.175   1.784   0.000  0.00  0.00    +0.050 A 
ATOM     24  C   LIG    1        1.158   3.166   0.009  0.00  0.00    +0.010 A 
ATOM     25  C   LIG    1       -0.046   3.845   0.024  0.00  0.00    +0.030 A 
ATOM     26  C   LIG    1       -1.238   3.142   0.030  0.00  0.00    +0.070 A 
ATOM     27  F   LIG    1       -2.414   3.806   0.045  0.00  0.00    -0.130 F 
ENDBRANCH  20  21
ENDBRANCH  19  20
ENDBRANCH   4  19
TORSDOF 6
