REMARK  Name = ZINCkj000005gq0s.0
REMARK                            x       y       z     vdW  Elec       q    Type
REMARK                         _______ _______ _______ _____ _____    ______ ____
ROOT
ATOM      1  N   LIG    1       -1.032  -0.740   4.738  0.00  0.00    -0.380 N 
ATOM      2  C   LIG    1       -0.442   0.597   4.876  0.00  0.00    +0.270 C 
ATOM      3  C   LIG    1       -0.813   1.450   3.662  0.00  0.00    +0.070 C 
ATOM      4  C   LIG    1       -0.277   0.782   2.392  0.00  0.00    +0.150 C 
ATOM      5  C   LIG    1       -0.839  -0.639   2.296  0.00  0.00    +0.070 C 
ATOM      6  C   LIG    1       -0.468  -1.414   3.562  0.00  0.00    +0.260 C 
ATOM      7  H   LIG    1       -2.031  -0.656   4.629  0.00  0.00    +0.430 HD
ENDROOT
BRANCH   4   8
ATOM      8  N   LIG    1       -0.695   1.556   1.216  0.00  0.00    -0.550 NA
ATOM      9  C   LIG    1       -0.169   0.965  -0.016  0.00  0.00    +0.230 C 
ATOM     10  C   LIG    1       -0.939   1.507  -1.224  0.00  0.00    -0.320 C 
ATOM     11  S   LIG    1       -0.674   3.303  -1.324  0.00  0.00    +2.410 S 
ATOM     12  C   LIG    1       -1.122   3.816   0.362  0.00  0.00    -0.320 C 
ATOM     13  O   LIG    1       -1.615   3.853  -2.236  0.00  0.00    -0.930 OA
ATOM     14  O   LIG    1        0.712   3.549  -1.522  0.00  0.00    -0.930 OA
ATOM     15  C   LIG    1       -0.327   2.967   1.359  0.00  0.00    +0.230 C 
ENDBRANCH   4   8
BRANCH   1  16
ATOM     16  C   LIG    1       -0.738  -1.530   5.941  0.00  0.00    +0.250 C 
BRANCH  16  17
ATOM     17  C   LIG    1       -1.456  -2.878   5.854  0.00  0.00    +0.070 C 
BRANCH  17  18
ATOM     18  C   LIG    1       -1.151  -3.701   7.107  0.00  0.00    +0.080 C 
BRANCH  18  19
ATOM     19  S   LIG    1       -2.002  -5.300   7.004  0.00  0.00    -0.250 S 
BRANCH  19  21
ATOM     20  C   LIG    1       -2.174  -7.501   8.618  0.00  0.00    +0.080 C 
ATOM     21  C   LIG    1       -1.526  -6.117   8.552  0.00  0.00    +0.090 C 
ENDBRANCH  19  21
ENDBRANCH  18  19
ENDBRANCH  17  18
ENDBRANCH  16  17
ENDBRANCH   1  16
TORSDOF 6
