REMARK  Name = ZINCqH0000005h5i.0
REMARK                            x       y       z     vdW  Elec       q    Type
REMARK                         _______ _______ _______ _____ _____    ______ ____
ROOT
ATOM      1  C   LIG    1       -3.782   1.679   2.102  0.00  0.00    +0.280 C 
ATOM      2  N   LIG    1       -2.925   0.719   1.403  0.00  0.00    -0.630 N 
ATOM      3  C   LIG    1       -2.515  -0.401   2.031  0.00  0.00    +0.710 C 
ATOM      4  N   LIG    1       -2.894  -0.638   3.302  0.00  0.00    -0.740 N 
ATOM      5  H   LIG    1       -3.461  -0.002   3.765  0.00  0.00    +0.390 HD
ATOM      6  O   LIG    1       -1.803  -1.198   1.450  0.00  0.00    -0.580 OA
ENDROOT
BRANCH   4   7
ATOM      7  C   LIG    1       -2.448  -1.855   3.985  0.00  0.00    +0.260 C 
ATOM      8  C   LIG    1       -3.395  -3.007   3.643  0.00  0.00    +0.030 C 
ATOM      9  C   LIG    1       -4.812  -2.655   4.101  0.00  0.00    +0.040 C 
ATOM     10  C   LIG    1       -4.817  -2.423   5.613  0.00  0.00    -0.010 C 
ATOM     11  C   LIG    1       -3.870  -1.271   5.955  0.00  0.00    +0.030 C 
ATOM     12  C   LIG    1       -2.453  -1.623   5.497  0.00  0.00    +0.050 C 
BRANCH  10  13
ATOM     13  C   LIG    1       -6.234  -2.071   6.071  0.00  0.00    +0.450 C 
ATOM     14  F   LIG    1       -6.238  -1.858   7.453  0.00  0.00    -0.180 F 
ATOM     15  F   LIG    1       -7.100  -3.124   5.758  0.00  0.00    -0.180 F 
ATOM     16  F   LIG    1       -6.659  -0.908   5.419  0.00  0.00    -0.180 F 
ENDBRANCH  10  13
ENDBRANCH   4   7
BRANCH   2  17
ATOM     17  C   LIG    1       -2.513   0.976   0.021  0.00  0.00    +0.370 C 
BRANCH  17  18
ATOM     18  C   LIG    1       -1.219   1.749   0.017  0.00  0.00    -0.110 A 
ATOM     19  C   LIG    1       -0.013   1.076   0.008  0.00  0.00    +0.050 A 
ATOM     20  C   LIG    1        1.176   1.782   0.000  0.00  0.00    +0.010 A 
ATOM     21  C   LIG    1        1.160   3.169   0.007  0.00  0.00    +0.050 A 
ATOM     22  O   LIG    1        2.338   3.850   0.003  0.00  0.00    -0.310 OA
ATOM     23  C   LIG    1        2.280   5.233  -0.365  0.00  0.00    +0.220 C 
ATOM     24  C   LIG    1        1.114   5.883   0.391  0.00  0.00    +0.220 C 
ATOM     25  O   LIG    1       -0.092   5.207   0.023  0.00  0.00    -0.310 OA
ATOM     26  C   LIG    1       -0.054   3.846   0.020  0.00  0.00    +0.040 A 
ATOM     27  C   LIG    1       -1.242   3.131   0.030  0.00  0.00    +0.030 A 
ENDBRANCH  17  18
ENDBRANCH   2  17
TORSDOF 4
