REMARK  Name = ZINCtV00000tRPUa.0
REMARK                            x       y       z     vdW  Elec       q    Type
REMARK                         _______ _______ _______ _____ _____    ______ ____
ROOT
ATOM      1  O   LIG    1       -2.140  -0.726  -0.918  0.00  0.00    -0.450 OA
ATOM      2  C   LIG    1       -1.047  -1.046  -0.487  0.00  0.00    +0.560 A 
ATOM      3  C   LIG    1        0.068  -0.082  -0.486  0.00  0.00    -0.190 A 
ATOM      4  C   LIG    1        1.283  -0.505   0.017  0.00  0.00    +0.050 A 
ATOM      5  S   LIG    1        2.462   0.795  -0.080  0.00  0.00    +0.240 S 
ATOM      6  C   LIG    1        1.297   1.892  -0.797  0.00  0.00    -0.030 A 
ATOM      7  N   LIG    1        1.402  -1.802   0.493  0.00  0.00    -0.550 N 
ATOM      8  H   LIG    1        2.254  -2.103   0.847  0.00  0.00    +0.450 HD
ATOM      9  C   LIG    1        0.361  -2.647   0.474  0.00  0.00    +0.530 A 
ATOM     10  S   LIG    1        0.571  -4.236   1.077  0.00  0.00    -0.510 S 
ATOM     11  C   LIG    1        0.112   1.302  -0.945  0.00  0.00    +0.020 A 
ATOM     12  N   LIG    1       -0.840  -2.285  -0.004  0.00  0.00    -0.460 N 
ENDROOT
BRANCH  11  13
ATOM     13  C   LIG    1       -1.061   1.990  -1.532  0.00  0.00    -0.050 A 
ATOM     14  C   LIG    1       -1.782   1.385  -2.563  0.00  0.00    +0.060 A 
ATOM     15  C   LIG    1       -2.874   2.024  -3.106  0.00  0.00    +0.020 A 
ATOM     16  C   LIG    1       -3.255   3.280  -2.632  0.00  0.00    -0.030 A 
ATOM     17  C   LIG    1       -2.532   3.886  -1.605  0.00  0.00    +0.020 A 
ATOM     18  C   LIG    1       -1.442   3.246  -1.059  0.00  0.00    +0.040 A 
BRANCH  16  19
ATOM     19  C   LIG    1       -4.429   3.969  -3.220  0.00  0.00    -0.050 A 
ATOM     20  C   LIG    1       -4.815   5.222  -2.745  0.00  0.00    +0.020 A 
ATOM     21  C   LIG    1       -5.905   5.861  -3.300  0.00  0.00    +0.010 A 
ATOM     22  C   LIG    1       -6.620   5.257  -4.318  0.00  0.00    +0.000 A 
ATOM     23  C   LIG    1       -6.244   4.012  -4.790  0.00  0.00    +0.010 A 
ATOM     24  C   LIG    1       -5.153   3.365  -4.247  0.00  0.00    +0.020 A 
ENDBRANCH  16  19
ENDBRANCH  11  13
BRANCH  12  25
ATOM     25  C   LIG    1       -1.893  -3.209   0.001  0.00  0.00    +0.120 A 
ATOM     26  C   LIG    1       -2.095  -4.040  -1.093  0.00  0.00    +0.040 A 
ATOM     27  C   LIG    1       -3.130  -4.954  -1.083  0.00  0.00    +0.020 A 
ATOM     28  C   LIG    1       -3.972  -5.035   0.011  0.00  0.00    +0.030 A 
ATOM     29  C   LIG    1       -3.777  -4.205   1.100  0.00  0.00    +0.020 A 
ATOM     30  C   LIG    1       -2.740  -3.293   1.098  0.00  0.00    +0.040 A 
ENDBRANCH  12  25
TORSDOF 3
