REMARK  Name = ZINCqH0000005yGi.0
REMARK                            x       y       z     vdW  Elec       q    Type
REMARK                         _______ _______ _______ _____ _____    ______ ____
ROOT
ATOM      1  N   LIG    1       -0.078   1.073  -0.017  0.00  0.00    -0.730 N 
ATOM      2  H   LIG    1       -0.170   0.108  -0.053  0.00  0.00    +0.400 HD
ATOM      3  C   LIG    1       -1.176   1.853   0.032  0.00  0.00    +0.510 C 
ATOM      4  O   LIG    1       -1.065   3.059  -0.014  0.00  0.00    -0.520 OA
ENDROOT
BRANCH   1   5
ATOM      5  C   LIG    1        1.254   1.683  -0.022  0.00  0.00    +0.310 C 
BRANCH   5   6
ATOM      6  C   LIG    1        2.243   0.736   0.608  0.00  0.00    -0.100 A 
ATOM      7  C   LIG    1        2.161  -0.620   0.351  0.00  0.00    +0.030 A 
ATOM      8  C   LIG    1        3.071  -1.488   0.925  0.00  0.00    +0.030 A 
ATOM      9  C   LIG    1        4.057  -1.001   1.765  0.00  0.00    -0.030 A 
ATOM     10  C   LIG    1        4.134   0.356   2.026  0.00  0.00    +0.030 A 
ATOM     11 CL   LIG    1        5.196  -2.091   2.490  0.00  0.00    -0.070 Cl
ATOM     12  C   LIG    1        3.227   1.223   1.447  0.00  0.00    +0.070 A 
ENDBRANCH   5   6
BRANCH   5  13
ATOM     13  C   LIG    1        1.675   1.975  -1.464  0.00  0.00    +0.110 C 
BRANCH  13  14
ATOM     14  C   LIG    1        2.967   2.751  -1.462  0.00  0.00    +0.470 C 
ATOM     15  O   LIG    1        3.435   3.143  -0.419  0.00  0.00    -0.500 OA
BRANCH  14  17
ATOM     16  C   LIG    1        4.837   3.760  -2.542  0.00  0.00    +0.260 C 
ATOM     17  O   LIG    1        3.598   3.007  -2.619  0.00  0.00    -0.360 OA
ENDBRANCH  14  17
ENDBRANCH  13  14
ENDBRANCH   5  13
ENDBRANCH   1   5
BRANCH   3  18
ATOM     18  C   LIG    1       -2.542   1.225   0.143  0.00  0.00    +0.140 C 
BRANCH  18  19
ATOM     19  C   LIG    1       -3.590   2.307   0.179  0.00  0.00    -0.160 A 
ATOM     20  C   LIG    1       -4.141   2.849   1.277  0.00  0.00    +0.240 A 
ATOM     21  N   LIG    1       -5.055   3.802   0.918  0.00  0.00    -0.590 N 
ATOM     22  H   LIG    1       -5.581   4.330   1.539  0.00  0.00    +0.420 HD
ATOM     23  C   LIG    1       -5.117   3.898  -0.454  0.00  0.00    +0.090 A 
ATOM     24  C   LIG    1       -5.859   4.688  -1.325  0.00  0.00    -0.010 A 
ATOM     25  C   LIG    1       -5.691   4.548  -2.686  0.00  0.00    +0.020 A 
ATOM     26  C   LIG    1       -4.788   3.627  -3.197  0.00  0.00    -0.020 A 
ATOM     27  C   LIG    1       -4.048   2.841  -2.359  0.00  0.00    +0.050 A 
ATOM     28  C   LIG    1       -4.197   2.970  -0.977  0.00  0.00    -0.090 A 
ENDBRANCH  18  19
ENDBRANCH   3  18
TORSDOF 7
