REMARK  Name = ZINCqH0000004ZZE.0
REMARK                            x       y       z     vdW  Elec       q    Type
REMARK                         _______ _______ _______ _____ _____    ______ ____
ROOT
ATOM      1  C   LIG    1       -4.099  -0.732  -2.624  0.00  0.00    +0.290 C 
ATOM      2  N   LIG    1       -3.943  -1.695  -1.531  0.00  0.00    -0.590 N 
ATOM      3  C   LIG    1       -4.051  -3.016  -1.776  0.00  0.00    +0.610 C 
ATOM      4  O   LIG    1       -4.020  -3.811  -0.855  0.00  0.00    -0.510 OA
ENDROOT
BRANCH   2   5
ATOM      5  C   LIG    1       -3.669  -1.223  -0.172  0.00  0.00    +0.270 C 
ATOM      6  C   LIG    1       -4.866  -1.541   0.727  0.00  0.00    +0.050 C 
ATOM      7  C   LIG    1       -6.026  -0.618   0.336  0.00  0.00    +0.030 C 
ATOM      8  C   LIG    1       -5.652   0.818   0.714  0.00  0.00    +0.270 C 
ATOM      9  N   LIG    1       -4.339   1.159   0.181  0.00  0.00    -0.550 N 
ATOM     10  C   LIG    1       -3.430   0.260  -0.198  0.00  0.00    +0.520 C 
ATOM     11  O   LIG    1       -2.352   0.661  -0.583  0.00  0.00    -0.510 OA
BRANCH   9  12
ATOM     12  C   LIG    1       -4.010   2.514   0.064  0.00  0.00    +0.130 A 
ATOM     13  C   LIG    1       -3.642   3.037  -1.169  0.00  0.00    +0.020 A 
ATOM     14  C   LIG    1       -3.323   4.376  -1.282  0.00  0.00    +0.020 A 
ATOM     15  C   LIG    1       -3.364   5.194  -0.168  0.00  0.00    +0.010 A 
ATOM     16  C   LIG    1       -3.725   4.675   1.062  0.00  0.00    +0.020 A 
ATOM     17  C   LIG    1       -4.045   3.337   1.182  0.00  0.00    +0.000 A 
ENDBRANCH   9  12
ENDBRANCH   2   5
BRANCH   3  18
ATOM     18  C   LIG    1       -4.208  -3.496  -3.153  0.00  0.00    -0.290 A 
ATOM     19  C   LIG    1       -3.212  -3.926  -3.968  0.00  0.00    +0.140 A 
ATOM     20  N   LIG    1       -3.617  -4.308  -5.154  0.00  0.00    -0.460 NA
ATOM     21  C   LIG    1       -4.883  -4.223  -5.406  0.00  0.00    +0.240 A 
ATOM     22  S   LIG    1       -5.722  -3.611  -4.048  0.00  0.00    +0.180 S 
BRANCH  19  23
ATOM     23  C   LIG    1       -1.766  -3.964  -3.545  0.00  0.00    -0.000 C 
ATOM     24  C   LIG    1       -1.342  -2.578  -3.055  0.00  0.00    +0.040 C 
ATOM     25  C   LIG    1       -0.897  -4.372  -4.736  0.00  0.00    +0.050 C 
ATOM     26  C   LIG    1       -1.593  -4.980  -2.414  0.00  0.00    +0.040 C 
ENDBRANCH  19  23
ENDBRANCH   3  18
TORSDOF 4
