REMARK  Name = ZINCvU00000007rO.0
REMARK                            x       y       z     vdW  Elec       q    Type
REMARK                         _______ _______ _______ _____ _____    ______ ____
ROOT
ATOM      1  C   LIG    1       -3.306   5.139  -3.291  0.00  0.00    +0.320 A 
ATOM      2  N   LIG    1       -3.461   5.399  -2.008  0.00  0.00    -0.490 NA
ATOM      3  C   LIG    1       -3.396   4.269  -1.309  0.00  0.00    +0.230 A 
ATOM      4  N   LIG    1       -3.209   3.264  -2.125  0.00  0.00    -0.290 NA
ATOM      5  N   LIG    1       -3.145   3.794  -3.424  0.00  0.00    -0.320 N 
ENDROOT
BRANCH   5   6
ATOM      6  C   LIG    1       -2.955   3.082  -4.616  0.00  0.00    +0.100 A 
ATOM      7  C   LIG    1       -3.614   1.878  -4.822  0.00  0.00    +0.080 A 
ATOM      8  C   LIG    1       -3.429   1.176  -5.995  0.00  0.00    +0.020 A 
ATOM      9  C   LIG    1       -2.571   1.663  -6.978  0.00  0.00    +0.120 A 
ATOM     10  O   LIG    1       -2.236   1.129  -8.185  0.00  0.00    -0.300 OA
ATOM     11  C   LIG    1       -1.682   2.158  -9.022  0.00  0.00    +0.240 C 
ATOM     12  C   LIG    1       -1.077   3.146  -7.996  0.00  0.00    +0.090 C 
ATOM     13  C   LIG    1       -1.916   2.869  -6.763  0.00  0.00    -0.150 A 
ATOM     14  C   LIG    1       -2.101   3.574  -5.595  0.00  0.00    +0.070 A 
ENDBRANCH   5   6
BRANCH   1  22
ATOM     15  C   LIG    1       -2.541   7.293  -4.290  0.00  0.00    +0.160 A 
ATOM     16  C   LIG    1       -2.553   8.216  -5.325  0.00  0.00    -0.050 A 
ATOM     17  C   LIG    1       -3.325   7.987  -6.449  0.00  0.00    +0.090 A 
ATOM     18  C   LIG    1       -4.090   6.836  -6.550  0.00  0.00    -0.030 A 
ATOM     19  C   LIG    1       -4.084   5.906  -5.530  0.00  0.00    +0.090 A 
ATOM     20 CL   LIG    1       -5.054   6.560  -7.966  0.00  0.00    -0.040 Cl
ATOM     21 CL   LIG    1       -1.598   9.661  -5.209  0.00  0.00    -0.030 Cl
ATOM     22  C   LIG    1       -3.313   6.129  -4.389  0.00  0.00    -0.030 A 
BRANCH  15  24
ATOM     23  C   LIG    1       -0.442   7.021  -3.208  0.00  0.00    +0.230 C 
ATOM     24  O   LIG    1       -1.782   7.517  -3.186  0.00  0.00    -0.310 OA
ENDBRANCH  15  24
ENDBRANCH   1  22
BRANCH   3  25
ATOM     25  C   LIG    1       -3.526   4.163   0.189  0.00  0.00    +0.230 C 
BRANCH  25  26
ATOM     26  C   LIG    1       -2.163   4.283   0.821  0.00  0.00    -0.040 A 
ATOM     27  C   LIG    1       -1.381   3.159   1.041  0.00  0.00    -0.020 A 
ATOM     28  C   LIG    1       -0.138   3.308   1.627  0.00  0.00    +0.260 A 
ATOM     29  N   LIG    1        0.309   4.501   1.965  0.00  0.00    -0.480 NA
ATOM     30  C   LIG    1       -0.405   5.592   1.766  0.00  0.00    +0.260 A 
ATOM     31  C   LIG    1       -1.659   5.521   1.190  0.00  0.00    -0.010 A 
ENDBRANCH  25  26
ENDBRANCH   3  25
TORSDOF 5
