REMARK  Name = ZINC660000002sDM.0
REMARK                            x       y       z     vdW  Elec       q    Type
REMARK                         _______ _______ _______ _____ _____    ______ ____
ROOT
ATOM      1  C   LIG    1       -0.013   1.086   0.008  0.00  0.00    +0.180 C 
ATOM      2  C   LIG    1       -0.718   1.572   1.248  0.00  0.00    +0.410 C 
ATOM      3  N   LIG    1       -1.190   0.721   2.099  0.00  0.00    -0.720 NA
ATOM      4  H   LIG    1       -1.644   1.034   2.897  0.00  0.00    +0.340 HD
ENDROOT
BRANCH   2   5
ATOM      5  N   LIG    1       -0.860   2.921   1.474  0.00  0.00    -0.630 N 
ATOM      6  H   LIG    1       -0.506   3.559   0.836  0.00  0.00    +0.430 HD
BRANCH   5   7
ATOM      7  C   LIG    1       -1.494   3.357   2.589  0.00  0.00    +0.390 C 
ATOM      8  N   LIG    1       -2.026   3.724   3.523  0.00  0.00    -0.400 NA
ENDBRANCH   5   7
ENDBRANCH   2   5
TORSDOF 2
