REMARK  Name = ZINCpe000027pHoO.0
REMARK                            x       y       z     vdW  Elec       q    Type
REMARK                         _______ _______ _______ _____ _____    ______ ____
ROOT
ATOM      1  C   LIG    1       -0.992   2.750  -0.575  0.00  0.00    +0.520 C 
ATOM      2  N   LIG    1       -0.145   1.765  -0.217  0.00  0.00    -0.610 N 
ATOM      3  O   LIG    1       -2.180   2.525  -0.667  0.00  0.00    -0.510 OA
ENDROOT
BRANCH   1   4
ATOM      4  C   LIG    1       -0.462   4.131  -0.863  0.00  0.00    +0.140 C 
BRANCH   4   8
ATOM      5  O   LIG    1       -3.953   7.322  -0.293  0.00  0.00    -0.510 OA
ATOM      6  C   LIG    1       -3.316   6.600  -1.038  0.00  0.00    +0.550 A 
ATOM      7  C   LIG    1       -2.273   5.789  -0.529  0.00  0.00    -0.110 A 
ATOM      8  C   LIG    1       -1.580   5.001  -1.378  0.00  0.00    +0.220 A 
ATOM      9  N   LIG    1       -1.900   4.991  -2.709  0.00  0.00    -0.630 N 
ATOM     10  H   LIG    1       -1.404   4.422  -3.318  0.00  0.00    +0.430 HD
ATOM     11  C   LIG    1       -2.897   5.762  -3.179  0.00  0.00    +0.700 A 
ATOM     12  O   LIG    1       -3.165   5.738  -4.365  0.00  0.00    -0.540 OA
ATOM     13  N   LIG    1       -3.601   6.561  -2.356  0.00  0.00    -0.660 N 
ATOM     14  H   LIG    1       -4.316   7.112  -2.712  0.00  0.00    +0.430 HD
ENDBRANCH   4   8
ENDBRANCH   1   4
BRANCH   2  15
ATOM     15  C   LIG    1        1.283   2.050  -0.051  0.00  0.00    +0.280 C 
BRANCH  15  16
ATOM     16  C   LIG    1        2.054   1.515  -1.259  0.00  0.00    -0.050 C 
ATOM     17  C   LIG    1        3.513   2.034  -1.243  0.00  0.00    +0.020 C 
ATOM     18  C   LIG    1        3.759   2.354  -2.740  0.00  0.00    +0.210 C 
ATOM     19  O   LIG    1        2.490   2.877  -3.186  0.00  0.00    -0.380 OA
ATOM     20  C   LIG    1        1.466   2.080  -2.567  0.00  0.00    +0.180 C 
ENDBRANCH  15  16
ENDBRANCH   2  15
BRANCH   2  21
ATOM     21  C   LIG    1       -0.650   0.407   0.001  0.00  0.00    +0.290 C 
BRANCH  21  22
ATOM     22  C   LIG    1       -1.050   0.241   1.468  0.00  0.00    -0.020 C 
ATOM     23  C   LIG    1        0.192   0.355   2.355  0.00  0.00    +0.060 C 
ATOM     24  C   LIG    1       -0.135  -0.066   3.758  0.00  0.00    -0.060 C 
ATOM     25  C   LIG    1       -1.182  -0.753   4.084  0.00  0.00    -0.050 C 
ATOM     26  C   LIG    1       -2.221  -1.217   3.106  0.00  0.00    +0.050 C 
ATOM     27  C   LIG    1       -1.671  -1.146   1.679  0.00  0.00    +0.030 C 
ENDBRANCH  21  22
ENDBRANCH   2  21
TORSDOF 6
