REMARK  Name = ZINCrD000000AL5Q.0
REMARK                            x       y       z     vdW  Elec       q    Type
REMARK                         _______ _______ _______ _____ _____    ______ ____
ROOT
ATOM      1  C   LIG    1        1.179   0.013   3.884  0.00  0.00    -0.060 A 
ATOM      2  C   LIG    1        0.869   0.773   2.766  0.00  0.00    +0.010 A 
ATOM      3  C   LIG    1       -0.461   0.844   2.328  0.00  0.00    +0.330 A 
ATOM      4  N   LIG    1       -1.436   0.205   2.935  0.00  0.00    -0.500 NA
ATOM      5  C   LIG    1       -1.229  -0.553   4.016  0.00  0.00    +0.150 A 
ATOM      6  C   LIG    1       -2.291  -1.225   4.646  0.00  0.00    +0.040 A 
ATOM      7  C   LIG    1       -2.049  -1.989   5.747  0.00  0.00    +0.040 A 
ATOM      8  C   LIG    1       -0.762  -2.119   6.262  0.00  0.00    +0.010 A 
ATOM      9  C   LIG    1        0.292  -1.482   5.677  0.00  0.00    +0.070 A 
ATOM     10  C   LIG    1        0.078  -0.689   4.545  0.00  0.00    -0.080 A 
ENDROOT
BRANCH   3  11
ATOM     11  N   LIG    1       -0.758   1.610   1.211  0.00  0.00    -0.460 N 
ATOM     12  C   LIG    1       -0.014   1.126   0.020  0.00  0.00    +0.190 C 
ATOM     13  C   LIG    1       -0.808   1.671  -1.187  0.00  0.00    +0.040 C 
ATOM     14  C   LIG    1       -2.239   1.896  -0.656  0.00  0.00    +0.000 C 
ATOM     15  C   LIG    1       -2.189   1.468   0.827  0.00  0.00    +0.210 C 
BRANCH  14  16
ATOM     16  C   LIG    1       -3.235   1.029  -1.428  0.00  0.00    -0.010 C 
ATOM     17  C   LIG    1       -3.220   1.425  -2.908  0.00  0.00    +0.000 C 
ATOM     18  C   LIG    1       -4.277   0.609  -3.657  0.00  0.00    +0.200 C 
ATOM     19  O   LIG    1       -5.558   0.829  -3.064  0.00  0.00    -0.380 OA
ATOM     20  C   LIG    1       -5.644   0.431  -1.695  0.00  0.00    +0.200 C 
ATOM     21  C   LIG    1       -4.644   1.242  -0.866  0.00  0.00    +0.000 C 
ENDBRANCH  14  16
ENDBRANCH   3  11
BRANCH   1  23
ATOM     22  O   LIG    1        2.797  -0.673   5.425  0.00  0.00    -0.520 OA
ATOM     23  C   LIG    1        2.567  -0.087   4.385  0.00  0.00    +0.570 C 
ATOM     24  N   LIG    1        3.577   0.472   3.689  0.00  0.00    -0.690 N 
ATOM     25  H   LIG    1        3.394   0.939   2.860  0.00  0.00    +0.400 HD
BRANCH  24  26
ATOM     26  C   LIG    1        4.952   0.372   4.186  0.00  0.00    +0.210 C 
ATOM     27  C   LIG    1        5.818   1.632   4.122  0.00  0.00    +0.020 C 
ATOM     28  C   LIG    1        6.082   0.472   3.160  0.00  0.00    +0.020 C 
ENDBRANCH  24  26
ENDBRANCH   1  23
TORSDOF 4
