REMARK  Name = ZINCrD000000fRfM.0
REMARK                            x       y       z     vdW  Elec       q    Type
REMARK                         _______ _______ _______ _____ _____    ______ ____
ROOT
ATOM      1  C   LIG    1        4.268  -2.456   0.565  0.00  0.00    +0.510 C 
ATOM      2  N   LIG    1        3.114  -1.814   0.833  0.00  0.00    -0.660 N 
ATOM      3  H   LIG    1        3.099  -0.846   0.890  0.00  0.00    +0.420 HD
ATOM      4  O   LIG    1        4.274  -3.660   0.425  0.00  0.00    -0.490 OA
ENDROOT
BRANCH   2   5
ATOM      5  C   LIG    1        1.934  -2.545   1.028  0.00  0.00    +0.150 A 
ATOM      6  C   LIG    1        1.792  -3.800   0.456  0.00  0.00    +0.060 A 
ATOM      7  C   LIG    1        0.624  -4.517   0.645  0.00  0.00    -0.030 A 
ATOM      8  C   LIG    1       -0.401  -3.989   1.409  0.00  0.00    +0.040 A 
ATOM      9  C   LIG    1       -0.264  -2.740   1.987  0.00  0.00    +0.010 A 
ATOM     10 CL   LIG    1        0.445  -6.085  -0.078  0.00  0.00    -0.060 Cl
ATOM     11  C   LIG    1        0.903  -2.015   1.802  0.00  0.00    +0.080 A 
BRANCH  11  12
ATOM     12  N   LIG    1        1.043  -0.751   2.387  0.00  0.00    -0.490 N 
ATOM     13  C   LIG    1        2.098  -0.758   3.411  0.00  0.00    +0.160 C 
ATOM     14  C   LIG    1        2.258   0.654   3.981  0.00  0.00    +0.220 C 
ATOM     15  O   LIG    1        1.002   1.098   4.501  0.00  0.00    -0.380 OA
ATOM     16  C   LIG    1       -0.048   1.118   3.530  0.00  0.00    +0.230 C 
ATOM     17  C   LIG    1       -0.232  -0.289   2.956  0.00  0.00    +0.170 C 
ENDBRANCH  11  12
ENDBRANCH   2   5
BRANCH   1  18
ATOM     18  C   LIG    1        5.552  -1.677   0.441  0.00  0.00    +0.240 C 
BRANCH  18  19
ATOM     19  O   LIG    1        6.628  -2.574   0.157  0.00  0.00    -0.290 OA
BRANCH  19  24
ATOM     20  C   LIG    1       10.221  -2.275  -0.410  0.00  0.00    -0.130 A 
ATOM     21  C   LIG    1       10.383  -0.892  -0.277  0.00  0.00    +0.030 A 
ATOM     22  C   LIG    1        9.292  -0.094  -0.002  0.00  0.00    +0.050 A 
ATOM     23  C   LIG    1        8.036  -0.656   0.138  0.00  0.00    -0.050 A 
ATOM     24  C   LIG    1        7.865  -2.028   0.013  0.00  0.00    +0.120 A 
ATOM     25  C   LIG    1        8.951  -2.841  -0.262  0.00  0.00    +0.050 A 
BRANCH  20  27
ATOM     26  C   LIG    1       12.749  -2.518  -0.861  0.00  0.00    +0.090 C 
ATOM     27  C   LIG    1       11.382  -3.131  -0.703  0.00  0.00    +0.390 C 
ATOM     28  O   LIG    1       11.238  -4.329  -0.817  0.00  0.00    -0.450 OA
ENDBRANCH  20  27
ENDBRANCH  19  24
ENDBRANCH  18  19
ENDBRANCH   1  18
TORSDOF 6
