REMARK  Name = ZINCqH00000040wE.0
REMARK                            x       y       z     vdW  Elec       q    Type
REMARK                         _______ _______ _______ _____ _____    ______ ____
ROOT
ATOM      1  N   LIG    1        3.326   4.215  -3.094  0.00  0.00    -0.650 N 
ATOM      2  H   LIG    1        4.009   4.791  -2.716  0.00  0.00    +0.410 HD
ATOM      3  C   LIG    1        2.338   3.738  -2.312  0.00  0.00    +0.720 C 
ATOM      4  N   LIG    1        2.298   4.061  -1.004  0.00  0.00    -0.610 N 
ATOM      5  O   LIG    1        1.482   3.016  -2.786  0.00  0.00    -0.560 OA
ENDROOT
BRANCH   4   6
ATOM      6  C   LIG    1        1.224   3.541  -0.154  0.00  0.00    +0.320 C 
ATOM      7  C   LIG    1        1.828   2.661   0.938  0.00  0.00    +0.010 C 
ATOM      8  C   LIG    1        0.723   2.305   1.940  0.00  0.00    +0.020 C 
ATOM      9  C   LIG    1        0.349   3.567   2.714  0.00  0.00    +0.080 C 
ATOM     10  C   LIG    1        0.058   4.702   1.767  0.00  0.00    -0.070 A 
ATOM     11  C   LIG    1       -0.648   5.792   2.261  0.00  0.00    +0.000 A 
ATOM     12  C   LIG    1       -0.935   6.868   1.448  0.00  0.00    +0.010 A 
ATOM     13  C   LIG    1       -0.518   6.863   0.130  0.00  0.00    +0.000 A 
ATOM     14  C   LIG    1        0.181   5.781  -0.363  0.00  0.00    +0.020 A 
ATOM     15  C   LIG    1        0.469   4.695   0.453  0.00  0.00    -0.100 A 
ENDBRANCH   4   6
BRANCH   1  20
ATOM     16  N   LIG    1        4.293   4.292  -5.344  0.00  0.00    -0.380 N 
ATOM     17  N   LIG    1        3.970   3.728  -6.585  0.00  0.00    -0.290 NA
ATOM     18  C   LIG    1        2.885   3.012  -6.443  0.00  0.00    +0.240 A 
ATOM     19  C   LIG    1        2.480   3.088  -5.108  0.00  0.00    -0.120 A 
ATOM     20  C   LIG    1        3.368   3.881  -4.448  0.00  0.00    +0.330 A 
BRANCH  16  21
ATOM     21  C   LIG    1        5.434   5.168  -5.066  0.00  0.00    +0.250 C 
ATOM     22  C   LIG    1        5.332   6.428  -5.927  0.00  0.00    +0.050 C 
BRANCH  21  24
ATOM     23  C   LIG    1        7.928   5.297  -4.985  0.00  0.00    +0.030 C 
ATOM     24  C   LIG    1        6.735   4.431  -5.392  0.00  0.00    +0.020 C 
ENDBRANCH  21  24
ENDBRANCH  16  21
ENDBRANCH   1  20
BRANCH   4  25
ATOM     25  C   LIG    1        3.329   4.931  -0.432  0.00  0.00    +0.290 C 
BRANCH  25  26
ATOM     26  C   LIG    1        4.554   4.093  -0.059  0.00  0.00    +0.170 C 
BRANCH  26  27
ATOM     27  O   LIG    1        5.143   3.555  -1.245  0.00  0.00    -0.570 OA
ATOM     28  H   LIG    1        5.926   3.012  -1.083  0.00  0.00    +0.390 HD
ENDBRANCH  26  27
ENDBRANCH  25  26
ENDBRANCH   4  25
TORSDOF 7
