REMARK  Name = ZINCpe00000gN4M8.0
REMARK                            x       y       z     vdW  Elec       q    Type
REMARK                         _______ _______ _______ _____ _____    ______ ____
ROOT
ATOM      1  C   LIG    1        0.890   9.883  -1.099  0.00  0.00    -0.190 A 
ATOM      2  C   LIG    1        1.125  10.460   0.132  0.00  0.00    +0.430 A 
ATOM      3  N   LIG    1        0.865   9.748   1.262  0.00  0.00    -0.490 N 
ATOM      4  C   LIG    1        0.380   8.498   1.206  0.00  0.00    +0.700 A 
ATOM      5  N   LIG    1        0.136   7.878   0.039  0.00  0.00    -0.540 N 
ATOM      6  O   LIG    1        0.160   7.905   2.244  0.00  0.00    -0.520 OA
ATOM      7  C   LIG    1        0.364   8.509  -1.132  0.00  0.00    +0.570 A 
ATOM      8  O   LIG    1        0.140   7.954  -2.192  0.00  0.00    -0.480 OA
ENDROOT
BRANCH   3   9
ATOM      9  C   LIG    1        1.115  10.362   2.568  0.00  0.00    +0.220 C 
ATOM     10  C   LIG    1        1.464  11.851   2.594  0.00  0.00    +0.060 C 
ATOM     11  C   LIG    1        2.545  10.806   2.879  0.00  0.00    +0.060 C 
ENDBRANCH   3   9
BRANCH   1  13
ATOM     12  N   LIG    1        1.359  11.170  -3.272  0.00  0.00    -0.400 NA
ATOM     13  C   LIG    1        1.152  10.601  -2.311  0.00  0.00    +0.280 C 
ENDBRANCH   1  13
BRANCH   5  14
ATOM     14  C   LIG    1       -0.389   6.510   0.038  0.00  0.00    +0.350 C 
BRANCH  14  15
ATOM     15  C   LIG    1        0.758   5.532   0.022  0.00  0.00    +0.390 C 
ATOM     16  O   LIG    1        1.901   5.939   0.013  0.00  0.00    -0.440 OA
BRANCH  15  17
ATOM     17  C   LIG    1        0.492   4.088   0.018  0.00  0.00    -0.160 A 
ATOM     18  C   LIG    1       -0.826   3.617   0.028  0.00  0.00    +0.090 A 
ATOM     19  C   LIG    1       -1.072   2.262   0.019  0.00  0.00    +0.040 A 
ATOM     20  C   LIG    1       -0.016   1.359   0.009  0.00  0.00    +0.070 A 
ATOM     21  O   LIG    1        0.002  -0.004   0.002  0.00  0.00    -0.300 OA
ATOM     22  C   LIG    1        1.335  -0.374   0.401  0.00  0.00    +0.440 C 
ATOM     23  O   LIG    1        2.140   0.745  -0.014  0.00  0.00    -0.300 OA
ATOM     24  C   LIG    1        1.301   1.822  -0.001  0.00  0.00    +0.020 A 
ATOM     25  C   LIG    1        1.557   3.178   0.004  0.00  0.00    +0.110 A 
ENDBRANCH  15  17
ENDBRANCH  14  15
ENDBRANCH   5  14
TORSDOF 5
