REMARK  Name = ZINCvU0000000J4F.0
REMARK                            x       y       z     vdW  Elec       q    Type
REMARK                         _______ _______ _______ _____ _____    ______ ____
ROOT
ATOM      1  N   LIG    1       -1.399   3.200   0.966  0.00  0.00    -0.720 N 
ATOM      2  H   LIG    1       -0.585   3.723   1.036  0.00  0.00    +0.400 HD
ATOM      3  C   LIG    1       -1.339   1.907   0.588  0.00  0.00    +0.550 C 
ATOM      4  O   LIG    1       -2.360   1.252   0.500  0.00  0.00    -0.510 OA
ENDROOT
BRANCH   3   5
ATOM      5  C   LIG    1       -0.034   1.287   0.282  0.00  0.00    -0.140 A 
ATOM      6  C   LIG    1        0.054  -0.081   0.049  0.00  0.00    -0.060 A 
ATOM      7  C   LIG    1        1.319  -0.619  -0.244  0.00  0.00    -0.070 A 
ATOM      8  C   LIG    1        1.486  -1.992  -0.491  0.00  0.00    +0.050 A 
ATOM      9  C   LIG    1        2.727  -2.479  -0.772  0.00  0.00    +0.040 A 
ATOM     10  C   LIG    1        3.832  -1.633  -0.817  0.00  0.00    +0.050 A 
ATOM     11  C   LIG    1        3.706  -0.297  -0.583  0.00  0.00    +0.060 A 
ATOM     12  C   LIG    1        2.443   0.244  -0.290  0.00  0.00    +0.140 A 
ATOM     13  N   LIG    1        2.296   1.553  -0.057  0.00  0.00    -0.440 NA
ATOM     14  C   LIG    1        1.128   2.076   0.218  0.00  0.00    +0.320 A 
BRANCH   6  15
ATOM     15  C   LIG    1       -1.169  -0.959   0.108  0.00  0.00    +0.520 C 
ATOM     16  F   LIG    1       -1.957  -0.588   1.203  0.00  0.00    -0.150 F 
ATOM     17  F   LIG    1       -0.778  -2.295   0.246  0.00  0.00    -0.170 F 
ATOM     18  F   LIG    1       -1.908  -0.809  -1.070  0.00  0.00    -0.160 F 
ENDBRANCH   6  15
ENDBRANCH   3   5
BRANCH   1  19
ATOM     19  C   LIG    1       -2.693   3.815   1.270  0.00  0.00    +0.280 C 
BRANCH  19  20
ATOM     20  C   LIG    1       -2.482   5.277   1.669  0.00  0.00    +0.070 C 
BRANCH  20  24
ATOM     21  C   LIG    1       -6.258   7.074   2.556  0.00  0.00    -0.020 A 
ATOM     22  C   LIG    1       -5.528   6.448   3.564  0.00  0.00    +0.050 A 
ATOM     23  C   LIG    1       -4.309   5.870   3.272  0.00  0.00    +0.020 A 
ATOM     24  C   LIG    1       -3.813   5.910   1.982  0.00  0.00    -0.080 A 
ATOM     25  C   LIG    1       -4.532   6.535   0.978  0.00  0.00    +0.020 A 
ATOM     26  C   LIG    1       -5.754   7.112   1.258  0.00  0.00    +0.030 A 
BRANCH  21  30
ATOM     27  C   LIG    1      -10.004   8.369   5.516  0.00  0.00    +0.180 C 
ATOM     28  C   LIG    1       -9.245   8.271   4.218  0.00  0.00    +0.050 A 
ATOM     29  N   LIG    1       -8.103   7.691   4.077  0.00  0.00    -0.470 NA
ATOM     30  C   LIG    1       -7.568   7.699   2.864  0.00  0.00    +0.110 A 
ATOM     31  C   LIG    1       -8.322   8.319   1.934  0.00  0.00    -0.080 A 
ATOM     32  S   LIG    1       -9.782   8.908   2.726  0.00  0.00    +0.130 S 
ENDBRANCH  21  30
ENDBRANCH  20  24
ENDBRANCH  19  20
ENDBRANCH   1  19
TORSDOF 6
