REMARK  Name = ZINCrH000004v786.0
REMARK                            x       y       z     vdW  Elec       q    Type
REMARK                         _______ _______ _______ _____ _____    ______ ____
ROOT
ATOM      1  O   LIG    1        3.692   5.753  -0.205  0.00  0.00    -0.510 OA
ATOM      2  C   LIG    1        4.745   5.163  -0.360  0.00  0.00    +0.590 C 
ATOM      3  N   LIG    1        4.748   3.828  -0.544  0.00  0.00    -0.670 N 
ATOM      4  H   LIG    1        5.589   3.346  -0.590  0.00  0.00    +0.400 HD
ENDROOT
BRANCH   3   5
ATOM      5  C   LIG    1        3.537   3.135  -0.671  0.00  0.00    +0.080 A 
ATOM      6  C   LIG    1        3.466   2.001  -1.468  0.00  0.00    +0.030 A 
ATOM      7  C   LIG    1        2.272   1.318  -1.593  0.00  0.00    -0.060 A 
ATOM      8  C   LIG    1        1.142   1.766  -0.921  0.00  0.00    +0.210 A 
ATOM      9  C   LIG    1        1.213   2.904  -0.127  0.00  0.00    -0.060 A 
ATOM     10  C   LIG    1        2.408   3.583   0.002  0.00  0.00    +0.070 A 
BRANCH   8  11
ATOM     11  N   LIG    1       -0.067   1.075  -1.047  0.00  0.00    -0.740 N 
ATOM     12  H   LIG    1       -0.117   0.283  -1.605  0.00  0.00    +0.400 HD
BRANCH  11  13
ATOM     13  C   LIG    1       -1.260   1.552  -0.343  0.00  0.00    +0.230 C 
ATOM     14  C   LIG    1       -1.275   0.986   1.081  0.00  0.00    -0.010 C 
ATOM     15  C   LIG    1       -2.562   1.424   1.783  0.00  0.00    +0.210 C 
ATOM     16  O   LIG    1       -3.691   0.977   1.028  0.00  0.00    -0.380 OA
ATOM     17  C   LIG    1       -3.755   1.512  -0.296  0.00  0.00    +0.210 C 
ATOM     18  C   LIG    1       -2.515   1.077  -1.081  0.00  0.00    +0.000 C 
ENDBRANCH  11  13
ENDBRANCH   8  11
ENDBRANCH   3   5
BRANCH   2  19
ATOM     19  C   LIG    1        6.011   5.904  -0.346  0.00  0.00    -0.090 A 
ATOM     20  C   LIG    1        6.165   7.262  -0.310  0.00  0.00    +0.270 A 
ATOM     21  N   LIG    1        7.472   7.524  -0.309  0.00  0.00    -0.490 NA
ATOM     22  C   LIG    1        8.148   6.404  -0.342  0.00  0.00    +0.450 A 
ATOM     23  N   LIG    1        7.286   5.369  -0.360  0.00  0.00    -0.400 N 
BRANCH  23  24
ATOM     24  C   LIG    1        7.618   4.008  -0.390  0.00  0.00    +0.090 A 
ATOM     25  C   LIG    1        7.215   3.170   0.641  0.00  0.00    +0.010 A 
ATOM     26  C   LIG    1        7.539   1.828   0.605  0.00  0.00    +0.040 A 
ATOM     27  C   LIG    1        8.274   1.321  -0.450  0.00  0.00    +0.040 A 
ATOM     28  C   LIG    1        8.683   2.153  -1.476  0.00  0.00    +0.040 A 
ATOM     29  C   LIG    1        8.357   3.495  -1.449  0.00  0.00    +0.040 A 
ENDBRANCH  23  24
ENDBRANCH   2  19
TORSDOF 5
