REMARK  Name = ZINCzw0000000byt.0
REMARK                            x       y       z     vdW  Elec       q    Type
REMARK                         _______ _______ _______ _____ _____    ______ ____
ROOT
ATOM      1  N   LIG    1        2.080  -2.330  -0.176  0.00  0.00    -0.570 N 
ATOM      2  C   LIG    1        2.864  -1.271  -0.450  0.00  0.00    +0.580 C 
ATOM      3  C   LIG    1        2.019  -0.061  -0.494  0.00  0.00    -0.140 A 
ATOM      4  C   LIG    1        2.265   1.281  -0.726  0.00  0.00    +0.160 A 
ATOM      5  C   LIG    1        1.219   2.193  -0.697  0.00  0.00    +0.050 A 
ATOM      6  C   LIG    1       -0.070   1.774  -0.437  0.00  0.00    +0.090 A 
ATOM      7  C   LIG    1       -0.340   0.421  -0.200  0.00  0.00    +0.130 A 
ATOM      8  F   LIG    1       -1.078   2.674  -0.417  0.00  0.00    -0.120 F 
ATOM      9  C   LIG    1        0.703  -0.501  -0.228  0.00  0.00    -0.080 A 
ATOM     10  O   LIG    1        4.065  -1.305  -0.630  0.00  0.00    -0.430 OA
ATOM     11  C   LIG    1        0.796  -1.957  -0.032  0.00  0.00    +0.570 C 
ATOM     12  O   LIG    1       -0.133  -2.699   0.219  0.00  0.00    -0.430 OA
ENDROOT
BRANCH   1  17
ATOM     13  O   LIG    1        1.000  -4.813   3.533  0.00  0.00    -0.490 OA
ATOM     14  C   LIG    1        1.464  -4.480   2.464  0.00  0.00    +0.520 C 
ATOM     15  C   LIG    1        2.641  -3.540   2.431  0.00  0.00    +0.090 C 
ATOM     16  C   LIG    1        3.474  -3.821   1.176  0.00  0.00    +0.070 C 
ATOM     17  C   LIG    1        2.562  -3.707  -0.050  0.00  0.00    +0.270 C 
ATOM     18  C   LIG    1        1.390  -4.638   0.117  0.00  0.00    +0.540 C 
ATOM     19  O   LIG    1        0.860  -5.109  -0.866  0.00  0.00    -0.480 OA
ATOM     20  N   LIG    1        0.921  -4.955   1.333  0.00  0.00    -0.660 N 
ATOM     21  H   LIG    1        0.159  -5.551   1.397  0.00  0.00    +0.420 HD
ENDBRANCH   1  17
BRANCH   7  22
ATOM     22  N   LIG    1       -1.637   0.001   0.060  0.00  0.00    -0.620 N 
ATOM     23  H   LIG    1       -1.981   0.402   0.920  0.00  0.00    +0.370 HD
BRANCH  22  24
ATOM     24  C   LIG    1       -2.529   0.320  -1.062  0.00  0.00    +0.210 C 
BRANCH  24  25
ATOM     25  C   LIG    1       -3.913  -0.275  -0.799  0.00  0.00    +0.170 C 
ATOM     26  C   LIG    1       -3.811  -1.802  -0.757  0.00  0.00    +0.080 C 
ATOM     27  C   LIG    1       -3.282  -2.310  -2.101  0.00  0.00    +0.040 C 
ATOM     28  C   LIG    1       -4.206  -1.821  -3.220  0.00  0.00    +0.060 C 
ATOM     29  C   LIG    1       -4.294  -0.294  -3.171  0.00  0.00    +0.230 C 
ATOM     30  N   LIG    1       -4.830   0.128  -1.872  0.00  0.00    -0.380 N 
ATOM     31  H   LIG    1       -5.730  -0.305  -1.724  0.00  0.00    +0.430 HD
BRANCH  30  32
ATOM     32  C   LIG    1       -4.985   1.588  -1.859  0.00  0.00    +0.310 C 
BRANCH  32  33
ATOM     33  C   LIG    1       -6.040   1.991  -2.857  0.00  0.00    -0.160 A 
ATOM     34  C   LIG    1       -5.684   2.277  -4.161  0.00  0.00    +0.030 A 
ATOM     35  C   LIG    1       -6.652   2.642  -5.078  0.00  0.00    +0.030 A 
ATOM     36  C   LIG    1       -7.976   2.730  -4.688  0.00  0.00    +0.060 A 
ATOM     37  C   LIG    1       -8.331   2.448  -3.382  0.00  0.00    +0.030 A 
ATOM     38  C   LIG    1       -7.364   2.079  -2.466  0.00  0.00    +0.040 A 
ENDBRANCH  32  33
ENDBRANCH  30  32
ENDBRANCH  24  25
ENDBRANCH  22  24
ENDBRANCH   7  22
TORSDOF 6
