REMARK  Name = ZINCzw0000000byt.1
REMARK                            x       y       z     vdW  Elec       q    Type
REMARK                         _______ _______ _______ _____ _____    ______ ____
ROOT
ATOM      1  N   LIG    1       -4.273   6.349  -1.775  0.00  0.00    -0.570 N 
ATOM      2  C   LIG    1       -4.377   6.219  -3.110  0.00  0.00    +0.580 C 
ATOM      3  C   LIG    1       -3.272   5.363  -3.585  0.00  0.00    -0.110 A 
ATOM      4  C   LIG    1       -2.878   4.894  -4.827  0.00  0.00    +0.140 A 
ATOM      5  C   LIG    1       -1.758   4.082  -4.938  0.00  0.00    +0.070 A 
ATOM      6  C   LIG    1       -1.028   3.735  -3.819  0.00  0.00    +0.110 A 
ATOM      7  C   LIG    1       -1.411   4.198  -2.554  0.00  0.00    +0.160 A 
ATOM      8  F   LIG    1        0.060   2.944  -3.945  0.00  0.00    -0.120 F 
ATOM      9  C   LIG    1       -2.536   5.008  -2.433  0.00  0.00    -0.170 A 
ATOM     10  O   LIG    1       -5.236   6.721  -3.807  0.00  0.00    -0.430 OA
ATOM     11  C   LIG    1       -3.212   5.668  -1.303  0.00  0.00    +0.580 C 
ATOM     12  O   LIG    1       -2.873   5.604  -0.138  0.00  0.00    -0.460 OA
ENDROOT
BRANCH   1  17
ATOM     13  O   LIG    1       -6.247   4.423   1.897  0.00  0.00    -0.490 OA
ATOM     14  C   LIG    1       -5.930   5.228   1.048  0.00  0.00    +0.520 C 
ATOM     15  C   LIG    1       -6.499   5.099  -0.340  0.00  0.00    +0.090 C 
ATOM     16  C   LIG    1       -6.585   6.488  -0.980  0.00  0.00    +0.070 C 
ATOM     17  C   LIG    1       -5.193   7.129  -0.944  0.00  0.00    +0.270 C 
ATOM     18  C   LIG    1       -4.695   7.148   0.477  0.00  0.00    +0.540 C 
ATOM     19  O   LIG    1       -3.931   8.022   0.828  0.00  0.00    -0.480 OA
ATOM     20  N   LIG    1       -5.080   6.217   1.363  0.00  0.00    -0.660 N 
ATOM     21  H   LIG    1       -4.730   6.260   2.266  0.00  0.00    +0.420 HD
ENDBRANCH   1  17
BRANCH   7  22
ATOM     22  N   LIG    1       -0.676   3.848  -1.429  0.00  0.00    -0.620 N 
ATOM     23  H   LIG    1       -1.110   4.202  -0.590  0.00  0.00    +0.380 HD
BRANCH  22  24
ATOM     24  C   LIG    1        0.713   4.313  -1.542  0.00  0.00    +0.200 C 
BRANCH  24  25
ATOM     25  C   LIG    1        1.489   3.909  -0.287  0.00  0.00    +0.180 C 
ATOM     26  C   LIG    1        0.869   4.591   0.935  0.00  0.00    +0.050 C 
ATOM     27  C   LIG    1        1.647   4.182   2.189  0.00  0.00    +0.050 C 
ATOM     28  C   LIG    1        3.122   4.550   2.005  0.00  0.00    +0.060 C 
ATOM     29  C   LIG    1        3.658   3.871   0.742  0.00  0.00    +0.250 C 
ATOM     30  N   LIG    1        2.890   4.323  -0.424  0.00  0.00    -0.380 N 
ATOM     31  H   LIG    1        2.938   5.329  -0.488  0.00  0.00    +0.420 HD
BRANCH  30  32
ATOM     32  C   LIG    1        3.457   3.729  -1.642  0.00  0.00    +0.320 C 
BRANCH  32  33
ATOM     33  C   LIG    1        4.861   4.241  -1.844  0.00  0.00    -0.160 A 
ATOM     34  C   LIG    1        5.078   5.387  -2.585  0.00  0.00    +0.040 A 
ATOM     35  C   LIG    1        6.365   5.859  -2.766  0.00  0.00    +0.030 A 
ATOM     36  C   LIG    1        7.435   5.179  -2.214  0.00  0.00    +0.060 A 
ATOM     37  C   LIG    1        7.217   4.030  -1.477  0.00  0.00    +0.030 A 
ATOM     38  C   LIG    1        5.930   3.561  -1.292  0.00  0.00    +0.030 A 
ENDBRANCH  32  33
ENDBRANCH  30  32
ENDBRANCH  24  25
ENDBRANCH  22  24
ENDBRANCH   7  22
TORSDOF 6
