REMARK  Name = ZINCrH000004sMMY.0
REMARK                            x       y       z     vdW  Elec       q    Type
REMARK                         _______ _______ _______ _____ _____    ______ ____
ROOT
ATOM      1  C   LIG    1       -2.372   7.008   1.845  0.00  0.00    +0.220 A 
ATOM      2  N   LIG    1       -2.153   6.115   2.775  0.00  0.00    -0.370 NA
ATOM      3  O   LIG    1       -2.185   5.000   2.298  0.00  0.00    +0.100 OA
ATOM      4  C   LIG    1       -2.424   5.071   0.985  0.00  0.00    +0.210 A 
ATOM      5  N   LIG    1       -2.549   6.339   0.683  0.00  0.00    -0.460 NA
ENDROOT
BRANCH   4   6
ATOM      6  C   LIG    1       -2.537   3.909   0.032  0.00  0.00    +0.180 C 
ATOM      7  C   LIG    1       -3.683   2.995   0.458  0.00  0.00    +0.040 C 
ATOM      8  C   LIG    1       -3.587   1.686  -0.337  0.00  0.00    +0.120 C 
ATOM      9  O   LIG    1       -2.375   1.025   0.028  0.00  0.00    -0.300 OA
ATOM     10  C   LIG    1       -1.228   1.753   0.017  0.00  0.00    +0.160 A 
ATOM     11  C   LIG    1       -0.013   1.076   0.008  0.00  0.00    -0.010 A 
ATOM     12  C   LIG    1        1.174   1.780   0.000  0.00  0.00    +0.060 A 
ATOM     13  C   LIG    1        1.157   3.162   0.008  0.00  0.00    -0.020 A 
ATOM     14  C   LIG    1       -0.048   3.838   0.022  0.00  0.00    +0.040 A 
ATOM     15  C   LIG    1       -4.783   0.791  -0.004  0.00  0.00    +0.080 C 
ATOM     16  C   LIG    1       -3.576   1.994  -1.836  0.00  0.00    +0.040 C 
ATOM     17  C   LIG    1       -1.242   3.137   0.027  0.00  0.00    -0.170 A 
ENDBRANCH   4   6
BRANCH   1  25
ATOM     18  C   LIG    1       -1.822  10.720   5.943  0.00  0.00    +0.200 C 
ATOM     19  C   LIG    1       -2.105  11.170   4.532  0.00  0.00    +0.150 A 
ATOM     20  N   LIG    1       -2.246  12.406   4.128  0.00  0.00    -0.240 NA
ATOM     21  N   LIG    1       -2.479  12.438   2.863  0.00  0.00    -0.280 NA
ATOM     22  C   LIG    1       -2.500  11.204   2.386  0.00  0.00    +0.190 A 
ATOM     23  C   LIG    1       -2.707  10.669   1.099  0.00  0.00    +0.100 A 
ATOM     24  C   LIG    1       -2.666   9.324   0.922  0.00  0.00    +0.100 A 
ATOM     25  C   LIG    1       -2.418   8.479   2.030  0.00  0.00    -0.030 A 
ATOM     26  C   LIG    1       -2.226   9.015   3.267  0.00  0.00    +0.290 A 
ATOM     27  N   LIG    1       -2.260  10.364   3.446  0.00  0.00    -0.390 N 
ENDBRANCH   1  25
TORSDOF 2
