REMARK  Name = ZINCqH0000051pSS.0
REMARK                            x       y       z     vdW  Elec       q    Type
REMARK                         _______ _______ _______ _____ _____    ______ ____
ROOT
ATOM      1  O   LIG    1        1.130   2.868   0.007  0.00  0.00    -0.540 OA
ATOM      2  C   LIG    1        1.147   1.655   0.000  0.00  0.00    +0.550 C 
ATOM      3  N   LIG    1       -0.011   0.966   0.007  0.00  0.00    -0.710 N 
ATOM      4  H   LIG    1        0.002  -0.004   0.002  0.00  0.00    +0.400 HD
ENDROOT
BRANCH   2   5
ATOM      5  C   LIG    1        2.462   0.920  -0.017  0.00  0.00    -0.050 C 
ATOM      6  C   LIG    1        3.331   0.998   1.240  0.00  0.00    +0.080 C 
ATOM      7  C   LIG    1        3.741   1.759  -0.022  0.00  0.00    +0.040 C 
BRANCH   7   8
ATOM      8  C   LIG    1        4.917   1.231  -0.802  0.00  0.00    -0.020 A 
ATOM      9  C   LIG    1        5.472   0.009  -0.472  0.00  0.00    +0.020 A 
ATOM     10  C   LIG    1        6.548  -0.478  -1.191  0.00  0.00    +0.070 A 
ATOM     11  C   LIG    1        7.074   0.261  -2.234  0.00  0.00    -0.190 A 
ATOM     12  C   LIG    1        6.522   1.486  -2.560  0.00  0.00    +0.070 A 
ATOM     13  C   LIG    1        5.444   1.970  -1.845  0.00  0.00    +0.030 A 
BRANCH  11  14
ATOM     14  C   LIG    1        8.250  -0.268  -3.015  0.00  0.00    +0.510 C 
ATOM     15  F   LIG    1        8.188   0.207  -4.329  0.00  0.00    -0.180 F 
ATOM     16  F   LIG    1        8.213  -1.667  -3.022  0.00  0.00    -0.180 F 
ATOM     17  F   LIG    1        9.439   0.164  -2.418  0.00  0.00    -0.180 F 
ENDBRANCH  11  14
ENDBRANCH   7   8
ENDBRANCH   2   5
BRANCH   3  18
ATOM     18  CA  LIG    1       -1.290   1.681   0.017  0.00  0.00    +0.300 C 
BRANCH  18  19
ATOM     19  C   LIG    1       -2.360   0.806  -0.583  0.00  0.00    -0.100 A 
ATOM     20  C   LIG    1       -2.383  -0.548  -0.301  0.00  0.00    +0.070 A 
ATOM     21  C   LIG    1       -3.367  -1.350  -0.847  0.00  0.00    -0.010 A 
ATOM     22  C   LIG    1       -4.322  -0.801  -1.685  0.00  0.00    +0.100 A 
ATOM     23  C   LIG    1       -4.295   0.554  -1.970  0.00  0.00    -0.010 A 
ATOM     24  F   LIG    1       -5.282  -1.585  -2.223  0.00  0.00    -0.140 F 
ATOM     25  C   LIG    1       -3.313   1.356  -1.419  0.00  0.00    +0.050 A 
ENDBRANCH  18  19
BRANCH  18  26
ATOM     26  C   LIG    1       -1.667   2.032   1.458  0.00  0.00    +0.190 C 
BRANCH  26  27
ATOM     27  O   LIG    1       -1.900   0.830   2.196  0.00  0.00    -0.570 OA
ATOM     28  H   LIG    1       -2.144   0.977   3.120  0.00  0.00    +0.380 HD
ENDBRANCH  26  27
ENDBRANCH  18  26
ENDBRANCH   3  18
TORSDOF 7
