REMARK  Name = ZINCqH0000000vyI.0
REMARK                            x       y       z     vdW  Elec       q    Type
REMARK                         _______ _______ _______ _____ _____    ______ ____
ROOT
ATOM      1  C   LIG    1       -1.560   7.016  -0.532  0.00  0.00    +0.600 C 
ATOM      2  N   LIG    1       -1.290   5.831   0.049  0.00  0.00    -0.720 N 
ATOM      3  H   LIG    1       -1.999   5.329   0.480  0.00  0.00    +0.400 HD
ATOM      4  O   LIG    1       -0.671   7.647  -1.072  0.00  0.00    -0.510 OA
ENDROOT
BRANCH   1   9
ATOM      5  C   LIG    1       -4.723   8.843  -0.814  0.00  0.00    -0.260 A 
ATOM      6  C   LIG    1       -5.106   7.709  -0.115  0.00  0.00    +0.100 A 
ATOM      7  N   LIG    1       -4.024   6.934   0.056  0.00  0.00    -0.530 N 
ATOM      8  H   LIG    1       -4.014   6.078   0.512  0.00  0.00    +0.420 HD
ATOM      9  C   LIG    1       -2.929   7.547  -0.513  0.00  0.00    -0.060 A 
ATOM     10  C   LIG    1       -6.500   7.397   0.366  0.00  0.00    +0.160 C 
ATOM     11  C   LIG    1       -3.334   8.727  -1.062  0.00  0.00    -0.020 A 
ATOM     12  C   LIG    1       -2.468   9.720  -1.792  0.00  0.00    +0.120 C 
BRANCH   5  14
ATOM     13  C   LIG    1       -6.372   9.866  -2.507  0.00  0.00    +0.080 C 
ATOM     14  C   LIG    1       -5.592   9.952  -1.220  0.00  0.00    +0.440 C 
ATOM     15  O   LIG    1       -5.684  10.939  -0.520  0.00  0.00    -0.450 OA
ENDBRANCH   5  14
ENDBRANCH   1   9
BRANCH   2  16
ATOM     16  C   LIG    1        0.076   5.301   0.031  0.00  0.00    +0.360 C 
BRANCH  16  17
ATOM     17  C   LIG    1        0.033   3.798   0.126  0.00  0.00    +0.110 A 
ATOM     18  C   LIG    1        0.521   3.033  -0.917  0.00  0.00    -0.010 A 
ATOM     19  C   LIG    1        0.482   1.651  -0.817  0.00  0.00    +0.070 A 
ATOM     20  C   LIG    1       -0.059   1.087   0.329  0.00  0.00    -0.030 A 
ATOM     21  C   LIG    1       -0.528   1.916   1.330  0.00  0.00    +0.260 A 
ATOM     22  N   LIG    1       -0.470   3.227   1.203  0.00  0.00    -0.470 NA
ENDBRANCH  16  17
BRANCH  16  23
ATOM     23  C   LIG    1        0.846   5.857   1.201  0.00  0.00    -0.100 A 
ATOM     24  C   LIG    1        0.232   5.992   2.432  0.00  0.00    +0.040 A 
ATOM     25  C   LIG    1        0.939   6.498   3.506  0.00  0.00    -0.010 A 
ATOM     26  C   LIG    1        2.259   6.877   3.347  0.00  0.00    +0.010 A 
ATOM     27  C   LIG    1        2.873   6.746   2.115  0.00  0.00    +0.000 A 
ATOM     28  C   LIG    1        2.166   6.236   1.042  0.00  0.00    +0.020 A 
ENDBRANCH  16  23
ENDBRANCH   2  16
TORSDOF 5
