REMARK  Name = ZINCrH000004uPoF.0
REMARK                            x       y       z     vdW  Elec       q    Type
REMARK                         _______ _______ _______ _____ _____    ______ ____
ROOT
ATOM      1  C   LIG    1        4.416   5.389  -0.504  0.00  0.00    -0.000 A 
ATOM      2  C   LIG    1        4.805   6.604  -0.975  0.00  0.00    +0.090 A 
ATOM      3  C   LIG    1        6.205   6.705  -0.802  0.00  0.00    -0.150 A 
ATOM      4  C   LIG    1        7.142   7.711  -1.094  0.00  0.00    +0.200 A 
ATOM      5  C   LIG    1        8.476   7.505  -0.804  0.00  0.00    -0.120 A 
ATOM      6  C   LIG    1        8.894   6.314  -0.228  0.00  0.00    +0.090 A 
ATOM      7  C   LIG    1        7.988   5.318   0.065  0.00  0.00    -0.060 A 
ATOM      8  C   LIG    1        6.637   5.499  -0.217  0.00  0.00    +0.150 A 
ATOM      9  N   LIG    1        5.527   4.706  -0.043  0.00  0.00    -0.580 N 
ATOM     10  H   LIG    1        5.523   3.815   0.340  0.00  0.00    +0.420 HD
ENDROOT
BRANCH   1  12
ATOM     11  O   LIG    1        2.132   5.568  -0.927  0.00  0.00    -0.520 OA
ATOM     12  C   LIG    1        3.038   4.881  -0.494  0.00  0.00    +0.590 C 
ATOM     13  N   LIG    1        2.776   3.652  -0.005  0.00  0.00    -0.730 N 
ATOM     14  H   LIG    1        3.498   3.104   0.340  0.00  0.00    +0.390 HD
BRANCH  13  15
ATOM     15  C   LIG    1        1.402   3.145   0.006  0.00  0.00    +0.250 C 
ATOM     16  C   LIG    1        0.686   3.639   1.264  0.00  0.00    +0.000 C 
ATOM     17  C   LIG    1       -0.750   3.109   1.275  0.00  0.00    +0.030 C 
ATOM     18  C   LIG    1       -0.729   1.579   1.267  0.00  0.00    -0.020 C 
ATOM     19  C   LIG    1       -0.013   1.086   0.008  0.00  0.00    +0.170 C 
ATOM     20  C   LIG    1        1.423   1.615  -0.003  0.00  0.00    +0.040 C 
BRANCH  19  21
ATOM     21  O   LIG    1       -0.704   1.559  -1.150  0.00  0.00    -0.560 OA
ATOM     22  H   LIG    1       -1.622   1.262  -1.209  0.00  0.00    +0.380 HD
ENDBRANCH  19  21
ENDBRANCH  13  15
ENDBRANCH   1  12
BRANCH   4  23
ATOM     23  O   LIG    1        6.738   8.878  -1.657  0.00  0.00    -0.300 OA
BRANCH  23  24
ATOM     24  C   LIG    1        7.749   9.853  -1.926  0.00  0.00    +0.240 C 
BRANCH  24  25
ATOM     25  C   LIG    1        7.118  11.072  -2.547  0.00  0.00    -0.100 A 
ATOM     26  C   LIG    1        6.997  11.165  -3.921  0.00  0.00    +0.030 A 
ATOM     27  C   LIG    1        6.414  12.281  -4.490  0.00  0.00    +0.010 A 
ATOM     28  C   LIG    1        5.961  13.310  -3.685  0.00  0.00    +0.010 A 
ATOM     29  C   LIG    1        6.086  13.220  -2.312  0.00  0.00    +0.010 A 
ATOM     30  C   LIG    1        6.665  12.101  -1.742  0.00  0.00    +0.030 A 
ENDBRANCH  24  25
ENDBRANCH  23  24
ENDBRANCH   4  23
TORSDOF 6
