REMARK  Name = ZINCqH0000008lRE.0
REMARK                            x       y       z     vdW  Elec       q    Type
REMARK                         _______ _______ _______ _____ _____    ______ ____
ROOT
ATOM      1  N   LIG    1        2.396  -0.100  -0.916  0.00  0.00    -0.720 N 
ATOM      2  H   LIG    1        1.533  -0.505  -1.095  0.00  0.00    +0.400 HD
ATOM      3  C   LIG    1        3.507  -0.600  -1.492  0.00  0.00    +0.520 C 
ATOM      4  O   LIG    1        4.586  -0.094  -1.268  0.00  0.00    -0.510 OA
ENDROOT
BRANCH   1   6
ATOM      5  C   LIG    1        2.832   0.578   1.393  0.00  0.00    +0.040 C 
ATOM      6  C   LIG    1        2.491   1.055  -0.020  0.00  0.00    +0.290 C 
BRANCH   6   7
ATOM      7  C   LIG    1        1.173   1.786   0.000  0.00  0.00    -0.100 A 
ATOM      8  C   LIG    1       -0.013   1.076   0.008  0.00  0.00    +0.000 A 
ATOM      9  C   LIG    1       -1.215   1.752   0.017  0.00  0.00    +0.000 A 
ATOM     10  C   LIG    1       -1.244   3.140   0.031  0.00  0.00    -0.070 A 
ATOM     11  C   LIG    1       -2.592   3.813   0.034  0.00  0.00    +0.080 C 
ATOM     12  C   LIG    1       -2.464   5.269   0.479  0.00  0.00    +0.020 C 
ATOM     13  C   LIG    1       -1.368   5.937  -0.360  0.00  0.00    +0.020 C 
ATOM     14  C   LIG    1       -0.019   5.353   0.056  0.00  0.00    +0.080 C 
ATOM     15  C   LIG    1       -0.063   3.847   0.030  0.00  0.00    -0.070 A 
ATOM     16  C   LIG    1        1.147   3.165   0.011  0.00  0.00    +0.010 A 
ENDBRANCH   6   7
ENDBRANCH   1   6
BRANCH   3  17
ATOM     17  C   LIG    1        3.409  -1.788  -2.413  0.00  0.00    +0.240 C 
BRANCH  17  18
ATOM     18  O   LIG    1        4.711  -2.128  -2.893  0.00  0.00    -0.280 OA
BRANCH  18  19
ATOM     19  C   LIG    1        4.800  -3.185  -3.743  0.00  0.00    +0.140 A 
ATOM     20  C   LIG    1        3.657  -3.885  -4.101  0.00  0.00    -0.010 A 
ATOM     21  C   LIG    1        3.749  -4.958  -4.968  0.00  0.00    +0.080 A 
ATOM     22  C   LIG    1        4.979  -5.339  -5.470  0.00  0.00    +0.070 A 
ATOM     23  C   LIG    1        6.120  -4.646  -5.110  0.00  0.00    -0.000 A 
ATOM     24  C   LIG    1        6.033  -3.570  -4.247  0.00  0.00    +0.070 A 
BRANCH  23  25
ATOM     25  N   LIG    1        7.436  -5.056  -5.649  0.00  0.00    +0.020 N 
ATOM     26  O   LIG    1        7.514  -6.005  -6.409  0.00  0.00    -0.150 OA
ATOM     27  O   LIG    1        8.442  -4.446  -5.332  0.00  0.00    -0.150 OA
ENDBRANCH  23  25
ENDBRANCH  18  19
ENDBRANCH  17  18
ENDBRANCH   3  17
TORSDOF 6
