REMARK  Name = ZINCpk000000opfK.0
REMARK                            x       y       z     vdW  Elec       q    Type
REMARK                         _______ _______ _______ _____ _____    ______ ____
ROOT
ATOM      1  C   LIG    1       -5.599  -2.723   0.807  0.00  0.00    +0.250 C 
ATOM      2  C   LIG    1       -5.656  -1.198   0.924  0.00  0.00    +0.030 C 
ATOM      3  C   LIG    1       -4.785  -0.573  -0.170  0.00  0.00    +0.320 C 
ATOM      4  N   LIG    1       -3.430  -1.135  -0.073  0.00  0.00    -0.620 N 
ATOM      5  C   LIG    1       -3.268  -2.595  -0.090  0.00  0.00    +0.280 C 
ATOM      6  C   LIG    1       -2.357  -0.326   0.022  0.00  0.00    +0.720 C 
ATOM      7  N   LIG    1       -1.115  -0.849   0.004  0.00  0.00    -0.540 N 
ATOM      8  H   LIG    1       -0.994  -1.812  -0.003  0.00  0.00    +0.430 HD
ATOM      9  O   LIG    1       -2.508   0.876   0.126  0.00  0.00    -0.570 OA
ATOM     10  C   LIG    1       -4.158  -3.198   1.008  0.00  0.00    +0.000 C 
ENDROOT
BRANCH   7  11
ATOM     11  N   LIG    1        0.002  -0.003  -0.005  0.00  0.00    -0.280 N 
ATOM     12  C   LIG    1       -0.017   1.357   0.003  0.00  0.00    +0.530 A 
ATOM     13  N   LIG    1        1.198   1.821  -0.010  0.00  0.00    -0.490 NA
ATOM     14  C   LIG    1        2.081   0.789  -0.027  0.00  0.00    +0.060 A 
ATOM     15  C   LIG    1        3.476   0.715  -0.046  0.00  0.00    +0.070 A 
ATOM     16  C   LIG    1        4.093  -0.504  -0.061  0.00  0.00    +0.010 A 
ATOM     17  C   LIG    1        3.347  -1.674  -0.059  0.00  0.00    +0.030 A 
ATOM     18  C   LIG    1        1.969  -1.625  -0.041  0.00  0.00    +0.010 A 
ATOM     19  C   LIG    1        1.325  -0.396  -0.025  0.00  0.00    +0.040 A 
ENDBRANCH   7  11
BRANCH   1  20
ATOM     20  N   LIG    1       -6.458  -3.324   1.831  0.00  0.00    -1.120 NA
ATOM     21  H   LIG    1       -6.540  -2.905   2.702  0.00  0.00    +0.420 HD
BRANCH  20  22
ATOM     22  S   LIG    1       -7.287  -4.718   1.501  0.00  0.00    +2.610 S 
ATOM     23  O   LIG    1       -7.956  -4.447   0.277  0.00  0.00    -0.950 OA
ATOM     24  O   LIG    1       -8.017  -4.982   2.692  0.00  0.00    -0.950 OA
BRANCH  22  25
ATOM     25  C   LIG    1       -5.995  -5.967   1.257  0.00  0.00    -0.360 C 
BRANCH  25  27
ATOM     26  C   LIG    1       -5.552  -8.370   0.735  0.00  0.00    +0.030 C 
ATOM     27  C   LIG    1       -6.642  -7.317   0.942  0.00  0.00    +0.040 C 
ENDBRANCH  25  27
ENDBRANCH  22  25
ENDBRANCH  20  22
ENDBRANCH   1  20
TORSDOF 5
