REMARK  Name = ZINCrS000002doU0.0
REMARK                            x       y       z     vdW  Elec       q    Type
REMARK                         _______ _______ _______ _____ _____    ______ ____
ROOT
ATOM      1  C   LIG    1       -1.219  -4.819  -0.073  0.00  0.00    +0.230 C 
ENDROOT
BRANCH   1   5
ATOM      2  C   LIG    1       -1.083  -9.043   0.562  0.00  0.00    +0.170 A 
ATOM      3  C   LIG    1       -1.249  -8.538  -0.719  0.00  0.00    +0.010 A 
ATOM      4  C   LIG    1       -1.292  -7.172  -0.922  0.00  0.00    +0.080 A 
ATOM      5  C   LIG    1       -1.171  -6.309   0.151  0.00  0.00    -0.200 A 
ATOM      6  C   LIG    1       -1.001  -6.809   1.428  0.00  0.00    +0.050 A 
ATOM      7  C   LIG    1       -0.962  -8.174   1.637  0.00  0.00    -0.040 A 
BRANCH   2   9
ATOM      8  C   LIG    1       -0.869 -10.834   2.110  0.00  0.00    +0.260 C 
ATOM      9  O   LIG    1       -1.041 -10.386   0.765  0.00  0.00    -0.300 OA
ENDBRANCH   2   9
ENDBRANCH   1   5
BRANCH   1  10
ATOM     10  N   LIG    1       -1.991  -4.186   1.004  0.00  0.00    -0.390 N 
ATOM     11  C   LIG    1       -2.098  -2.724   0.767  0.00  0.00    +0.270 C 
ATOM     12  C   LIG    1       -3.344  -2.321   1.597  0.00  0.00    +0.080 C 
ATOM     13  C   LIG    1       -4.293  -3.526   1.406  0.00  0.00    +0.070 C 
ATOM     14  C   LIG    1       -3.379  -4.699   1.006  0.00  0.00    +0.260 C 
ATOM     15  H   LIG    1       -1.554  -4.363   1.896  0.00  0.00    +0.430 HD
ENDBRANCH   1  10
BRANCH   1  16
ATOM     16  C   LIG    1        0.205  -4.258  -0.078  0.00  0.00    +0.300 C 
BRANCH  16  17
ATOM     17  N   LIG    1        0.935  -4.789  -1.231  0.00  0.00    -0.680 NA
ATOM     18  H   LIG    1        0.518  -5.448  -1.808  0.00  0.00    +0.420 HD
BRANCH  17  19
ATOM     19  C   LIG    1        2.222  -4.348  -1.500  0.00  0.00    +0.360 C 
ATOM     20  C   LIG    1        2.838  -3.406  -0.691  0.00  0.00    -0.100 C 
ATOM     21  C   LIG    1        4.128  -2.985  -0.986  0.00  0.00    +0.270 C 
ATOM     22  N   LIG    1        4.792  -3.454  -2.016  0.00  0.00    -0.500 NA
ATOM     23  C   LIG    1        4.259  -4.364  -2.840  0.00  0.00    +0.170 C 
ATOM     24  C   LIG    1        4.982  -4.856  -3.939  0.00  0.00    +0.020 C 
ATOM     25  C   LIG    1        4.416  -5.782  -4.762  0.00  0.00    +0.130 C 
ATOM     26  C   LIG    1        3.126  -6.253  -4.531  0.00  0.00    +0.060 C 
ATOM     27  C   LIG    1        2.395  -5.798  -3.474  0.00  0.00    +0.070 C 
ATOM     28  H   LIG    1        5.691  -3.132  -2.185  0.00  0.00    +0.450 HD
ATOM     29  C   LIG    1        4.784  -1.960  -0.097  0.00  0.00    +0.190 C 
ATOM     30  C   LIG    1        2.948  -4.845  -2.608  0.00  0.00    -0.130 C 
ENDBRANCH  17  19
ENDBRANCH  16  17
ENDBRANCH   1  16
TORSDOF 6
