REMARK  Name = ZINCpe00000VVGjM.0
REMARK                            x       y       z     vdW  Elec       q    Type
REMARK                         _______ _______ _______ _____ _____    ______ ____
ROOT
ATOM      1  O   LIG    1        0.078  -0.001  -0.010  0.00  0.00    -0.540 OA
ATOM      2  C   LIG    1       -0.014   1.212   0.009  0.00  0.00    +0.610 C 
ATOM      3  N   LIG    1       -1.229   1.795   0.049  0.00  0.00    -0.590 N 
ATOM      4  C   LIG    1       -1.360   3.256  -0.019  0.00  0.00    +0.290 C 
ATOM      5  C   LIG    1       -2.190   3.738   1.170  0.00  0.00    +0.010 C 
ATOM      6  C   LIG    1       -3.523   2.987   1.196  0.00  0.00    +0.280 C 
ATOM      7  C   LIG    1       -3.263   1.488   1.361  0.00  0.00    +0.020 C 
ATOM      8  C   LIG    1       -2.446   0.981   0.169  0.00  0.00    +0.290 C 
ENDROOT
BRANCH   6   9
ATOM      9  N   LIG    1       -4.332   3.468   2.319  0.00  0.00    -0.630 N 
ATOM     10  C   LIG    1       -5.657   4.098   2.206  0.00  0.00    +0.250 C 
ATOM     11  C   LIG    1       -6.047   4.401   3.666  0.00  0.00    +0.250 C 
ATOM     12  N   LIG    1       -4.897   3.918   4.445  0.00  0.00    -0.740 N 
ATOM     13  H   LIG    1       -4.815   3.961   5.411  0.00  0.00    +0.430 HD
ATOM     14  C   LIG    1       -3.981   3.410   3.610  0.00  0.00    +0.700 C 
ATOM     15  O   LIG    1       -2.927   2.939   3.990  0.00  0.00    -0.580 OA
ENDBRANCH   6   9
BRANCH   2  16
ATOM     16  C   LIG    1        1.203   2.045  -0.019  0.00  0.00    -0.090 A 
ATOM     17  C   LIG    1        2.487   1.585   0.064  0.00  0.00    +0.310 A 
ATOM     18  N   LIG    1        3.293   2.666  -0.002  0.00  0.00    -0.300 N 
ATOM     19  N   LIG    1        2.459   3.787  -0.116  0.00  0.00    -0.050 NA
ATOM     20  N   LIG    1        1.236   3.384  -0.123  0.00  0.00    -0.200 NA
BRANCH  18  21
ATOM     21  C   LIG    1        4.695   2.668   0.042  0.00  0.00    +0.130 A 
ATOM     22  C   LIG    1        5.389   1.472   0.164  0.00  0.00    +0.020 A 
ATOM     23  C   LIG    1        6.769   1.476   0.200  0.00  0.00    +0.040 A 
ATOM     24  C   LIG    1        7.460   2.672   0.127  0.00  0.00    +0.020 A 
ATOM     25  C   LIG    1        6.772   3.866   0.012  0.00  0.00    +0.040 A 
ATOM     26  C   LIG    1        5.391   3.867  -0.031  0.00  0.00    +0.040 A 
ENDBRANCH  18  21
ENDBRANCH   2  16
TORSDOF 3
