REMARK  Name = ZINCrH000004q5vV.0
REMARK                            x       y       z     vdW  Elec       q    Type
REMARK                         _______ _______ _______ _____ _____    ______ ____
ROOT
ATOM      1  C   LIG    1       -0.776   7.169  -0.165  0.00  0.00    +0.200 A 
ATOM      2  N   LIG    1       -1.236   5.932  -0.117  0.00  0.00    -0.420 NA
ATOM      3  C   LIG    1       -0.148   5.139  -0.193  0.00  0.00    +0.230 A 
ATOM      4  N   LIG    1        0.899   5.920  -0.289  0.00  0.00    -0.330 NA
ATOM      5  O   LIG    1        0.559   7.084  -0.275  0.00  0.00    +0.110 OA
ENDROOT
BRANCH   1   8
ATOM      6  C   LIG    1       -0.179   9.095   1.824  0.00  0.00    +0.120 C 
ATOM      7  C   LIG    1       -1.294   9.332   0.838  0.00  0.00    -0.090 A 
ATOM      8  C   LIG    1       -1.576   8.406  -0.114  0.00  0.00    +0.200 A 
ATOM      9  N   LIG    1       -2.582   8.588  -1.036  0.00  0.00    -0.620 N 
ATOM     10  H   LIG    1       -2.742   7.899  -1.699  0.00  0.00    +0.420 HD
ATOM     11  C   LIG    1       -3.355   9.692  -1.043  0.00  0.00    +0.560 A 
ATOM     12  C   LIG    1       -3.119  10.746  -0.048  0.00  0.00    -0.140 A 
ATOM     13  C   LIG    1       -3.885  11.909  -0.014  0.00  0.00    +0.090 A 
ATOM     14  C   LIG    1       -3.624  12.869   0.940  0.00  0.00    +0.020 A 
ATOM     15  C   LIG    1       -2.606  12.690   1.867  0.00  0.00    +0.050 A 
ATOM     16  C   LIG    1       -1.835  11.549   1.854  0.00  0.00    +0.030 A 
ATOM     17  O   LIG    1       -4.239   9.816  -1.871  0.00  0.00    -0.510 OA
ATOM     18  C   LIG    1       -2.082  10.562   0.897  0.00  0.00    -0.000 A 
ENDBRANCH   1   8
BRANCH   3  19
ATOM     19  C   LIG    1       -0.139   3.656  -0.176  0.00  0.00    +0.150 A 
ATOM     20  N   LIG    1       -1.282   2.991  -0.074  0.00  0.00    -0.410 NA
ATOM     21  C   LIG    1       -1.318   1.675  -0.061  0.00  0.00    +0.240 A 
ATOM     22  C   LIG    1       -0.155   0.929  -0.142  0.00  0.00    +0.040 A 
ATOM     23  C   LIG    1        1.064   1.578  -0.251  0.00  0.00    -0.020 A 
ATOM     24  C   LIG    1        1.075   2.968  -0.268  0.00  0.00    +0.120 A 
BRANCH  24  25
ATOM     25  O   LIG    1        2.246   3.648  -0.373  0.00  0.00    -0.280 OA
BRANCH  25  26
ATOM     26  C   LIG    1        3.447   2.874  -0.371  0.00  0.00    +0.150 C 
ATOM     27  C   LIG    1        3.855   2.570   1.072  0.00  0.00    +0.030 C 
ATOM     28  C   LIG    1        4.563   3.661  -1.061  0.00  0.00    +0.070 C 
ENDBRANCH  25  26
ENDBRANCH  24  25
ENDBRANCH   3  19
TORSDOF 4
