REMARK  Name = ZINCrD000000AIQF.0
REMARK                            x       y       z     vdW  Elec       q    Type
REMARK                         _______ _______ _______ _____ _____    ______ ____
ROOT
ATOM      1  O   LIG    1        0.391   9.758   0.131  0.00  0.00    -0.560 OA
ATOM      2  C   LIG    1       -0.713   9.661  -0.370  0.00  0.00    +0.720 C 
ATOM      3  N   LIG    1       -1.244   8.444  -0.600  0.00  0.00    -0.650 N 
ATOM      4  H   LIG    1       -2.124   8.366  -1.000  0.00  0.00    +0.410 HD
ATOM      5  N   LIG    1       -1.405  10.771  -0.694  0.00  0.00    -0.740 N 
ATOM      6  H   LIG    1       -2.286  10.693  -1.094  0.00  0.00    +0.400 HD
ENDROOT
BRANCH   3   7
ATOM      7  C   LIG    1       -0.524   7.290  -0.263  0.00  0.00    +0.340 A 
ATOM      8  N   LIG    1       -0.924   6.053  -0.441  0.00  0.00    -0.310 NA
ATOM      9  N   LIG    1        0.079   5.196   0.029  0.00  0.00    -0.330 N 
ATOM     10  C   LIG    1        1.103   5.962   0.487  0.00  0.00    +0.280 A 
ATOM     11  C   LIG    1        0.755   7.258   0.318  0.00  0.00    -0.070 A 
BRANCH   9  12
ATOM     12  C   LIG    1        0.036   3.799   0.022  0.00  0.00    +0.350 A 
ATOM     13  N   LIG    1        1.165   3.109   0.007  0.00  0.00    -0.480 NA
ATOM     14  C   LIG    1        1.170   1.790   0.001  0.00  0.00    +0.300 A 
ATOM     15  C   LIG    1       -0.013   1.076   0.008  0.00  0.00    +0.000 A 
ATOM     16  C   LIG    1       -1.220   1.761   0.017  0.00  0.00    +0.070 A 
ATOM     17  C   LIG    1       -1.193   3.146   0.030  0.00  0.00    +0.060 A 
ATOM     18  F   LIG    1       -2.344   3.853   0.045  0.00  0.00    -0.110 F 
ENDBRANCH   9  12
ENDBRANCH   3   7
BRANCH   5  19
ATOM     19  C   LIG    1       -0.829  12.094  -0.444  0.00  0.00    +0.280 C 
BRANCH  19  20
ATOM     20  C   LIG    1       -1.812  13.174  -0.900  0.00  0.00    -0.020 C 
ATOM     21  C   LIG    1       -1.256  14.559  -0.550  0.00  0.00    +0.040 C 
ATOM     22  C   LIG    1       -2.353  15.593  -0.794  0.00  0.00    +0.080 C 
ATOM     23  C   LIG    1       -2.937  15.431  -2.173  0.00  0.00    -0.080 A 
ATOM     24  C   LIG    1       -3.665  16.491  -2.696  0.00  0.00    +0.000 A 
ATOM     25  C   LIG    1       -4.232  16.402  -3.951  0.00  0.00    +0.000 A 
ATOM     26  C   LIG    1       -4.074  15.247  -4.694  0.00  0.00    +0.000 A 
ATOM     27  C   LIG    1       -3.349  14.193  -4.177  0.00  0.00    +0.000 A 
ATOM     28  C   LIG    1       -2.776  14.282  -2.915  0.00  0.00    -0.080 A 
ATOM     29  C   LIG    1       -1.995  13.096  -2.414  0.00  0.00    +0.070 C 
ENDBRANCH  19  20
ENDBRANCH   5  19
TORSDOF 4
