REMARK  Name = ZINCpe000015vEH8.0
REMARK                            x       y       z     vdW  Elec       q    Type
REMARK                         _______ _______ _______ _____ _____    ______ ____
ROOT
ATOM      1  N   LIG    1        4.224   2.460   2.581  0.00  0.00    -0.680 N 
ATOM      2  H   LIG    1        4.100   3.274   3.093  0.00  0.00    +0.400 HD
ATOM      3  C   LIG    1        3.835   2.409   1.292  0.00  0.00    +0.710 C 
ATOM      4  N   LIG    1        3.357   3.514   0.688  0.00  0.00    -0.640 N 
ATOM      5  C   LIG    1        3.379   4.795   1.397  0.00  0.00    +0.320 C 
ATOM      6  C   LIG    1        4.308   5.769   0.664  0.00  0.00    -0.340 C 
ATOM      7  S   LIG    1        3.720   5.975  -1.042  0.00  0.00    +2.420 S 
ATOM      8  C   LIG    1        3.689   4.253  -1.621  0.00  0.00    -0.330 C 
ATOM      9  O   LIG    1        2.387   6.467  -1.009  0.00  0.00    -0.930 OA
ATOM     10  O   LIG    1        4.705   6.685  -1.780  0.00  0.00    -0.930 OA
ATOM     11  C   LIG    1        2.819   3.424  -0.671  0.00  0.00    +0.370 C 
ATOM     12  O   LIG    1        3.915   1.365   0.674  0.00  0.00    -0.530 OA
ENDROOT
BRANCH   1  16
ATOM     13  C   LIG    1        5.891  -0.896   4.308  0.00  0.00    +0.310 A 
ATOM     14  C   LIG    1        6.388   0.348   4.672  0.00  0.00    -0.020 A 
ATOM     15  C   LIG    1        5.842   1.486   4.104  0.00  0.00    +0.070 A 
ATOM     16  C   LIG    1        4.808   1.336   3.183  0.00  0.00    +0.070 A 
ATOM     17  C   LIG    1        4.359   0.061   2.872  0.00  0.00    +0.320 A 
ATOM     18  N   LIG    1        4.907  -1.001   3.430  0.00  0.00    -0.520 NA
BRANCH  13  20
ATOM     19  C   LIG    1        5.867  -3.268   4.445  0.00  0.00    +0.260 C 
ATOM     20  O   LIG    1        6.420  -2.018   4.860  0.00  0.00    -0.310 OA
ENDBRANCH  13  20
ENDBRANCH   1  16
BRANCH  11  21
ATOM     21  C   LIG    1        2.820   1.984  -1.116  0.00  0.00    -0.210 A 
ATOM     22  C   LIG    1        1.749   1.158  -1.141  0.00  0.00    +0.230 A 
ATOM     23  N   LIG    1        2.164  -0.040  -1.601  0.00  0.00    -0.380 N 
ATOM     24  N   LIG    1        3.537   0.052  -1.868  0.00  0.00    -0.300 NA
ATOM     25  C   LIG    1        1.328  -1.229  -1.789  0.00  0.00    +0.350 C 
ATOM     26  C   LIG    1        3.928   1.266  -1.577  0.00  0.00    +0.290 A 
ENDBRANCH  11  21
TORSDOF 3
