REMARK  Name = ZINCrH000004nA1Y.0
REMARK                            x       y       z     vdW  Elec       q    Type
REMARK                         _______ _______ _______ _____ _____    ______ ____
ROOT
ATOM      1  C   LIG    1        3.526   0.159  -1.746  0.00  0.00    +0.230 C 
ENDROOT
BRANCH   1   2
ATOM      2  N   LIG    1        3.643  -1.108  -1.013  0.00  0.00    -0.490 NA
ATOM      3  C   LIG    1        4.936  -1.190  -0.300  0.00  0.00    +0.200 C 
ATOM      4  C   LIG    1        4.626  -1.984   0.993  0.00  0.00    +0.030 C 
ATOM      5  C   LIG    1        3.209  -1.458   1.354  0.00  0.00    +0.030 C 
ATOM      6  C   LIG    1        2.555  -1.252  -0.028  0.00  0.00    +0.250 C 
BRANCH   6   7
ATOM      7  C   LIG    1        1.708  -0.005  -0.014  0.00  0.00    +0.070 A 
ATOM      8  N   LIG    1        2.179   1.184  -0.012  0.00  0.00    -0.460 NA
ATOM      9  C   LIG    1        1.303   2.207   0.002  0.00  0.00    +0.080 A 
ATOM     10  C   LIG    1        1.542   3.596   0.007  0.00  0.00    +0.070 A 
ATOM     11  C   LIG    1        0.500   4.474   0.022  0.00  0.00    +0.040 A 
ATOM     12  C   LIG    1       -0.811   4.021   0.032  0.00  0.00    +0.040 A 
ATOM     13  C   LIG    1       -1.074   2.670   0.032  0.00  0.00    +0.060 A 
ATOM     14  C   LIG    1       -0.022   1.756   0.012  0.00  0.00    -0.180 A 
ATOM     15  S   LIG    1        0.002  -0.004   0.002  0.00  0.00    +0.120 S 
ENDBRANCH   6   7
ENDBRANCH   1   2
BRANCH   1  18
ATOM     16  N   LIG    1        4.564   1.232  -3.718  0.00  0.00    -0.730 N 
ATOM     17  H   LIG    1        3.989   1.998  -3.565  0.00  0.00    +0.400 HD
ATOM     18  C   LIG    1        4.495   0.163  -2.900  0.00  0.00    +0.510 C 
ATOM     19  O   LIG    1        5.213  -0.795  -3.092  0.00  0.00    -0.520 OA
BRANCH  16  20
ATOM     20  C   LIG    1        5.506   1.236  -4.840  0.00  0.00    +0.330 C 
BRANCH  20  26
ATOM     21  C   LIG    1        6.008   3.679  -5.110  0.00  0.00    +0.140 A 
ATOM     22  C   LIG    1        5.895   4.874  -5.806  0.00  0.00    -0.080 A 
ATOM     23  C   LIG    1        5.163   4.924  -6.976  0.00  0.00    +0.060 A 
ATOM     24  C   LIG    1        4.544   3.784  -7.455  0.00  0.00    -0.030 A 
ATOM     25  C   LIG    1        4.659   2.591  -6.766  0.00  0.00    +0.070 A 
ATOM     26  C   LIG    1        5.385   2.536  -5.593  0.00  0.00    -0.140 A 
BRANCH  21  28
ATOM     27  C   LIG    1        7.341   4.841  -3.522  0.00  0.00    +0.250 C 
ATOM     28  O   LIG    1        6.728   3.627  -3.958  0.00  0.00    -0.310 OA
ENDBRANCH  21  28
ENDBRANCH  20  26
ENDBRANCH  16  20
ENDBRANCH   1  18
TORSDOF 6
