REMARK  Name = ZINCrD000000CtbK.0
REMARK                            x       y       z     vdW  Elec       q    Type
REMARK                         _______ _______ _______ _____ _____    ______ ____
ROOT
ATOM      1  C   LIG    1       -1.485   0.036  -1.962  0.00  0.00    +0.020 C 
ATOM      2  C   LIG    1       -2.601   0.899  -1.329  0.00  0.00    +0.090 C 
ATOM      3  C   LIG    1       -3.818  -0.000  -1.343  0.00  0.00    +0.520 C 
ATOM      4  N   LIG    1       -3.621  -1.032  -2.182  0.00  0.00    -0.550 N 
ATOM      5  O   LIG    1       -4.825   0.183  -0.692  0.00  0.00    -0.500 OA
ATOM      6  C   LIG    1       -2.302  -0.955  -2.821  0.00  0.00    +0.310 C 
ENDROOT
BRANCH   4   7
ATOM      7  C   LIG    1       -4.553  -2.049  -2.415  0.00  0.00    +0.170 A 
ATOM      8  C   LIG    1       -4.308  -3.008  -3.389  0.00  0.00    -0.020 A 
ATOM      9  C   LIG    1       -5.231  -4.009  -3.614  0.00  0.00    +0.050 A 
ATOM     10  C   LIG    1       -6.401  -4.062  -2.874  0.00  0.00    -0.120 A 
ATOM     11  C   LIG    1       -7.552  -5.044  -2.929  0.00  0.00    +0.070 C 
ATOM     12  C   LIG    1       -8.718  -4.341  -2.202  0.00  0.00    +0.030 C 
ATOM     13  C   LIG    1       -7.980  -3.384  -1.241  0.00  0.00    +0.080 C 
ATOM     14  C   LIG    1       -6.647  -3.108  -1.903  0.00  0.00    -0.070 A 
ATOM     15  C   LIG    1       -5.723  -2.106  -1.670  0.00  0.00    +0.010 A 
ENDBRANCH   4   7
BRANCH   1  17
ATOM     16  O   LIG    1       -0.676  -1.903  -0.887  0.00  0.00    -0.520 OA
ATOM     17  C   LIG    1       -0.698  -0.690  -0.902  0.00  0.00    +0.520 C 
ATOM     18  N   LIG    1       -0.018   0.008   0.029  0.00  0.00    -0.610 N 
ATOM     19  C   LIG    1       -0.034   1.477   0.023  0.00  0.00    +0.270 C 
ATOM     20  C   LIG    1        1.411   1.986   0.022  0.00  0.00    +0.040 C 
ATOM     21  C   LIG    1        2.165   1.371   1.202  0.00  0.00    +0.040 C 
ATOM     22  C   LIG    1        2.190  -0.152   1.056  0.00  0.00    -0.030 C 
ATOM     23  C   LIG    1        0.754  -0.686   1.069  0.00  0.00    +0.300 C 
BRANCH  22  24
ATOM     24  C   LIG    1        2.973  -0.765   2.219  0.00  0.00    +0.460 C 
ATOM     25  F   LIG    1        2.358  -0.420   3.428  0.00  0.00    -0.180 F 
ATOM     26  F   LIG    1        4.284  -0.277   2.207  0.00  0.00    -0.180 F 
ATOM     27  F   LIG    1        2.992  -2.157   2.087  0.00  0.00    -0.180 F 
ENDBRANCH  22  24
ENDBRANCH   1  17
TORSDOF 3
