REMARK  Name = ZINCtV000002px2w.0
REMARK                            x       y       z     vdW  Elec       q    Type
REMARK                         _______ _______ _______ _____ _____    ______ ____
ROOT
ATOM      1  N   LIG    1        4.123  -0.938  -1.424  0.00  0.00    -0.690 N 
ATOM      2  H   LIG    1        3.567  -0.626  -2.154  0.00  0.00    +0.410 HD
ENDROOT
BRANCH   1   6
ATOM      3  C   LIG    1        7.321  -2.731  -2.555  0.00  0.00    -0.260 A 
ATOM      4  C   LIG    1        7.212  -2.671  -1.228  0.00  0.00    +0.260 A 
ATOM      5  N   LIG    1        6.125  -2.061  -0.793  0.00  0.00    -0.550 NA
ATOM      6  C   LIG    1        5.309  -1.603  -1.692  0.00  0.00    +0.320 A 
ATOM      7  S   LIG    1        5.908  -1.946  -3.256  0.00  0.00    +0.090 S 
BRANCH   3   8
ATOM      8  C   LIG    1        8.452  -3.366  -3.323  0.00  0.00    +0.190 C 
BRANCH   8  13
ATOM      9 BR   LIG    1        7.152  -9.299  -4.371  0.00  0.00    -0.050 Br
ATOM     10  C   LIG    1        7.551  -7.478  -4.049  0.00  0.00    -0.090 A 
ATOM     11  C   LIG    1        7.164  -6.514  -4.962  0.00  0.00    +0.040 A 
ATOM     12  C   LIG    1        7.456  -5.183  -4.727  0.00  0.00    +0.020 A 
ATOM     13  C   LIG    1        8.134  -4.817  -3.579  0.00  0.00    -0.060 A 
ATOM     14  C   LIG    1        8.524  -5.781  -2.669  0.00  0.00    +0.020 A 
ATOM     15  C   LIG    1        8.229  -7.111  -2.901  0.00  0.00    +0.040 A 
ENDBRANCH   8  13
ENDBRANCH   3   8
ENDBRANCH   1   6
BRANCH   1  16
ATOM     16  C   LIG    1        3.711  -0.707  -0.037  0.00  0.00    +0.340 C 
BRANCH  16  17
ATOM     17  C   LIG    1        2.396   0.030  -0.021  0.00  0.00    -0.150 A 
ATOM     18  C   LIG    1        1.208  -0.677  -0.013  0.00  0.00    +0.070 A 
ATOM     19  C   LIG    1        0.002  -0.004   0.002  0.00  0.00    -0.020 A 
ATOM     20  C   LIG    1       -0.017   1.383   0.010  0.00  0.00    +0.140 A 
ATOM     21  C   LIG    1        1.177   2.091   0.002  0.00  0.00    -0.080 A 
ATOM     22  C   LIG    1        2.380   1.413  -0.013  0.00  0.00    +0.070 A 
BRANCH  20  23
ATOM     23  O   LIG    1       -1.202   2.048   0.019  0.00  0.00    -0.310 OA
BRANCH  23  24
ATOM     24  C   LIG    1       -1.145   3.475   0.026  0.00  0.00    +0.260 C 
BRANCH  24  25
ATOM     25  C   LIG    1       -2.545   4.034   0.036  0.00  0.00    -0.050 A 
ATOM     26  C   LIG    1       -3.208   4.309  -1.150  0.00  0.00    -0.010 A 
ATOM     27  C   LIG    1       -4.492   4.816  -1.102  0.00  0.00    +0.260 A 
ATOM     28  N   LIG    1       -5.083   5.048   0.054  0.00  0.00    -0.480 NA
ATOM     29  C   LIG    1       -4.482   4.803   1.201  0.00  0.00    +0.260 A 
ATOM     30  C   LIG    1       -3.199   4.290   1.232  0.00  0.00    -0.010 A 
ENDBRANCH  24  25
ENDBRANCH  23  24
ENDBRANCH  20  23
ENDBRANCH  16  17
ENDBRANCH   1  16
TORSDOF 8
