REMARK  Name = ZINCkj00000kIYSf.0
REMARK                            x       y       z     vdW  Elec       q    Type
REMARK                         _______ _______ _______ _____ _____    ______ ____
ROOT
ATOM      1  C   LIG    1        0.743  -2.149  -1.071  0.00  0.00    +0.040 C 
ATOM      2  C   LIG    1       -0.680  -2.687  -0.827  0.00  0.00    +0.070 C 
ATOM      3  C   LIG    1       -0.877  -4.119  -1.360  0.00  0.00    +0.020 C 
ATOM      4  C   LIG    1        0.303  -5.008  -1.073  0.00  0.00    +0.020 C 
ATOM      5  C   LIG    1        1.241  -4.988  -2.297  0.00  0.00    +0.040 C 
ATOM      6  C   LIG    1        2.084  -3.802  -2.330  0.00  0.00    +0.060 C 
ATOM      7  C   LIG    1        1.264  -2.500  -2.438  0.00  0.00    +0.200 C 
ENDROOT
BRANCH   7   8
ATOM      8  N   LIG    1        2.123  -1.415  -2.933  0.00  0.00    -0.510 N 
ATOM      9  H   LIG    1        2.946  -1.348  -2.354  0.00  0.00    +0.440 HD
ATOM     10  H   LIG    1        1.616  -0.544  -2.900  0.00  0.00    +0.420 HD
BRANCH   8  11
ATOM     11  C   LIG    1        2.520  -1.698  -4.318  0.00  0.00    +0.420 C 
BRANCH  11  12
ATOM     12  C   LIG    1        3.401  -0.586  -4.825  0.00  0.00    +0.070 A 
ATOM     13  N   LIG    1        4.702  -0.528  -4.738  0.00  0.00    -0.230 NA
ATOM     14  N   LIG    1        5.124   0.561  -5.275  0.00  0.00    -0.280 NA
ATOM     15  C   LIG    1        4.112   1.248  -5.730  0.00  0.00    +0.220 A 
ATOM     16  C   LIG    1        4.179   2.582  -6.429  0.00  0.00    +0.220 C 
ATOM     17  N   LIG    1        2.990   0.537  -5.462  0.00  0.00    -0.460 N 
ATOM     18  C   LIG    1        1.612   0.909  -5.791  0.00  0.00    +0.350 C 
ENDBRANCH  11  12
ENDBRANCH   8  11
ENDBRANCH   7   8
BRANCH   1  19
ATOM     19  C   LIG    1        0.728  -0.649  -0.925  0.00  0.00    +0.420 C 
ATOM     20  O   LIG    1       -0.215  -0.012  -1.330  0.00  0.00    -0.470 OA
BRANCH  19  22
ATOM     21  C   LIG    1        1.682   1.425  -0.239  0.00  0.00    +0.300 C 
ATOM     22  O   LIG    1        1.764  -0.021  -0.346  0.00  0.00    -0.360 OA
ENDBRANCH  19  22
ENDBRANCH   1  19
TORSDOF 5
