REMARK  Name = ZINCrD00000746Il.1
REMARK                            x       y       z     vdW  Elec       q    Type
REMARK                         _______ _______ _______ _____ _____    ______ ____
ROOT
ATOM      1  C   LIG    1       -0.364  -0.486   2.546  0.00  0.00    +0.010 C 
ATOM      2  C   LIG    1       -0.209   1.027   2.372  0.00  0.00    +0.170 C 
ENDROOT
BRANCH   2   3
ATOM      3  N   LIG    1       -1.052   1.480   1.258  0.00  0.00    -0.530 NA
ATOM      4  C   LIG    1       -2.468   1.180   1.512  0.00  0.00    +0.180 C 
ATOM      5  C   LIG    1       -3.319   1.737   0.368  0.00  0.00    +0.200 C 
ATOM      6  N   LIG    1       -2.877   1.144  -0.901  0.00  0.00    -0.490 N 
ATOM      7  C   LIG    1       -1.461   1.445  -1.156  0.00  0.00    +0.200 C 
ATOM      8  C   LIG    1       -0.611   0.887  -0.012  0.00  0.00    +0.190 C 
BRANCH   6   9
ATOM      9  C   LIG    1       -3.679   1.575  -1.961  0.00  0.00    +0.110 A 
ATOM     10  C   LIG    1       -4.734   2.447  -1.726  0.00  0.00    -0.040 A 
ATOM     11  C   LIG    1       -5.521   2.875  -2.776  0.00  0.00    +0.030 A 
ATOM     12  C   LIG    1       -5.267   2.428  -4.060  0.00  0.00    -0.030 A 
ATOM     13  C   LIG    1       -4.221   1.555  -4.297  0.00  0.00    +0.020 A 
ATOM     14  C   LIG    1       -3.426   1.127  -3.252  0.00  0.00    -0.020 A 
ENDBRANCH   6   9
ENDBRANCH   2   3
BRANCH   2  15
ATOM     15  C   LIG    1       -0.640   1.734   3.658  0.00  0.00    +0.280 C 
BRANCH  15  16
ATOM     16  N   LIG    1       -0.601   3.184   3.454  0.00  0.00    -0.690 N 
ATOM     17  H   LIG    1       -0.312   3.547   2.602  0.00  0.00    +0.420 HD
BRANCH  16  18
ATOM     18  C   LIG    1       -0.978   4.039   4.480  0.00  0.00    +0.390 A 
ATOM     19  N   LIG    1       -0.941   5.345   4.290  0.00  0.00    -0.510 NA
ATOM     20  C   LIG    1       -1.305   6.168   5.282  0.00  0.00    +0.170 A 
ATOM     21  C   LIG    1       -1.276   7.561   5.111  0.00  0.00    +0.000 A 
ATOM     22  C   LIG    1       -1.651   8.376   6.138  0.00  0.00    +0.140 A 
ATOM     23  C   LIG    1       -2.066   7.844   7.360  0.00  0.00    -0.010 A 
ATOM     24  C   LIG    1       -2.105   6.498   7.559  0.00  0.00    +0.130 A 
ATOM     25  F   LIG    1       -1.622   9.717   5.971  0.00  0.00    -0.130 F 
ATOM     26  C   LIG    1       -1.725   5.628   6.523  0.00  0.00    +0.000 A 
ATOM     27  N   LIG    1       -1.755   4.301   6.694  0.00  0.00    -0.390 NA
ATOM     28  C   LIG    1       -1.401   3.508   5.711  0.00  0.00    +0.210 A 
ENDBRANCH  16  18
ENDBRANCH  15  16
ENDBRANCH   2  15
TORSDOF 5
