REMARK  Name = ZINCrD000000C43a.0
REMARK                            x       y       z     vdW  Elec       q    Type
REMARK                         _______ _______ _______ _____ _____    ______ ____
ROOT
ATOM      1  O   LIG    1        1.513   1.061   2.973  0.00  0.00    -0.500 OA
ATOM      2  C   LIG    1        0.507   1.539   3.461  0.00  0.00    +0.610 C 
ATOM      3  N   LIG    1        0.459   1.808   4.780  0.00  0.00    -0.660 N 
ATOM      4  H   LIG    1       -0.317   2.250   5.158  0.00  0.00    +0.420 HD
ENDROOT
BRANCH   3   5
ATOM      5  C   LIG    1        1.531   1.448   5.607  0.00  0.00    +0.150 A 
ATOM      6  C   LIG    1        1.294   1.033   6.910  0.00  0.00    +0.000 A 
ATOM      7  C   LIG    1        2.350   0.675   7.725  0.00  0.00    +0.050 A 
ATOM      8  C   LIG    1        3.651   0.739   7.248  0.00  0.00    +0.040 A 
ATOM      9  O   LIG    1        4.680   0.390   8.069  0.00  0.00    -0.310 OA
ATOM     10  C   LIG    1        5.936   0.107   7.442  0.00  0.00    +0.220 C 
ATOM     11  C   LIG    1        6.221   1.215   6.419  0.00  0.00    +0.220 C 
ATOM     12  O   LIG    1        5.161   1.222   5.457  0.00  0.00    -0.300 OA
ATOM     13  C   LIG    1        3.892   1.158   5.945  0.00  0.00    +0.070 A 
ATOM     14  C   LIG    1        2.831   1.513   5.126  0.00  0.00    +0.030 A 
ENDBRANCH   3   5
BRANCH   2  15
ATOM     15  C   LIG    1       -0.663   1.825   2.606  0.00  0.00    +0.010 A 
ATOM     16  N   LIG    1       -1.813   2.339   2.997  0.00  0.00    -0.250 NA
ATOM     17  N   LIG    1       -2.609   2.453   1.995  0.00  0.00    -0.210 N 
ATOM     18  C   LIG    1       -2.002   2.006   0.863  0.00  0.00    -0.010 A 
ATOM     19  C   LIG    1       -2.216   1.806  -0.621  0.00  0.00    +0.130 C 
ATOM     20  C   LIG    1       -0.799   1.622  -1.209  0.00  0.00    +0.050 C 
ATOM     21  C   LIG    1       -0.014   1.084   0.008  0.00  0.00    +0.110 C 
ATOM     22  C   LIG    1       -0.760   1.599   1.215  0.00  0.00    -0.150 A 
BRANCH  17  23
ATOM     23  C   LIG    1       -3.912   2.964   2.060  0.00  0.00    +0.120 A 
ATOM     24  C   LIG    1       -4.419   3.712   1.005  0.00  0.00    +0.020 A 
ATOM     25  C   LIG    1       -5.706   4.210   1.070  0.00  0.00    +0.040 A 
ATOM     26  C   LIG    1       -6.485   3.973   2.187  0.00  0.00    +0.020 A 
ATOM     27  C   LIG    1       -5.981   3.232   3.241  0.00  0.00    +0.040 A 
ATOM     28  C   LIG    1       -4.697   2.727   3.180  0.00  0.00    +0.040 A 
ENDBRANCH  17  23
ENDBRANCH   2  15
TORSDOF 3
