REMARK  Name = ZINCrD00000hQ51U.0
REMARK                            x       y       z     vdW  Elec       q    Type
REMARK                         _______ _______ _______ _____ _____    ______ ____
ROOT
ATOM      1  C   LIG    1        1.671   1.913   4.082  0.00  0.00    +0.210 C 
ATOM      2  C   LIG    1        1.316   1.821   2.768  0.00  0.00    -0.000 C 
ENDROOT
BRANCH   2   3
ATOM      3  C   LIG    1       -0.104   1.919   2.379  0.00  0.00    +0.220 A 
ATOM      4  N   LIG    1       -1.131   2.093   3.188  0.00  0.00    -0.270 NA
ATOM      5  N   LIG    1       -2.221   2.139   2.503  0.00  0.00    -0.280 NA
ATOM      6  C   LIG    1       -1.956   2.004   1.234  0.00  0.00    +0.200 A 
ATOM      7  C   LIG    1       -2.938   2.020   0.090  0.00  0.00    +0.170 C 
ATOM      8  C   LIG    1       -2.638   0.844  -0.844  0.00  0.00    +0.040 C 
ATOM      9  C   LIG    1       -1.608   1.268  -1.887  0.00  0.00    +0.020 C 
ATOM     10  C   LIG    1       -0.625   2.275  -1.293  0.00  0.00    +0.030 C 
ATOM     11  C   LIG    1        0.134   1.631  -0.129  0.00  0.00    +0.280 C 
ATOM     12  N   LIG    1       -0.609   1.845   1.113  0.00  0.00    -0.470 N 
ENDBRANCH   2   3
BRANCH   1  16
ATOM     13  C   LIG    1        5.685   1.183   5.244  0.00  0.00    +0.070 A 
ATOM     14  C   LIG    1        5.159   0.544   4.129  0.00  0.00    +0.060 A 
ATOM     15  C   LIG    1        3.856   0.777   3.748  0.00  0.00    +0.010 A 
ATOM     16  C   LIG    1        3.059   1.661   4.485  0.00  0.00    -0.050 A 
ATOM     17  C   LIG    1        3.593   2.310   5.607  0.00  0.00    -0.010 A 
ATOM     18  C   LIG    1        4.898   2.066   5.984  0.00  0.00    +0.130 A 
BRANCH  18  19
ATOM     19  O   LIG    1        5.419   2.689   7.074  0.00  0.00    -0.310 OA
ATOM     20  C   LIG    1        4.556   3.580   7.785  0.00  0.00    +0.250 C 
ENDBRANCH  18  19
BRANCH  13  21
ATOM     21  O   LIG    1        6.971   0.950   5.614  0.00  0.00    -0.290 OA
BRANCH  21  22
ATOM     22  C   LIG    1        7.175   0.005   6.547  0.00  0.00    +0.460 C 
ATOM     23  O   LIG    1        6.232  -0.527   7.083  0.00  0.00    -0.490 OA
BRANCH  22  25
ATOM     24  C   LIG    1        8.531  -1.477   8.001  0.00  0.00    +0.060 C 
ATOM     25  C   LIG    1        8.579  -0.390   6.924  0.00  0.00    +0.110 C 
ENDBRANCH  22  25
ENDBRANCH  21  22
ENDBRANCH  13  21
ENDBRANCH   1  16
BRANCH   2  26
ATOM     26  C   LIG    1        2.321   1.629   1.766  0.00  0.00    +0.250 C 
ATOM     27  N   LIG    1        3.118   1.477   0.972  0.00  0.00    -0.390 NA
ENDBRANCH   2  26
TORSDOF 7
