REMARK  Name = ZINCrH000004s6r1.0
REMARK                            x       y       z     vdW  Elec       q    Type
REMARK                         _______ _______ _______ _____ _____    ______ ____
ROOT
ATOM      1  C   LIG    1       -3.933   1.384  -3.064  0.00  0.00    +0.330 C 
ENDROOT
BRANCH   1   8
ATOM      2  C   LIG    1       -6.787   1.484  -3.503  0.00  0.00    +0.090 C 
ATOM      3  C   LIG    1       -5.844   2.011  -4.553  0.00  0.00    -0.070 A 
ATOM      4  C   LIG    1       -6.345   2.547  -5.725  0.00  0.00    -0.010 A 
ATOM      5  C   LIG    1       -5.480   3.026  -6.691  0.00  0.00    +0.010 A 
ATOM      6  C   LIG    1       -4.114   2.974  -6.484  0.00  0.00    -0.010 A 
ATOM      7  C   LIG    1       -3.614   2.442  -5.310  0.00  0.00    +0.050 A 
ATOM      8  C   LIG    1       -4.478   1.963  -4.344  0.00  0.00    -0.100 A 
ENDBRANCH   1   8
BRANCH   1   9
ATOM      9  N   LIG    1       -4.043  -0.076  -3.103  0.00  0.00    -0.730 N 
ATOM     10  H   LIG    1       -4.513  -0.547  -2.397  0.00  0.00    +0.400 HD
ATOM     11  C   LIG    1       -3.491  -0.767  -4.121  0.00  0.00    +0.710 C 
ATOM     12  O   LIG    1       -2.824  -0.188  -4.957  0.00  0.00    -0.590 OA
ATOM     13  N   LIG    1       -3.678  -2.098  -4.212  0.00  0.00    -0.870 N 
ATOM     14  H   LIG    1       -3.281  -2.595  -4.944  0.00  0.00    +0.410 HD
ATOM     15  H   LIG    1       -4.210  -2.560  -3.545  0.00  0.00    +0.400 HD
ENDBRANCH   1   9
BRANCH   1  16
ATOM     16  C   LIG    1       -2.463   1.781  -2.911  0.00  0.00    +0.060 C 
BRANCH  16  17
ATOM     17  C   LIG    1       -1.951   1.306  -1.575  0.00  0.00    +0.530 C 
ATOM     18  N   LIG    1       -0.673   1.545  -1.219  0.00  0.00    -0.620 N 
ATOM     19  C   LIG    1        0.328   2.255  -2.036  0.00  0.00    +0.250 C 
ATOM     20  C   LIG    1        1.696   1.740  -1.523  0.00  0.00    +0.040 C 
ATOM     21  C   LIG    1        1.425   1.602  -0.001  0.00  0.00    +0.050 C 
ATOM     22  C   LIG    1       -0.046   1.140   0.048  0.00  0.00    +0.270 C 
ATOM     23  O   LIG    1       -2.689   0.710  -0.820  0.00  0.00    -0.530 OA
BRANCH  22  24
ATOM     24  C   LIG    1       -0.752   1.798   1.205  0.00  0.00    -0.080 A 
ATOM     25  C   LIG    1       -1.528   2.922   0.993  0.00  0.00    +0.010 A 
ATOM     26  C   LIG    1       -2.175   3.526   2.055  0.00  0.00    +0.000 A 
ATOM     27  C   LIG    1       -2.047   3.005   3.329  0.00  0.00    +0.000 A 
ATOM     28  C   LIG    1       -1.271   1.880   3.541  0.00  0.00    +0.000 A 
ATOM     29  C   LIG    1       -0.627   1.274   2.479  0.00  0.00    -0.080 A 
ATOM     30  C   LIG    1        0.214   0.045   2.709  0.00  0.00    +0.090 C 
ENDBRANCH  22  24
ENDBRANCH  16  17
ENDBRANCH   1  16
TORSDOF 5
