REMARK  Name = ZINCqH0000006GAC.0
REMARK                            x       y       z     vdW  Elec       q    Type
REMARK                         _______ _______ _______ _____ _____    ______ ____
ROOT
ATOM      1  C   LIG    1       -1.620   5.902   0.291  0.00  0.00    +0.100 A 
ATOM      2  C   LIG    1       -1.833   7.266   0.326  0.00  0.00    +0.020 A 
ATOM      3  C   LIG    1       -0.785   8.142   0.029  0.00  0.00    -0.130 A 
ATOM      4  C   LIG    1        0.474   7.634  -0.298  0.00  0.00    +0.050 A 
ATOM      5  C   LIG    1        0.682   6.271  -0.326  0.00  0.00    -0.040 A 
ATOM      6  C   LIG    1       -0.358   5.401  -0.031  0.00  0.00    +0.130 A 
ENDROOT
BRANCH   3   7
ATOM      7  C   LIG    1       -1.009   9.600   0.059  0.00  0.00    +0.570 C 
ATOM      8  N   LIG    1       -0.152  10.400   0.724  0.00  0.00    -0.610 N 
ATOM      9  C   LIG    1        1.058   9.853   1.357  0.00  0.00    +0.250 C 
ATOM     10  C   LIG    1        1.111  10.347   2.807  0.00  0.00    +0.220 C 
ATOM     11  O   LIG    1        0.972  11.770   2.825  0.00  0.00    -0.380 OA
ATOM     12  C   LIG    1       -0.276  12.243   2.313  0.00  0.00    +0.130 C 
ATOM     13  C   LIG    1       -0.336  13.766   2.441  0.00  0.00    +0.070 C 
ATOM     14  C   LIG    1       -0.396  11.847   0.833  0.00  0.00    +0.260 C 
ATOM     15  O   LIG    1       -1.967  10.080  -0.516  0.00  0.00    -0.530 OA
ENDBRANCH   3   7
BRANCH   1  17
ATOM     16  C   LIG    1       -3.904   5.628   0.895  0.00  0.00    +0.240 C 
ATOM     17  O   LIG    1       -2.639   5.046   0.574  0.00  0.00    -0.300 OA
ENDBRANCH   1  17
BRANCH   6  18
ATOM     18  O   LIG    1       -0.149   4.060  -0.060  0.00  0.00    -0.290 OA
BRANCH  18  19
ATOM     19  C   LIG    1        1.165   3.616  -0.403  0.00  0.00    +0.260 C 
BRANCH  19  20
ATOM     20  C   LIG    1        1.207   2.110  -0.385  0.00  0.00    -0.090 A 
ATOM     21  C   LIG    1        0.071   1.390  -0.067  0.00  0.00    +0.060 A 
ATOM     22  C   LIG    1        0.109   0.008  -0.050  0.00  0.00    +0.020 A 
ATOM     23  C   LIG    1        1.284  -0.655  -0.351  0.00  0.00    +0.030 A 
ATOM     24  C   LIG    1        2.422   0.064  -0.670  0.00  0.00    +0.030 A 
ATOM     25  C   LIG    1        2.384   1.446  -0.687  0.00  0.00    -0.030 A 
ATOM     26 CL   LIG    1        3.811   2.349  -1.087  0.00  0.00    -0.070 Cl
ENDBRANCH  19  20
ENDBRANCH  18  19
ENDBRANCH   6  18
TORSDOF 5
