REMARK  Name = ZINCrD000000BXFH.0
REMARK                            x       y       z     vdW  Elec       q    Type
REMARK                         _______ _______ _______ _____ _____    ______ ____
ROOT
ATOM      1  O   LIG    1       -1.096   3.478   0.026  0.00  0.00    -0.520 OA
ATOM      2  C   LIG    1       -1.215   2.268   0.016  0.00  0.00    +0.600 C 
ATOM      3  N   LIG    1       -2.443   1.712   0.024  0.00  0.00    -0.670 N 
ATOM      4  H   LIG    1       -2.540   0.749  -0.051  0.00  0.00    +0.410 HD
ENDROOT
BRANCH   3   5
ATOM      5  C   LIG    1       -3.575   2.520   0.139  0.00  0.00    +0.180 A 
ATOM      6  C   LIG    1       -3.598   3.771  -0.439  0.00  0.00    +0.030 A 
ATOM      7  C   LIG    1       -4.721   4.585  -0.331  0.00  0.00    +0.090 A 
ATOM      8  C   LIG    1       -5.827   4.171   0.349  0.00  0.00    -0.100 A 
ATOM      9  C   LIG    1       -5.844   2.902   0.954  0.00  0.00    -0.010 A 
ATOM     10  C   LIG    1       -6.970   2.448   1.662  0.00  0.00    +0.030 A 
ATOM     11  C   LIG    1       -6.952   1.214   2.236  0.00  0.00    +0.030 A 
ATOM     12  C   LIG    1       -5.833   0.391   2.133  0.00  0.00    +0.020 A 
ATOM     13  C   LIG    1       -4.724   0.798   1.455  0.00  0.00    +0.020 A 
ATOM     14 BR   LIG    1       -7.337   5.302   0.478  0.00  0.00    -0.040 Br
ATOM     15  C   LIG    1       -4.708   2.062   0.845  0.00  0.00    -0.060 A 
ENDBRANCH   3   5
BRANCH   2  16
ATOM     16  C   LIG    1       -0.017   1.409  -0.005  0.00  0.00    -0.300 A 
ATOM     17  C   LIG    1        1.296   1.835  -0.021  0.00  0.00    +0.330 A 
ATOM     18  N   LIG    1        2.073   0.741  -0.043  0.00  0.00    -0.360 N 
ATOM     19  N   LIG    1        1.248  -0.390  -0.042  0.00  0.00    -0.290 NA
ATOM     20  C   LIG    1        0.002  -0.003  -0.019  0.00  0.00    +0.270 A 
BRANCH  18  21
ATOM     21  C   LIG    1        3.538   0.731  -0.065  0.00  0.00    +0.330 C 
BRANCH  21  22
ATOM     22  C   LIG    1        4.060  -0.110   1.101  0.00  0.00    +0.180 C 
BRANCH  22  23
ATOM     23  N   LIG    1        5.529  -0.120   1.080  0.00  0.00    -0.540 NA
ATOM     24  C   LIG    1        6.033  -0.827  -0.106  0.00  0.00    +0.150 C 
ATOM     25  C   LIG    1        7.563  -0.761  -0.120  0.00  0.00    +0.220 C 
ATOM     26  O   LIG    1        8.070  -1.315   1.097  0.00  0.00    -0.380 OA
ATOM     27  C   LIG    1        7.599  -0.650   2.272  0.00  0.00    +0.220 C 
ATOM     28  C   LIG    1        6.070  -0.715   2.310  0.00  0.00    +0.160 C 
ENDBRANCH  22  23
ENDBRANCH  21  22
ENDBRANCH  18  21
ENDBRANCH   2  16
TORSDOF 5
