REMARK  Name = ZINCrH000004uBQm.0
REMARK                            x       y       z     vdW  Elec       q    Type
REMARK                         _______ _______ _______ _____ _____    ______ ____
ROOT
ATOM      1  C   LIG    1        3.990   2.940  -0.024  0.00  0.00    -0.100 A 
ATOM      2  C   LIG    1        3.331   2.707  -1.217  0.00  0.00    +0.030 A 
ATOM      3  C   LIG    1        2.035   2.228  -1.208  0.00  0.00    +0.030 A 
ATOM      4  C   LIG    1        1.396   1.982  -0.007  0.00  0.00    -0.110 A 
ATOM      5  C   LIG    1        2.053   2.220   1.186  0.00  0.00    +0.020 A 
ATOM      6  C   LIG    1        3.351   2.694   1.178  0.00  0.00    +0.030 A 
ENDROOT
BRANCH   1   7
ATOM      7  C   LIG    1        5.403   3.462  -0.033  0.00  0.00    +0.340 C 
BRANCH   7  17
ATOM      8  O   LIG    1        7.600   5.028   0.050  0.00  0.00    -0.580 OA
ATOM      9  C   LIG    1        6.540   5.618  -0.030  0.00  0.00    +0.710 C 
ATOM     10  N   LIG    1        6.522   6.962  -0.124  0.00  0.00    -0.620 N 
ATOM     11  C   LIG    1        5.258   7.666  -0.108  0.00  0.00    +0.260 C 
ATOM     12  C   LIG    1        4.632   7.627  -1.515  0.00  0.00    +0.010 C 
ATOM     13  C   LIG    1        5.184   8.629  -2.419  0.00  0.00    +0.110 C 
ATOM     14  S   LIG    1        6.946   8.346  -2.788  0.00  0.00    -0.240 S 
ATOM     15  C   LIG    1        7.771   8.844  -1.269  0.00  0.00    +0.100 C 
ATOM     16  C   LIG    1        7.782   7.699  -0.236  0.00  0.00    +0.300 C 
ATOM     17  N   LIG    1        5.382   4.927  -0.024  0.00  0.00    -0.740 N 
ATOM     18  H   LIG    1        4.535   5.400  -0.014  0.00  0.00    +0.400 HD
ENDBRANCH   7  17
ENDBRANCH   1   7
BRANCH   4  19
ATOM     19  C   LIG    1       -0.018   1.460   0.002  0.00  0.00    +0.360 C 
BRANCH  19  20
ATOM     20  N   LIG    1        0.003  -0.005  -0.006  0.00  0.00    -0.490 N 
ATOM     21  C   LIG    1       -0.091  -0.806  -1.102  0.00  0.00    +0.470 A 
ATOM     22  N   LIG    1       -0.039  -2.057  -0.747  0.00  0.00    -0.490 NA
ATOM     23  C   LIG    1        0.091  -2.143   0.602  0.00  0.00    +0.040 A 
ATOM     24  C   LIG    1        0.191  -3.214   1.494  0.00  0.00    +0.070 A 
ATOM     25  C   LIG    1        0.316  -2.975   2.833  0.00  0.00    +0.000 A 
ATOM     26  C   LIG    1        0.344  -1.677   3.321  0.00  0.00    +0.030 A 
ATOM     27  C   LIG    1        0.247  -0.605   2.460  0.00  0.00    +0.010 A 
ATOM     28  C   LIG    1        0.126  -0.828   1.095  0.00  0.00    +0.050 A 
ENDBRANCH  19  20
ENDBRANCH   4  19
TORSDOF 4
