REMARK  Name = ZINCrD000000DbIC.0
REMARK                            x       y       z     vdW  Elec       q    Type
REMARK                         _______ _______ _______ _____ _____    ______ ____
ROOT
ATOM      1  N   LIG    1       -2.115   1.088   1.265  0.00  0.00    -0.520 NA
ATOM      2  C   LIG    1       -2.861   1.601   0.109  0.00  0.00    +0.180 C 
ATOM      3  C   LIG    1       -2.206   1.108  -1.183  0.00  0.00    +0.050 C 
ATOM      4  C   LIG    1       -0.755   1.594  -1.231  0.00  0.00    +0.030 C 
ATOM      5  C   LIG    1       -0.013   1.086   0.008  0.00  0.00    +0.140 C 
ATOM      6  C   LIG    1       -0.731   1.580   1.266  0.00  0.00    +0.190 C 
ENDROOT
BRANCH   5   7
ATOM      7  C   LIG    1        1.401   1.608  -0.003  0.00  0.00    +0.260 A 
ATOM      8  N   LIG    1        2.467   0.866  -0.017  0.00  0.00    -0.470 NA
ATOM      9  C   LIG    1        3.563   1.672  -0.024  0.00  0.00    +0.020 A 
ATOM     10  C   LIG    1        4.938   1.433  -0.038  0.00  0.00    +0.080 A 
ATOM     11  C   LIG    1        5.815   2.494  -0.041  0.00  0.00    +0.020 A 
ATOM     12  C   LIG    1        5.341   3.797  -0.030  0.00  0.00    +0.050 A 
ATOM     13  C   LIG    1        3.985   4.048  -0.016  0.00  0.00    +0.040 A 
ATOM     14  C   LIG    1        3.087   2.992  -0.012  0.00  0.00    +0.010 A 
ATOM     15  O   LIG    1        1.738   2.907  -0.005  0.00  0.00    -0.210 OA
ENDBRANCH   5   7
BRANCH   1  16
ATOM     16  C   LIG    1       -2.794   1.427   2.523  0.00  0.00    +0.510 C 
BRANCH  16  27
ATOM     17  O   LIG    1       -1.090   2.097   4.497  0.00  0.00    -0.520 OA
ATOM     18  C   LIG    1       -1.603   3.029   3.903  0.00  0.00    +0.530 A 
ATOM     19  C   LIG    1       -1.282   4.415   4.266  0.00  0.00    -0.130 A 
ATOM     20  C   LIG    1       -0.390   4.721   5.292  0.00  0.00    +0.080 A 
ATOM     21  C   LIG    1       -0.130   6.040   5.595  0.00  0.00    +0.030 A 
ATOM     22  C   LIG    1       -0.747   7.065   4.889  0.00  0.00    +0.050 A 
ATOM     23  C   LIG    1       -1.632   6.786   3.871  0.00  0.00    +0.050 A 
ATOM     24  C   LIG    1       -1.911   5.457   3.546  0.00  0.00    -0.070 A 
ATOM     25  C   LIG    1       -2.844   5.104   2.475  0.00  0.00    +0.320 A 
ATOM     26  N   LIG    1       -3.078   3.855   2.203  0.00  0.00    -0.240 NA
ATOM     27  N   LIG    1       -2.473   2.806   2.896  0.00  0.00    -0.450 N 
ENDBRANCH  16  27
ENDBRANCH   1  16
TORSDOF 3
