REMARK  Name = ZINCrH000004p1Pv.2
REMARK                            x       y       z     vdW  Elec       q    Type
REMARK                         _______ _______ _______ _____ _____    ______ ____
ROOT
ATOM      1  C   LIG    1       -1.298   2.588  -0.320  0.00  0.00    +0.530 C 
ATOM      2  N   LIG    1       -0.511   3.680  -0.387  0.00  0.00    -0.680 N 
ATOM      3  H   LIG    1        0.391   3.650  -0.033  0.00  0.00    +0.410 HD
ATOM      4  O   LIG    1       -2.452   2.648  -0.691  0.00  0.00    -0.500 OA
ENDROOT
BRANCH   2   5
ATOM      5  C   LIG    1       -0.997   4.859  -0.970  0.00  0.00    +0.130 A 
ATOM      6  C   LIG    1       -0.141   5.679  -1.693  0.00  0.00    +0.000 A 
ATOM      7  C   LIG    1       -0.620   6.838  -2.271  0.00  0.00    -0.020 A 
ATOM      8  C   LIG    1       -1.956   7.188  -2.120  0.00  0.00    +0.090 A 
ATOM      9  C   LIG    1       -2.810   6.370  -1.393  0.00  0.00    +0.010 A 
ATOM     10  C   LIG    1       -2.332   5.208  -0.820  0.00  0.00    +0.050 A 
BRANCH   8  11
ATOM     11  N   LIG    1       -2.440   8.365  -2.700  0.00  0.00    -0.490 N 
ATOM     12  C   LIG    1       -3.574   8.085  -3.594  0.00  0.00    +0.160 C 
ATOM     13  C   LIG    1       -4.109   9.403  -4.159  0.00  0.00    +0.220 C 
ATOM     14  O   LIG    1       -3.051  10.094  -4.828  0.00  0.00    -0.380 OA
ATOM     15  C   LIG    1       -1.931  10.384  -3.987  0.00  0.00    +0.220 C 
ATOM     16  C   LIG    1       -1.373   9.076  -3.420  0.00  0.00    +0.160 C 
ENDBRANCH   8  11
ENDBRANCH   2   5
BRANCH   1  18
ATOM     17  C   LIG    1       -0.265   1.492   1.650  0.00  0.00    +0.060 C 
ATOM     18  C   LIG    1       -0.744   1.291   0.211  0.00  0.00    +0.130 C 
BRANCH  18  19
ATOM     19  N   LIG    1       -1.791   0.262   0.182  0.00  0.00    -0.490 NA
ATOM     20  C   LIG    1       -1.387  -0.928   0.960  0.00  0.00    +0.180 C 
ATOM     21  C   LIG    1       -2.021  -2.126   0.209  0.00  0.00    +0.030 C 
ATOM     22  C   LIG    1       -1.868  -1.684  -1.270  0.00  0.00    +0.010 C 
ATOM     23  C   LIG    1       -2.082  -0.157  -1.201  0.00  0.00    +0.260 C 
BRANCH  23  24
ATOM     24  C   LIG    1       -1.146   0.538  -2.155  0.00  0.00    -0.200 A 
ATOM     25  C   LIG    1       -1.490   1.519  -2.992  0.00  0.00    +0.040 A 
ATOM     26  C   LIG    1       -0.457   2.006  -3.775  0.00  0.00    +0.010 A 
ATOM     27  C   LIG    1        0.725   1.422  -3.574  0.00  0.00    -0.050 A 
ATOM     28  S   LIG    1        0.569   0.188  -2.330  0.00  0.00    +0.080 S 
ENDBRANCH  23  24
ENDBRANCH  18  19
ENDBRANCH   1  18
TORSDOF 5
