REMARK  Name = ZINCpe000000UpXC.0
REMARK                            x       y       z     vdW  Elec       q    Type
REMARK                         _______ _______ _______ _____ _____    ______ ____
ROOT
ATOM      1  N   LIG    1        2.115   5.755  -2.490  0.00  0.00    -0.740 N 
ATOM      2  H   LIG    1        1.355   6.356  -2.437  0.00  0.00    +0.400 HD
ATOM      3  C   LIG    1        1.987   4.471  -2.100  0.00  0.00    +0.710 C 
ATOM      4  N   LIG    1        0.804   4.022  -1.637  0.00  0.00    -0.730 N 
ATOM      5  H   LIG    1        0.044   4.623  -1.584  0.00  0.00    +0.400 HD
ATOM      6  O   LIG    1        2.939   3.718  -2.167  0.00  0.00    -0.590 OA
ENDROOT
BRANCH   4   7
ATOM      7  C   LIG    1        0.665   2.626  -1.213  0.00  0.00    +0.260 C 
ATOM      8  C   LIG    1       -0.799   2.196  -1.330  0.00  0.00    +0.040 C 
ATOM      9  C   LIG    1       -0.906   0.691  -1.495  0.00  0.00    +0.030 C 
ATOM     10  C   LIG    1       -0.466  -0.092  -0.272  0.00  0.00    +0.010 C 
ATOM     11  C   LIG    1        1.037   0.068  -0.034  0.00  0.00    +0.270 C 
ATOM     12  N   LIG    1        1.259   1.280   0.771  0.00  0.00    -0.720 N 
ATOM     13  H   LIG    1        1.529   1.199   1.700  0.00  0.00    +0.400 HD
ATOM     14  C   LIG    1        1.093   2.489   0.233  0.00  0.00    +0.510 C 
ATOM     15  O   LIG    1        1.283   3.481   0.904  0.00  0.00    -0.540 OA
ENDBRANCH   4   7
BRANCH   1  16
ATOM     16  C   LIG    1        3.401   6.244  -2.994  0.00  0.00    +0.280 C 
BRANCH  16  17
ATOM     17  C   LIG    1        3.275   7.723  -3.364  0.00  0.00    +0.070 C 
BRANCH  17  22
ATOM     18  C   LIG    1        6.745   9.226  -3.490  0.00  0.00    -0.130 A 
ATOM     19  C   LIG    1        7.027   9.147  -4.854  0.00  0.00    +0.040 A 
ATOM     20  C   LIG    1        6.095   8.608  -5.718  0.00  0.00    +0.010 A 
ATOM     21  C   LIG    1        4.884   8.149  -5.234  0.00  0.00    +0.040 A 
ATOM     22  C   LIG    1        4.598   8.225  -3.882  0.00  0.00    -0.090 A 
ATOM     23  C   LIG    1        5.519   8.765  -3.009  0.00  0.00    +0.070 A 
BRANCH  18  26
ATOM     24  C   LIG    1       10.025  10.020  -1.745  0.00  0.00    +0.290 C 
ATOM     25  N   LIG    1        9.051   9.539  -2.727  0.00  0.00    -0.620 N 
ATOM     26  C   LIG    1        7.739   9.801  -2.559  0.00  0.00    +0.560 C 
ATOM     27  O   LIG    1        7.374  10.510  -1.642  0.00  0.00    -0.530 OA
ATOM     28  C   LIG    1        9.501   8.773  -3.891  0.00  0.00    +0.290 C 
ENDBRANCH  18  26
ENDBRANCH  17  22
ENDBRANCH  16  17
ENDBRANCH   1  16
TORSDOF 5
