REMARK  Name = ZINCqH0000003JVS.0
REMARK                            x       y       z     vdW  Elec       q    Type
REMARK                         _______ _______ _______ _____ _____    ______ ____
ROOT
ATOM      1  C   LIG    1        1.652   6.235   0.528  0.00  0.00    +0.510 C 
ATOM      2  N   LIG    1        2.274   5.107   0.923  0.00  0.00    -0.730 N 
ATOM      3  H   LIG    1        2.625   5.036   1.825  0.00  0.00    +0.400 HD
ATOM      4  O   LIG    1        1.213   6.323  -0.599  0.00  0.00    -0.510 OA
ENDROOT
BRANCH   2   5
ATOM      5  C   LIG    1        2.422   3.986  -0.010  0.00  0.00    +0.290 C 
ATOM      6  C   LIG    1        3.626   3.143   0.403  0.00  0.00    +0.020 C 
ATOM      7  C   LIG    1        3.636   1.866  -0.446  0.00  0.00    +0.030 C 
ATOM      8  C   LIG    1        2.465   0.988  -0.009  0.00  0.00    +0.080 C 
ATOM      9  C   LIG    1        1.184   1.781   0.000  0.00  0.00    -0.070 A 
ATOM     10  C   LIG    1       -0.013   1.076   0.008  0.00  0.00    -0.010 A 
ATOM     11  C   LIG    1       -1.220   1.744   0.017  0.00  0.00    +0.010 A 
ATOM     12  C   LIG    1       -1.240   3.126   0.032  0.00  0.00    -0.010 A 
ATOM     13  C   LIG    1       -0.052   3.828   0.025  0.00  0.00    +0.020 A 
ATOM     14  C   LIG    1        1.164   3.158   0.006  0.00  0.00    -0.100 A 
ENDBRANCH   2   5
BRANCH   1  15
ATOM     15  C   LIG    1        1.500   7.387   1.488  0.00  0.00    +0.210 C 
BRANCH  15  16
ATOM     16  N   LIG    1        0.792   8.489   0.822  0.00  0.00    -0.520 NA
ATOM     17  C   LIG    1        1.599   9.048  -0.271  0.00  0.00    +0.190 C 
BRANCH  16  18
ATOM     18  C   LIG    1        0.416   9.532   1.786  0.00  0.00    +0.220 C 
BRANCH  18  22
ATOM     19  C   LIG    1       -2.216  12.326  -0.092  0.00  0.00    +0.130 A 
ATOM     20  C   LIG    1       -2.732  11.213   0.557  0.00  0.00    -0.020 A 
ATOM     21  C   LIG    1       -1.879  10.312   1.163  0.00  0.00    +0.070 A 
ATOM     22  C   LIG    1       -0.512  10.517   1.123  0.00  0.00    -0.120 A 
ATOM     23  C   LIG    1        0.004  11.627   0.481  0.00  0.00    +0.050 A 
ATOM     24  C   LIG    1       -0.844  12.529  -0.131  0.00  0.00    -0.080 A 
BRANCH  19  25
ATOM     25  O   LIG    1       -3.053  13.214  -0.689  0.00  0.00    -0.320 OA
BRANCH  25  27
ATOM     26  C   LIG    1       -3.544  15.219  -1.947  0.00  0.00    +0.070 C 
ATOM     27  C   LIG    1       -2.452  14.336  -1.339  0.00  0.00    +0.170 C 
ENDBRANCH  25  27
ENDBRANCH  19  25
ENDBRANCH  18  22
ENDBRANCH  16  18
ENDBRANCH  15  16
ENDBRANCH   1  15
TORSDOF 7
