REMARK  Name = ZINCpk00000y6uT0.0
REMARK                            x       y       z     vdW  Elec       q    Type
REMARK                         _______ _______ _______ _____ _____    ______ ____
ROOT
ATOM      1  C   LIG    1        1.279   2.028   0.001  0.00  0.00    +0.280 C 
ATOM      2  C   LIG    1        2.030   1.630   1.276  0.00  0.00    +0.310 C 
ATOM      3  N   LIG    1        1.992   0.164   1.399  0.00  0.00    -1.000 NA
ATOM      4  C   LIG    1        0.688  -0.507   1.278  0.00  0.00    +0.280 C 
ATOM      5  C   LIG    1        0.002  -0.004   0.002  0.00  0.00    +0.230 C 
ATOM      6  O   LIG    1       -0.017   1.425   0.010  0.00  0.00    -0.350 OA
ENDROOT
BRANCH   1  10
ATOM      7  C   LIG    1        1.386   5.602  -0.563  0.00  0.00    +0.180 A 
ATOM      8  N   LIG    1        0.467   5.490   0.353  0.00  0.00    -0.290 NA
ATOM      9  N   LIG    1        0.314   4.249   0.655  0.00  0.00    -0.250 NA
ATOM     10  C   LIG    1        1.136   3.528  -0.052  0.00  0.00    +0.150 A 
ATOM     11  O   LIG    1        1.830   4.365  -0.841  0.00  0.00    -0.220 OA
BRANCH   7  13
ATOM     12  C   LIG    1        3.030   7.450  -0.385  0.00  0.00    +0.060 C 
ATOM     13  C   LIG    1        1.863   6.884  -1.196  0.00  0.00    +0.190 C 
ENDBRANCH   7  13
ENDBRANCH   1  10
BRANCH   3  14
ATOM     14  S   LIG    1        3.376  -0.705   1.664  0.00  0.00    +2.600 S 
ATOM     15  O   LIG    1        2.929  -1.885   2.318  0.00  0.00    -0.930 OA
ATOM     16  O   LIG    1        4.245   0.210   2.317  0.00  0.00    -0.940 OA
BRANCH  14  17
ATOM     17  C   LIG    1        3.992  -1.093   0.002  0.00  0.00    -0.290 C 
BRANCH  17  18
ATOM     18  C   LIG    1        5.265  -1.893   0.113  0.00  0.00    -0.100 A 
ATOM     19  C   LIG    1        5.210  -3.274   0.164  0.00  0.00    +0.070 A 
ATOM     20  C   LIG    1        6.374  -4.016   0.265  0.00  0.00    +0.030 A 
ATOM     21  C   LIG    1        7.598  -3.382   0.316  0.00  0.00    +0.080 A 
ATOM     22  C   LIG    1        7.660  -1.988   0.265  0.00  0.00    -0.020 A 
ATOM     23  C   LIG    1        6.483  -1.245   0.157  0.00  0.00    +0.080 A 
BRANCH  22  24
ATOM     24  C   LIG    1        8.928  -1.322   0.317  0.00  0.00    +0.250 C 
ATOM     25  N   LIG    1        9.933  -0.794   0.358  0.00  0.00    -0.400 NA
ENDBRANCH  22  24
ENDBRANCH  17  18
ENDBRANCH  14  17
ENDBRANCH   3  14
TORSDOF 6
