REMARK  Name = ZINCpk000000pHbx.0
REMARK                            x       y       z     vdW  Elec       q    Type
REMARK                         _______ _______ _______ _____ _____    ______ ____
ROOT
ATOM      1  C   LIG    1       -0.753   1.593  -1.232  0.00  0.00    +0.250 C 
ENDROOT
BRANCH   1   6
ATOM      2  C   LIG    1        3.372   2.025  -3.494  0.00  0.00    +0.000 C 
ATOM      3  C   LIG    1        1.955   1.706  -4.025  0.00  0.00    +0.270 C 
ATOM      4  N   LIG    1        1.087   1.941  -2.849  0.00  0.00    -0.620 N 
ATOM      5  C   LIG    1        1.632   3.134  -2.175  0.00  0.00    +0.210 C 
ATOM      6  C   LIG    1        0.019   1.211  -2.468  0.00  0.00    +0.520 C 
ATOM      7  O   LIG    1       -0.320   0.247  -3.122  0.00  0.00    -0.500 OA
ATOM      8  C   LIG    1        3.124   3.221  -2.546  0.00  0.00    +0.170 C 
BRANCH   2  10
ATOM      9  C   LIG    1        4.632   1.192  -5.485  0.00  0.00    +0.020 C 
ATOM     10  C   LIG    1        4.308   2.424  -4.637  0.00  0.00    +0.030 C 
ENDBRANCH   2  10
BRANCH   8  11
ATOM     11  O   LIG    1        3.935   3.105  -1.375  0.00  0.00    -0.560 OA
ATOM     12  H   LIG    1        3.789   3.805  -0.725  0.00  0.00    +0.380 HD
ENDBRANCH   8  11
ENDBRANCH   1   6
BRANCH   1  13
ATOM     13  N   LIG    1       -2.087   0.991  -1.284  0.00  0.00    -0.720 N 
ATOM     14  H   LIG    1       -2.875   1.556  -1.270  0.00  0.00    +0.400 HD
ATOM     15  C   LIG    1       -2.220  -0.349  -1.350  0.00  0.00    +0.520 C 
ATOM     16  O   LIG    1       -1.235  -1.056  -1.367  0.00  0.00    -0.520 OA
ATOM     17  C   LIG    1       -3.593  -0.968  -1.404  0.00  0.00    +0.080 C 
ENDBRANCH   1  13
BRANCH   1  18
ATOM     18  C   LIG    1       -0.013   1.086   0.008  0.00  0.00    +0.120 C 
BRANCH  18  19
ATOM     19  C   LIG    1       -0.718   1.572   1.248  0.00  0.00    -0.160 A 
ATOM     20  C   LIG    1       -0.420   2.672   1.957  0.00  0.00    +0.220 A 
ATOM     21  N   LIG    1       -1.277   2.791   3.017  0.00  0.00    -0.590 N 
ATOM     22  H   LIG    1       -1.258   3.506   3.672  0.00  0.00    +0.420 HD
ATOM     23  C   LIG    1       -2.171   1.743   3.016  0.00  0.00    +0.090 A 
ATOM     24  C   LIG    1       -3.228   1.385   3.846  0.00  0.00    -0.010 A 
ATOM     25  C   LIG    1       -3.956   0.247   3.575  0.00  0.00    +0.020 A 
ATOM     26  C   LIG    1       -3.645  -0.548   2.480  0.00  0.00    -0.030 A 
ATOM     27  C   LIG    1       -2.610  -0.215   1.652  0.00  0.00    +0.050 A 
ATOM     28  C   LIG    1       -1.863   0.937   1.904  0.00  0.00    -0.090 A 
ENDBRANCH  18  19
ENDBRANCH   1  18
TORSDOF 6
