REMARK  Name = ZINCqH0000006IhL.0
REMARK                            x       y       z     vdW  Elec       q    Type
REMARK                         _______ _______ _______ _____ _____    ______ ____
ROOT
ATOM      1  C   LIG    1        5.686  -0.714   1.389  0.00  0.00    +0.520 C 
ATOM      2  N   LIG    1        4.659  -0.029   0.849  0.00  0.00    -0.720 N 
ATOM      3  H   LIG    1        4.548   0.914   1.045  0.00  0.00    +0.400 HD
ATOM      4  O   LIG    1        5.825  -1.893   1.143  0.00  0.00    -0.500 OA
ENDROOT
BRANCH   1   5
ATOM      5  C   LIG    1        6.663  -0.014   2.298  0.00  0.00    +0.240 C 
BRANCH   5   6
ATOM      6  O   LIG    1        7.654  -0.945   2.740  0.00  0.00    -0.270 OA
BRANCH   6  12
ATOM      7  C   LIG    1        9.613  -1.328   4.040  0.00  0.00    +0.090 A 
ATOM      8  C   LIG    1       10.593  -0.850   4.887  0.00  0.00    +0.030 A 
ATOM      9  C   LIG    1       10.583   0.496   5.274  0.00  0.00    -0.170 A 
ATOM     10  C   LIG    1        9.579   1.349   4.800  0.00  0.00    +0.070 A 
ATOM     11  C   LIG    1        8.608   0.864   3.951  0.00  0.00    -0.050 A 
ATOM     12  C   LIG    1        8.616  -0.472   3.573  0.00  0.00    +0.130 A 
BRANCH   9  13
ATOM     13  C   LIG    1       11.622   1.011   6.174  0.00  0.00    +0.400 C 
ATOM     14  O   LIG    1       12.431   0.252   6.664  0.00  0.00    -0.460 OA
ATOM     15  C   LIG    1       11.683   2.483   6.490  0.00  0.00    +0.070 C 
ENDBRANCH   9  13
BRANCH   7  17
ATOM     16  C   LIG    1       10.669  -3.454   4.180  0.00  0.00    +0.250 C 
ATOM     17  O   LIG    1        9.619  -2.635   3.663  0.00  0.00    -0.300 OA
ENDBRANCH   7  17
ENDBRANCH   6  12
ENDBRANCH   5   6
ENDBRANCH   1   5
BRANCH   2  18
ATOM     18  C   LIG    1        3.710  -0.709  -0.036  0.00  0.00    +0.290 C 
BRANCH  18  19
ATOM     19  C   LIG    1        2.391   0.020  -0.012  0.00  0.00    -0.090 A 
ATOM     20  C   LIG    1        1.207  -0.694  -0.006  0.00  0.00    +0.020 A 
ATOM     21  C   LIG    1       -0.003  -0.026   0.015  0.00  0.00    +0.020 A 
ATOM     22  C   LIG    1       -0.029   1.356   0.032  0.00  0.00    +0.000 A 
ATOM     23  C   LIG    1        1.155   2.070   0.027  0.00  0.00    +0.000 A 
ATOM     24  C   LIG    1        2.365   1.402   0.004  0.00  0.00    +0.000 A 
ENDBRANCH  18  19
BRANCH  18  25
ATOM     25  C   LIG    1        4.260  -0.721  -1.463  0.00  0.00    -0.030 C 
ATOM     26  C   LIG    1        3.269  -1.431  -2.386  0.00  0.00    +0.030 C 
ATOM     27  C   LIG    1        5.599  -1.461  -1.487  0.00  0.00    +0.030 C 
ENDBRANCH  18  25
ENDBRANCH   2  18
TORSDOF 8
