REMARK  Name = ZINCpk000000oYf6.0
REMARK                            x       y       z     vdW  Elec       q    Type
REMARK                         _______ _______ _______ _____ _____    ______ ____
ROOT
ATOM      1  C   LIG    1        4.263  -5.392  -2.185  0.00  0.00    +0.650 C 
ATOM      2  N   LIG    1        4.181  -4.054  -2.046  0.00  0.00    -0.600 N 
ATOM      3  C   LIG    1        5.395  -3.244  -1.873  0.00  0.00    +0.300 C 
ATOM      4  C   LIG    1        5.253  -2.416  -0.591  0.00  0.00    +0.290 C 
ATOM      5  N   LIG    1        3.948  -1.740  -0.609  0.00  0.00    -0.610 N 
ATOM      6  C   LIG    1        2.734  -2.551  -0.776  0.00  0.00    +0.270 C 
ATOM      7  C   LIG    1        3.866  -0.402  -0.470  0.00  0.00    +0.570 C 
ATOM      8  O   LIG    1        4.880   0.266  -0.406  0.00  0.00    -0.510 OA
ATOM      9  C   LIG    1        2.876  -3.378  -2.065  0.00  0.00    +0.290 C 
ATOM     10  O   LIG    1        5.348  -5.939  -2.169  0.00  0.00    -0.570 OA
ENDROOT
BRANCH   7  11
ATOM     11  C   LIG    1        2.543   0.254  -0.396  0.00  0.00    +0.010 A 
ATOM     12  C   LIG    1        2.187   1.054   0.712  0.00  0.00    -0.190 A 
ATOM     13  C   LIG    1        2.848   1.430   1.901  0.00  0.00    +0.120 A 
ATOM     14  N   LIG    1        2.054   2.196   2.593  0.00  0.00    -0.240 NA
ATOM     15  N   LIG    1        0.844   2.364   1.910  0.00  0.00    -0.390 N 
ATOM     16  C   LIG    1       -0.299   3.157   2.369  0.00  0.00    +0.360 C 
ATOM     17  C   LIG    1        4.240   1.015   2.302  0.00  0.00    +0.180 C 
ATOM     18  C   LIG    1        0.913   1.658   0.737  0.00  0.00    +0.320 A 
ATOM     19  N   LIG    1        0.068   1.473  -0.267  0.00  0.00    -0.490 NA
ATOM     20  C   LIG    1        0.376   0.733  -1.309  0.00  0.00    +0.200 A 
ATOM     21  C   LIG    1       -0.633   0.566  -2.416  0.00  0.00    +0.140 C 
ATOM     22  C   LIG    1        1.606   0.102  -1.416  0.00  0.00    -0.040 A 
ENDBRANCH   7  11
BRANCH   1  23
ATOM     23  O   LIG    1        3.143  -6.122  -2.343  0.00  0.00    -0.370 OA
BRANCH  23  25
ATOM     24  C   LIG    1        1.935  -8.214  -2.653  0.00  0.00    +0.070 C 
ATOM     25  C   LIG    1        3.307  -7.558  -2.486  0.00  0.00    +0.220 C 
ENDBRANCH  23  25
ENDBRANCH   1  23
TORSDOF 3
