REMARK  Name = ZINCnE000001Qsvd.0
REMARK                            x       y       z     vdW  Elec       q    Type
REMARK                         _______ _______ _______ _____ _____    ______ ____
ROOT
ATOM      1  C   LIG    1       -2.255  -2.409  -1.539  0.00  0.00    +0.550 C 
ATOM      2  N   LIG    1       -1.159  -1.818  -1.024  0.00  0.00    -0.690 N 
ATOM      3  H   LIG    1       -0.277  -2.078  -1.333  0.00  0.00    +0.400 HD
ATOM      4  O   LIG    1       -3.359  -2.023  -1.217  0.00  0.00    -0.550 OA
ENDROOT
BRANCH   1   7
ATOM      5  C   LIG    1       -3.392  -4.174  -3.067  0.00  0.00    +0.090 C 
ATOM      6  C   LIG    1       -2.523  -3.291  -3.966  0.00  0.00    +0.060 C 
ATOM      7  C   LIG    1       -2.109  -3.547  -2.516  0.00  0.00    -0.040 C 
BRANCH   5  10
ATOM      8  C   LIG    1       -5.237  -6.153  -1.740  0.00  0.00    +0.110 C 
ATOM      9  C   LIG    1       -4.192  -6.546  -2.752  0.00  0.00    -0.100 A 
ATOM     10  C   LIG    1       -3.383  -5.658  -3.330  0.00  0.00    -0.140 A 
ATOM     11  S   LIG    1       -2.299  -6.483  -4.443  0.00  0.00    +0.090 S 
ATOM     12  C   LIG    1       -3.032  -8.034  -4.053  0.00  0.00    -0.060 A 
ATOM     13  C   LIG    1       -4.002  -7.857  -3.155  0.00  0.00    +0.010 A 
ENDBRANCH   5  10
ENDBRANCH   1   7
BRANCH   2  14
ATOM     14  C   LIG    1       -1.298  -0.784   0.004  0.00  0.00    +0.310 C 
BRANCH  14  15
ATOM     15  C   LIG    1       -1.448   0.563  -0.655  0.00  0.00    -0.080 A 
ATOM     16  C   LIG    1       -2.341   1.487  -0.146  0.00  0.00    +0.010 A 
ATOM     17  C   LIG    1       -2.477   2.723  -0.751  0.00  0.00    +0.000 A 
ATOM     18  C   LIG    1       -1.722   3.034  -1.866  0.00  0.00    -0.010 A 
ATOM     19  C   LIG    1       -0.828   2.110  -2.374  0.00  0.00    +0.000 A 
ATOM     20  C   LIG    1       -0.691   0.875  -1.769  0.00  0.00    +0.010 A 
ENDBRANCH  14  15
BRANCH  14  21
ATOM     21  C   LIG    1       -0.056  -0.780   0.896  0.00  0.00    -0.060 C 
BRANCH  21  22
ATOM     22  C   LIG    1        0.018  -2.076   1.661  0.00  0.00    +0.490 C 
ATOM     23  O   LIG    1        0.990  -2.320   2.356  0.00  0.00    -0.700 OA
ATOM     24  O   LIG    1       -0.895  -2.881   1.585  0.00  0.00    -0.680 OA
ENDBRANCH  21  22
ENDBRANCH  14  21
ENDBRANCH   2  14
TORSDOF 6
