REMARK  Name = ZINCqH000000730e.0
REMARK                            x       y       z     vdW  Elec       q    Type
REMARK                         _______ _______ _______ _____ _____    ______ ____
ROOT
ATOM      1  C   LIG    1        7.080  -5.379  -1.042  0.00  0.00    +0.570 C 
ATOM      2  N   LIG    1        6.206  -4.376  -0.828  0.00  0.00    -0.610 N 
ATOM      3  C   LIG    1        5.518  -3.730  -1.954  0.00  0.00    +0.270 C 
ATOM      4  C   LIG    1        5.745  -2.217  -1.869  0.00  0.00    +0.030 C 
ATOM      5  C   LIG    1        5.304  -1.716  -0.492  0.00  0.00    +0.100 C 
ATOM      6  C   LIG    1        6.145  -2.393   0.593  0.00  0.00    +0.030 C 
ATOM      7  C   LIG    1        5.922  -3.908   0.535  0.00  0.00    +0.290 C 
ATOM      8  O   LIG    1        7.718  -5.838  -0.114  0.00  0.00    -0.530 OA
ENDROOT
BRANCH   5   9
ATOM      9  C   LIG    1        5.495  -0.223  -0.416  0.00  0.00    +0.290 A 
ATOM     10  N   LIG    1        4.571   0.659  -0.660  0.00  0.00    -0.490 NA
ATOM     11  C   LIG    1        5.079   1.909  -0.499  0.00  0.00    +0.050 A 
ATOM     12  C   LIG    1        4.541   3.191  -0.628  0.00  0.00    +0.070 A 
ATOM     13  C   LIG    1        5.325   4.285  -0.393  0.00  0.00    +0.000 A 
ATOM     14  C   LIG    1        6.654   4.137  -0.025  0.00  0.00    +0.030 A 
ATOM     15  C   LIG    1        7.207   2.881   0.108  0.00  0.00    +0.010 A 
ATOM     16  C   LIG    1        6.425   1.758  -0.126  0.00  0.00    +0.050 A 
ATOM     17  N   LIG    1        6.659   0.398  -0.083  0.00  0.00    -0.600 N 
ATOM     18  H   LIG    1        7.497  -0.035   0.143  0.00  0.00    +0.420 HD
ENDBRANCH   5   9
BRANCH   1  22
ATOM     19  C   LIG    1        7.607  -6.942  -4.957  0.00  0.00    +0.120 A 
ATOM     20  C   LIG    1        8.690  -6.858  -4.092  0.00  0.00    -0.040 A 
ATOM     21  C   LIG    1        8.523  -6.351  -2.822  0.00  0.00    +0.110 A 
ATOM     22  C   LIG    1        7.262  -5.922  -2.402  0.00  0.00    -0.150 A 
ATOM     23  C   LIG    1        6.172  -6.013  -3.272  0.00  0.00    +0.070 A 
ATOM     24  C   LIG    1        6.348  -6.515  -4.544  0.00  0.00    +0.060 A 
ATOM     25  F   LIG    1        5.296  -6.599  -5.388  0.00  0.00    -0.130 F 
BRANCH  19  27
ATOM     26  C   LIG    1        9.094  -7.861  -6.566  0.00  0.00    +0.250 C 
ATOM     27  O   LIG    1        7.776  -7.442  -6.208  0.00  0.00    -0.300 OA
ENDBRANCH  19  27
ENDBRANCH   1  22
TORSDOF 3
