REMARK  Name = ZINCqH00000322oh.0
REMARK                            x       y       z     vdW  Elec       q    Type
REMARK                         _______ _______ _______ _____ _____    ______ ____
ROOT
ATOM      1  N   LIG    1        4.507  -4.048  -5.122  0.00  0.00    -0.690 N 
ATOM      2  H   LIG    1        3.628  -4.041  -4.713  0.00  0.00    +0.400 HD
ATOM      3  C   LIG    1        5.324  -2.985  -4.982  0.00  0.00    +0.710 C 
ATOM      4  N   LIG    1        4.985  -1.980  -4.150  0.00  0.00    -0.630 N 
ATOM      5  C   LIG    1        5.912  -0.867  -3.895  0.00  0.00    +0.310 C 
ATOM      6  C   LIG    1        6.055  -0.690  -2.379  0.00  0.00    +0.170 C 
ATOM      7  N   LIG    1        4.723  -0.540  -1.779  0.00  0.00    -0.530 NA
ATOM      8  C   LIG    1        3.911  -1.749  -1.974  0.00  0.00    +0.170 C 
ATOM      9  C   LIG    1        3.680  -1.969  -3.472  0.00  0.00    +0.280 C 
ATOM     10  O   LIG    1        6.366  -2.932  -5.606  0.00  0.00    -0.570 OA
ENDROOT
BRANCH   1  14
ATOM     11  C   LIG    1        5.762  -7.364  -7.310  0.00  0.00    -0.090 A 
ATOM     12  C   LIG    1        4.425  -7.011  -7.299  0.00  0.00    +0.030 A 
ATOM     13  C   LIG    1        4.006  -5.912  -6.574  0.00  0.00    -0.030 A 
ATOM     14  C   LIG    1        4.929  -5.162  -5.857  0.00  0.00    +0.160 A 
ATOM     15  C   LIG    1        6.271  -5.516  -5.875  0.00  0.00    +0.010 A 
ATOM     16  C   LIG    1        6.684  -6.619  -6.597  0.00  0.00    +0.030 A 
BRANCH  11  18
ATOM     17  C   LIG    1        5.874  -8.357  -9.579  0.00  0.00    +0.040 C 
ATOM     18  C   LIG    1        6.216  -8.563  -8.102  0.00  0.00    -0.030 C 
ATOM     19  C   LIG    1        5.506  -9.815  -7.584  0.00  0.00    +0.040 C 
ATOM     20  C   LIG    1        7.729  -8.733  -7.948  0.00  0.00    +0.030 C 
ENDBRANCH  11  18
ENDBRANCH   1  14
BRANCH   7  21
ATOM     21  C   LIG    1        4.823  -0.197  -0.354  0.00  0.00    +0.230 C 
BRANCH  21  22
ATOM     22  C   LIG    1        3.463   0.188   0.167  0.00  0.00    -0.040 A 
ATOM     23  C   LIG    1        2.611  -0.767   0.701  0.00  0.00    -0.040 A 
ATOM     24  C   LIG    1        1.370  -0.377   1.169  0.00  0.00    +0.260 A 
ATOM     25  N   LIG    1        0.995   0.886   1.111  0.00  0.00    -0.480 NA
ATOM     26  C   LIG    1        1.778   1.821   0.611  0.00  0.00    +0.260 A 
ATOM     27  C   LIG    1        3.033   1.505   0.124  0.00  0.00    -0.010 A 
ENDBRANCH  21  22
ENDBRANCH   7  21
TORSDOF 4
