REMARK  Name = ZINCrD00000bVQ5K.0
REMARK                            x       y       z     vdW  Elec       q    Type
REMARK                         _______ _______ _______ _____ _____    ______ ____
ROOT
ATOM      1  C   LIG    1       -0.241   2.062   2.344  0.00  0.00    +0.540 C 
ATOM      2  N   LIG    1       -0.751   1.586   1.191  0.00  0.00    -0.630 N 
ATOM      3  C   LIG    1       -2.180   1.444   0.814  0.00  0.00    +0.280 C 
ATOM      4  C   LIG    1       -2.235   1.857  -0.673  0.00  0.00    +0.260 C 
ATOM      5  C   LIG    1       -0.806   1.620  -1.204  0.00  0.00    -0.030 C 
ATOM      6  C   LIG    1       -0.013   1.086   0.008  0.00  0.00    +0.310 C 
ATOM      7  O   LIG    1        0.961   2.115   2.499  0.00  0.00    -0.520 OA
ENDROOT
BRANCH   5   8
ATOM      8  C   LIG    1       -0.819   0.584  -2.330  0.00  0.00    +0.460 C 
ATOM      9  F   LIG    1        0.492   0.335  -2.750  0.00  0.00    -0.170 F 
ATOM     10  F   LIG    1       -1.569   1.073  -3.405  0.00  0.00    -0.180 F 
ATOM     11  F   LIG    1       -1.392  -0.604  -1.863  0.00  0.00    -0.180 F 
ENDBRANCH   5   8
BRANCH   4  12
ATOM     12  N   LIG    1       -2.597   3.270  -0.798  0.00  0.00    -0.720 N 
ATOM     13  H   LIG    1       -1.905   3.949  -0.820  0.00  0.00    +0.410 HD
ATOM     14  C   LIG    1       -3.894   3.628  -0.884  0.00  0.00    +0.520 C 
ATOM     15  O   LIG    1       -4.760   2.780  -0.857  0.00  0.00    -0.530 OA
BRANCH  14  16
ATOM     16  C   LIG    1       -4.267   5.082  -1.013  0.00  0.00    +0.060 C 
BRANCH  16  17
ATOM     17  C   LIG    1       -5.790   5.213  -1.092  0.00  0.00    +0.170 C 
BRANCH  17  18
ATOM     18  C   LIG    1       -6.163   6.668  -1.221  0.00  0.00    -0.020 A 
ATOM     19  C   LIG    1       -6.309   7.343  -2.375  0.00  0.00    -0.060 A 
ATOM     20  C   LIG    1       -6.661   8.668  -2.033  0.00  0.00    -0.060 A 
ATOM     21  C   LIG    1       -6.708   8.725  -0.690  0.00  0.00    +0.160 A 
ATOM     22  O   LIG    1       -6.411   7.508  -0.203  0.00  0.00    -0.180 OA
ENDBRANCH  17  18
ENDBRANCH  16  17
ENDBRANCH  14  16
ENDBRANCH   4  12
BRANCH   1  23
ATOM     23  C   LIG    1       -1.163   2.528   3.441  0.00  0.00    +0.070 C 
BRANCH  23  24
ATOM     24  C   LIG    1       -0.334   3.016   4.631  0.00  0.00    -0.020 C 
ATOM     25  C   LIG    1        0.559   4.177   4.188  0.00  0.00    +0.030 C 
ATOM     26  C   LIG    1        0.537   1.871   5.150  0.00  0.00    +0.030 C 
BRANCH  24  28
ATOM     27  C   LIG    1       -1.217   2.908   6.904  0.00  0.00    +0.010 C 
ATOM     28  C   LIG    1       -1.257   3.482   5.728  0.00  0.00    -0.040 C 
ENDBRANCH  24  28
ENDBRANCH  23  24
ENDBRANCH   1  23
TORSDOF 8
