REMARK  Name = ZINCrD000000CCux.0
REMARK                            x       y       z     vdW  Elec       q    Type
REMARK                         _______ _______ _______ _____ _____    ______ ____
ROOT
ATOM      1  O   LIG    1       -7.579  -3.651   2.200  0.00  0.00    -0.520 OA
ATOM      2  C   LIG    1       -7.142  -4.785   2.176  0.00  0.00    +0.580 C 
ATOM      3  N   LIG    1       -5.982  -5.074   2.799  0.00  0.00    -0.600 N 
ATOM      4  C   LIG    1       -5.326  -6.364   2.511  0.00  0.00    +0.270 C 
ATOM      5  C   LIG    1       -3.802  -6.218   2.351  0.00  0.00    +0.010 C 
ATOM      6  C   LIG    1       -3.480  -4.965   1.575  0.00  0.00    +0.020 C 
ATOM      7  C   LIG    1       -3.269  -3.808   2.547  0.00  0.00    +0.010 C 
ATOM      8  C   LIG    1       -4.506  -3.127   2.957  0.00  0.00    +0.030 C 
ATOM      9  C   LIG    1       -5.428  -4.104   3.717  0.00  0.00    +0.360 C 
ENDROOT
BRANCH   2  10
ATOM     10  C   LIG    1       -7.881  -5.846   1.465  0.00  0.00    -0.170 A 
ATOM     11  C   LIG    1       -8.638  -5.534   0.332  0.00  0.00    +0.110 A 
ATOM     12  C   LIG    1       -9.326  -6.527  -0.329  0.00  0.00    -0.090 A 
ATOM     13  C   LIG    1       -9.269  -7.838   0.129  0.00  0.00    +0.160 A 
ATOM     14  C   LIG    1       -8.522  -8.152   1.259  0.00  0.00    -0.020 A 
ATOM     15  C   LIG    1       -7.827  -7.165   1.923  0.00  0.00    +0.090 A 
BRANCH  13  16
ATOM     16  O   LIG    1       -9.948  -8.814  -0.525  0.00  0.00    -0.300 OA
BRANCH  16  17
ATOM     17  C   LIG    1      -10.804  -8.404  -1.593  0.00  0.00    +0.160 C 
ATOM     18  C   LIG    1       -9.980  -8.218  -2.870  0.00  0.00    -0.020 C 
ATOM     19  C   LIG    1      -10.918  -7.854  -4.025  0.00  0.00    +0.210 C 
ATOM     20  O   LIG    1      -11.902  -8.879  -4.178  0.00  0.00    -0.380 OA
ATOM     21  C   LIG    1      -12.733  -9.066  -3.032  0.00  0.00    +0.230 C 
ATOM     22  C   LIG    1      -11.869  -9.478  -1.837  0.00  0.00    +0.030 C 
ENDBRANCH  16  17
ENDBRANCH  13  16
ENDBRANCH   2  10
BRANCH   9  23
ATOM     23  C   LIG    1       -6.547  -3.328   4.362  0.00  0.00    +0.180 A 
ATOM     24  N   LIG    1       -6.440  -2.184   4.969  0.00  0.00    -0.380 NA
ATOM     25  O   LIG    1       -7.523  -1.821   5.377  0.00  0.00    +0.070 OA
ATOM     26  C   LIG    1       -8.451  -2.732   5.067  0.00  0.00    +0.420 A 
ATOM     27  N   LIG    1       -7.840  -3.695   4.421  0.00  0.00    -0.460 NA
ENDBRANCH   9  23
TORSDOF 4
