REMARK  Name = ZINCvU00000005Fi.0
REMARK                            x       y       z     vdW  Elec       q    Type
REMARK                         _______ _______ _______ _____ _____    ______ ____
ROOT
ATOM      1  C   LIG    1       -1.223   1.752   0.012  0.00  0.00    +0.110 A 
ATOM      2  C   LIG    1       -0.021   1.083  -0.177  0.00  0.00    +0.060 A 
ATOM      3  C   LIG    1        1.166   1.789  -0.190  0.00  0.00    +0.000 A 
ATOM      4  C   LIG    1        1.158   3.164  -0.009  0.00  0.00    +0.120 A 
ATOM      5  C   LIG    1       -0.042   3.832   0.186  0.00  0.00    -0.060 A 
ATOM      6  C   LIG    1       -1.230   3.128   0.199  0.00  0.00    +0.030 A 
ENDROOT
BRANCH   1   8
ATOM      7  C   LIG    1       -2.464  -0.219   0.505  0.00  0.00    +0.560 C 
ATOM      8  N   LIG    1       -2.428   1.038   0.019  0.00  0.00    -0.670 N 
ATOM      9  H   LIG    1       -3.236   1.448  -0.326  0.00  0.00    +0.410 HD
ATOM     10  O   LIG    1       -1.475  -0.698   1.025  0.00  0.00    -0.500 OA
BRANCH   7  16
ATOM     11  C   LIG    1       -3.743  -2.322   0.905  0.00  0.00    +0.190 A 
ATOM     12  C   LIG    1       -4.916  -3.057   0.813  0.00  0.00    -0.080 A 
ATOM     13  C   LIG    1       -6.034  -2.504   0.220  0.00  0.00    +0.080 A 
ATOM     14  C   LIG    1       -5.997  -1.213  -0.280  0.00  0.00    -0.040 A 
ATOM     15  C   LIG    1       -4.842  -0.466  -0.191  0.00  0.00    +0.080 A 
ATOM     16  C   LIG    1       -3.703  -1.013   0.406  0.00  0.00    -0.180 A 
BRANCH  11  18
ATOM     17  C   LIG    1       -2.758  -4.204   1.968  0.00  0.00    +0.250 C 
ATOM     18  O   LIG    1       -2.642  -2.865   1.482  0.00  0.00    -0.280 OA
ENDBRANCH  11  18
ENDBRANCH   7  16
ENDBRANCH   1   8
BRANCH   4  19
ATOM     19  O   LIG    1        2.327   3.858  -0.022  0.00  0.00    -0.310 OA
BRANCH  19  20
ATOM     20  C   LIG    1        2.245   5.272   0.171  0.00  0.00    +0.310 C 
BRANCH  20  21
ATOM     21  C   LIG    1        3.629   5.866   0.126  0.00  0.00    -0.020 A 
ATOM     22  C   LIG    1        4.261   6.320  -0.972  0.00  0.00    -0.010 A 
ATOM     23  O   LIG    1        5.471   6.767  -0.581  0.00  0.00    -0.190 OA
ATOM     24  C   LIG    1        5.565   6.582   0.747  0.00  0.00    +0.240 A 
ATOM     25  C   LIG    1        3.717   6.327  -2.377  0.00  0.00    +0.200 C 
ATOM     26  N   LIG    1        4.448   6.043   1.174  0.00  0.00    -0.450 NA
BRANCH  24  27
ATOM     27  C   LIG    1        6.730   6.934   1.587  0.00  0.00    -0.020 A 
ATOM     28  C   LIG    1        6.701   6.694   2.961  0.00  0.00    +0.070 A 
ATOM     29  C   LIG    1        7.793   7.020   3.739  0.00  0.00    +0.010 A 
ATOM     30  C   LIG    1        8.912   7.591   3.160  0.00  0.00    +0.030 A 
ATOM     31  C   LIG    1        8.945   7.837   1.798  0.00  0.00    +0.010 A 
ATOM     32  C   LIG    1        7.862   7.511   1.009  0.00  0.00    +0.040 A 
ENDBRANCH  24  27
ENDBRANCH  20  21
ENDBRANCH  19  20
ENDBRANCH   4  19
TORSDOF 7
