REMARK  Name = ZINCrg000000sAf8.0
REMARK                            x       y       z     vdW  Elec       q    Type
REMARK                         _______ _______ _______ _____ _____    ______ ____
ROOT
ATOM      1  C   LIG    1       -3.696   5.734  -0.358  0.00  0.00    +0.340 C 
ATOM      2  N   LIG    1       -2.454   4.958  -0.317  0.00  0.00    -0.560 N 
ATOM      3  C   LIG    1       -2.513   3.608  -0.346  0.00  0.00    +0.570 A 
ATOM      4  C   LIG    1       -1.245   2.855  -0.303  0.00  0.00    -0.220 A 
ATOM      5  C   LIG    1       -1.216   1.463  -0.334  0.00  0.00    +0.200 A 
ATOM      6  C   LIG    1        0.020   0.837  -0.284  0.00  0.00    +0.020 A 
ATOM      7  C   LIG    1        1.175   1.613  -0.215  0.00  0.00    +0.160 A 
ATOM      8  N   LIG    1        1.116   2.938  -0.192  0.00  0.00    -0.490 NA
ATOM      9  C   LIG    1       -0.038   3.577  -0.233  0.00  0.00    +0.400 A 
ATOM     10  N   LIG    1       -0.096   4.960  -0.208  0.00  0.00    -0.530 N 
ATOM     11  C   LIG    1        1.144   5.736  -0.135  0.00  0.00    +0.370 C 
ATOM     12  O   LIG    1       -3.581   3.031  -0.407  0.00  0.00    -0.480 OA
ATOM     13  C   LIG    1       -1.277   5.600  -0.250  0.00  0.00    +0.710 A 
ATOM     14  O   LIG    1       -1.280   6.815  -0.225  0.00  0.00    -0.520 OA
ENDROOT
BRANCH   7  15
ATOM     15  C   LIG    1        2.498   0.943  -0.166  0.00  0.00    +0.600 C 
ATOM     16  N   LIG    1        3.625   1.680  -0.099  0.00  0.00    -0.620 N 
ATOM     17  C   LIG    1        3.958   3.112  -0.145  0.00  0.00    +0.290 C 
ATOM     18  C   LIG    1        5.203   2.793   0.694  0.00  0.00    +0.050 C 
ATOM     19  C   LIG    1        5.061   1.407   0.058  0.00  0.00    +0.240 C 
ATOM     20  O   LIG    1        2.566  -0.270  -0.186  0.00  0.00    -0.520 OA
BRANCH  19  21
ATOM     21  C   LIG    1        5.361   0.261   1.026  0.00  0.00    +0.080 C 
BRANCH  21  22
ATOM     22  C   LIG    1        6.843  -0.011   1.039  0.00  0.00    -0.080 A 
ATOM     23  C   LIG    1        7.401  -0.849   0.091  0.00  0.00    +0.000 A 
ATOM     24  C   LIG    1        8.761  -1.095   0.100  0.00  0.00    +0.000 A 
ATOM     25  C   LIG    1        9.562  -0.510   1.062  0.00  0.00    +0.000 A 
ATOM     26  C   LIG    1        9.004   0.323   2.014  0.00  0.00    +0.000 A 
ATOM     27  C   LIG    1        7.645   0.573   2.002  0.00  0.00    +0.010 A 
ENDBRANCH  21  22
ENDBRANCH  19  21
ENDBRANCH   7  15
TORSDOF 3
