REMARK  Name = ZINCqH0000001Sjj.0
REMARK                            x       y       z     vdW  Elec       q    Type
REMARK                         _______ _______ _______ _____ _____    ______ ____
ROOT
ATOM      1  C   LIG    1       -6.541   6.096   1.317  0.00  0.00    +0.520 C 
ATOM      2  N   LIG    1       -7.887   6.168   1.324  0.00  0.00    -0.730 N 
ATOM      3  H   LIG    1       -8.416   5.355   1.322  0.00  0.00    +0.400 HD
ATOM      4  O   LIG    1       -5.879   7.113   1.320  0.00  0.00    -0.520 OA
ENDROOT
BRANCH   1   5
ATOM      5  C   LIG    1       -5.858   4.753   1.307  0.00  0.00    +0.090 C 
BRANCH   5   6
ATOM      6  C   LIG    1       -4.341   4.952   1.301  0.00  0.00    +0.130 C 
BRANCH   6   7
ATOM      7  S   LIG    1       -3.521   3.338   1.289  0.00  0.00    +0.030 S 
BRANCH   7  12
ATOM      8  N   LIG    1       -0.749   3.044   1.275  0.00  0.00    -0.360 N 
ATOM      9  N   LIG    1        0.357   3.913   1.268  0.00  0.00    -0.070 NA
ATOM     10  N   LIG    1       -0.112   5.114   1.280  0.00  0.00    -0.030 NA
ATOM     11  N   LIG    1       -1.396   5.091   1.292  0.00  0.00    -0.330 NA
ATOM     12  C   LIG    1       -1.836   3.852   1.284  0.00  0.00    +0.210 A 
BRANCH   8  14
ATOM     13  C   LIG    1       -0.013   1.086   0.008  0.00  0.00    +0.080 C 
ATOM     14  C   LIG    1       -0.729   1.579   1.267  0.00  0.00    +0.250 C 
ATOM     15  C   LIG    1        0.011   1.072   2.506  0.00  0.00    +0.080 C 
ENDBRANCH   8  14
ENDBRANCH   7  12
ENDBRANCH   6   7
ENDBRANCH   5   6
ENDBRANCH   1   5
BRANCH   2  16
ATOM     16  C   LIG    1       -8.550   7.474   1.334  0.00  0.00    +0.380 C 
BRANCH  16  17
ATOM     17  C   LIG    1       -9.923   7.335   1.940  0.00  0.00    -0.090 A 
ATOM     18  C   LIG    1      -10.703   6.234   1.640  0.00  0.00    +0.010 A 
ATOM     19  C   LIG    1      -11.961   6.104   2.199  0.00  0.00    +0.020 A 
ATOM     20  C   LIG    1      -12.442   7.080   3.051  0.00  0.00    +0.010 A 
ATOM     21  C   LIG    1      -11.665   8.185   3.346  0.00  0.00    +0.020 A 
ATOM     22  C   LIG    1      -10.405   8.312   2.791  0.00  0.00    +0.030 A 
ENDBRANCH  16  17
BRANCH  16  23
ATOM     23  C   LIG    1       -8.674   7.986  -0.078  0.00  0.00    -0.190 A 
ATOM     24  C   LIG    1       -8.497   9.253  -0.455  0.00  0.00    +0.020 A 
ATOM     25  C   LIG    1       -8.660   9.487  -1.810  0.00  0.00    +0.010 A 
ATOM     26  C   LIG    1       -8.978   8.411  -2.532  0.00  0.00    -0.050 A 
ATOM     27  S   LIG    1       -9.081   7.005  -1.480  0.00  0.00    +0.100 S 
ENDBRANCH  16  23
ENDBRANCH   2  16
TORSDOF 8
