REMARK  Name = ZINCvU0000000JY4.0
REMARK                            x       y       z     vdW  Elec       q    Type
REMARK                         _______ _______ _______ _____ _____    ______ ____
ROOT
ATOM      1  C   LIG    1        7.947   2.210   0.053  0.00  0.00    +0.220 A 
ATOM      2  C   LIG    1        8.752   1.261  -0.562  0.00  0.00    +0.040 A 
ATOM      3  C   LIG    1       10.127   1.371  -0.495  0.00  0.00    +0.100 A 
ATOM      4  C   LIG    1       10.714   2.421   0.195  0.00  0.00    -0.060 A 
ATOM      5  C   LIG    1        9.930   3.370   0.817  0.00  0.00    +0.080 A 
ATOM      6 CL   LIG    1       12.444   2.541   0.276  0.00  0.00    -0.050 Cl
ATOM      7  C   LIG    1        8.538   3.274   0.753  0.00  0.00    -0.160 A 
ENDROOT
BRANCH   1   9
ATOM      8  C   LIG    1        5.977   0.889  -0.006  0.00  0.00    +0.610 C 
ATOM      9  N   LIG    1        6.561   2.103  -0.018  0.00  0.00    -0.650 N 
ATOM     10  H   LIG    1        6.016   2.903  -0.076  0.00  0.00    +0.430 HD
ATOM     11  O   LIG    1        6.663  -0.116  -0.019  0.00  0.00    -0.490 OA
BRANCH   8  13
ATOM     12  C   LIG    1        3.817  -0.389   0.034  0.00  0.00    -0.070 A 
ATOM     13  C   LIG    1        4.513   0.778   0.021  0.00  0.00    -0.010 A 
ATOM     14  O   LIG    1        3.655   1.820   0.037  0.00  0.00    -0.180 OA
ATOM     15  C   LIG    1        2.378   1.391   0.061  0.00  0.00    +0.080 A 
ATOM     16  C   LIG    1        1.154   2.047   0.085  0.00  0.00    +0.030 A 
ATOM     17  C   LIG    1       -0.015   1.317   0.108  0.00  0.00    +0.060 A 
ATOM     18  C   LIG    1        0.014  -0.070   0.107  0.00  0.00    +0.000 A 
ATOM     19  C   LIG    1        1.207  -0.738   0.084  0.00  0.00    +0.080 A 
ATOM     20  C   LIG    1        2.403  -0.017   0.061  0.00  0.00    -0.130 A 
BRANCH  12  21
ATOM     21  C   LIG    1        4.387  -1.784   0.024  0.00  0.00    +0.260 C 
BRANCH  21  23
ATOM     22  C   LIG    1        5.077  -3.544  -1.448  0.00  0.00    +0.210 C 
ATOM     23  O   LIG    1        4.541  -2.225  -1.326  0.00  0.00    -0.380 OA
ENDBRANCH  21  23
ENDBRANCH  12  21
ENDBRANCH   8  13
ENDBRANCH   1   9
BRANCH   7  24
ATOM     24  C   LIG    1        7.693   4.285   1.416  0.00  0.00    +0.570 C 
ATOM     25  N   LIG    1        8.260   5.361   1.995  0.00  0.00    -0.660 N 
ATOM     26  H   LIG    1        9.226   5.431   2.049  0.00  0.00    +0.420 HD
ATOM     27  O   LIG    1        6.485   4.146   1.440  0.00  0.00    -0.510 OA
BRANCH  25  28
ATOM     28  C   LIG    1        7.458   6.375   2.518  0.00  0.00    +0.190 A 
ATOM     29  C   LIG    1        6.175   6.600   2.020  0.00  0.00    -0.030 A 
ATOM     30  C   LIG    1        5.411   7.610   2.568  0.00  0.00    +0.280 A 
ATOM     31  N   LIG    1        5.885   8.364   3.542  0.00  0.00    -0.500 NA
ATOM     32  C   LIG    1        7.096   8.187   4.036  0.00  0.00    +0.280 A 
ATOM     33  C   LIG    1        7.920   7.195   3.547  0.00  0.00    -0.060 A 
ENDBRANCH  25  28
ENDBRANCH   7  24
TORSDOF 6
