REMARK  Name = ZINCpk000000oFC0.0
REMARK                            x       y       z     vdW  Elec       q    Type
REMARK                         _______ _______ _______ _____ _____    ______ ____
ROOT
ATOM      1  C   LIG    1        0.456   3.873   0.299  0.00  0.00    -0.020 A 
ATOM      2  N   LIG    1       -0.865   3.893   0.285  0.00  0.00    -0.220 NA
ATOM      3  N   LIG    1       -1.336   2.759   0.662  0.00  0.00    -0.200 N 
ATOM      4  C   LIG    1       -0.307   1.906   0.965  0.00  0.00    -0.040 A 
ATOM      5  C   LIG    1        0.855   2.595   0.737  0.00  0.00    +0.060 A 
ENDROOT
BRANCH   3   6
ATOM      6  C   LIG    1       -2.696   2.444   0.753  0.00  0.00    +0.110 A 
ATOM      7  C   LIG    1       -3.177   1.266   0.195  0.00  0.00    +0.070 A 
ATOM      8  C   LIG    1       -4.519   0.955   0.291  0.00  0.00    +0.020 A 
ATOM      9  C   LIG    1       -5.386   1.820   0.932  0.00  0.00    +0.030 A 
ATOM     10  C   LIG    1       -4.912   2.996   1.486  0.00  0.00    +0.030 A 
ATOM     11  C   LIG    1       -3.570   3.310   1.398  0.00  0.00    +0.040 A 
ENDBRANCH   3   6
BRANCH   4  12
ATOM     12  C   LIG    1       -0.428   0.517   1.436  0.00  0.00    +0.590 C 
ATOM     13  O   LIG    1       -1.524   0.051   1.679  0.00  0.00    -0.520 OA
ATOM     14  N   LIG    1        0.677  -0.237   1.599  0.00  0.00    -0.830 N 
ATOM     15  H   LIG    1        0.594  -1.173   1.839  0.00  0.00    +0.410 HD
ATOM     16  H   LIG    1        1.555   0.156   1.476  0.00  0.00    +0.410 HD
ENDBRANCH   4  12
BRANCH   1  18
ATOM     17  N   LIG    1        0.831   6.189  -0.397  0.00  0.00    -0.600 N 
ATOM     18  C   LIG    1        1.350   4.988  -0.074  0.00  0.00    +0.610 C 
ATOM     19  O   LIG    1        2.554   4.822  -0.089  0.00  0.00    -0.520 OA
BRANCH  17  21
ATOM     20  C   LIG    1       -0.963   6.769   1.161  0.00  0.00    +0.010 C 
ATOM     21  C   LIG    1       -0.612   6.418  -0.286  0.00  0.00    +0.280 C 
ENDBRANCH  17  21
BRANCH  17  22
ATOM     22  C   LIG    1        1.710   7.266  -0.860  0.00  0.00    +0.300 C 
BRANCH  22  23
ATOM     23  C   LIG    1        1.840   7.199  -2.383  0.00  0.00    -0.060 C 
ATOM     24  C   LIG    1        2.660   8.398  -2.910  0.00  0.00    +0.010 C 
ATOM     25  C   LIG    1        3.888   7.746  -3.583  0.00  0.00    +0.190 C 
ATOM     26  O   LIG    1        3.455   6.412  -3.927  0.00  0.00    -0.380 OA
ATOM     27  C   LIG    1        2.670   5.964  -2.801  0.00  0.00    +0.210 C 
ENDBRANCH  22  23
ENDBRANCH  17  22
ENDBRANCH   1  18
TORSDOF 6
