REMARK  Name = ZINCpk00000KfLOP.0
REMARK                            x       y       z     vdW  Elec       q    Type
REMARK                         _______ _______ _______ _____ _____    ______ ____
ROOT
ATOM      1  N   LIG    1       -4.279   3.984  -3.843  0.00  0.00    -0.480 N 
ATOM      2  C   LIG    1       -4.175   4.737  -2.586  0.00  0.00    +0.190 C 
ATOM      3  C   LIG    1       -2.696   4.924  -2.228  0.00  0.00    +0.280 C 
ATOM      4  N   LIG    1       -2.048   3.604  -2.218  0.00  0.00    -0.630 N 
ATOM      5  C   LIG    1       -2.218   2.736  -3.393  0.00  0.00    +0.310 C 
ATOM      6  C   LIG    1       -1.312   3.202  -1.163  0.00  0.00    +0.710 C 
ATOM      7  N   LIG    1       -1.245   3.970  -0.057  0.00  0.00    -0.740 N 
ATOM      8  H   LIG    1       -1.665   4.844  -0.047  0.00  0.00    +0.410 HD
ATOM      9  O   LIG    1       -0.709   2.147  -1.208  0.00  0.00    -0.590 OA
ATOM     10  C   LIG    1       -3.720   2.633  -3.703  0.00  0.00    +0.190 C 
ENDROOT
BRANCH   1  14
ATOM     11  C   LIG    1       -8.228   3.835  -5.170  0.00  0.00    +0.100 A 
ATOM     12  C   LIG    1       -7.227   3.217  -5.903  0.00  0.00    +0.000 A 
ATOM     13  C   LIG    1       -5.918   3.265  -5.464  0.00  0.00    +0.030 A 
ATOM     14  C   LIG    1       -5.605   3.934  -4.288  0.00  0.00    +0.070 A 
ATOM     15  C   LIG    1       -6.609   4.548  -3.551  0.00  0.00    +0.000 A 
ATOM     16  C   LIG    1       -7.917   4.503  -3.995  0.00  0.00    -0.050 A 
BRANCH  11  18
ATOM     17  C   LIG    1      -10.496   4.446  -4.798  0.00  0.00    +0.240 C 
ATOM     18  O   LIG    1       -9.517   3.787  -5.603  0.00  0.00    -0.320 OA
ENDBRANCH  11  18
ENDBRANCH   1  14
BRANCH   7  19
ATOM     19  C   LIG    1       -0.538   3.484   1.131  0.00  0.00    +0.360 C 
ATOM     20  C   LIG    1       -1.482   2.618   1.967  0.00  0.00    +0.060 C 
BRANCH  19  21
ATOM     21  C   LIG    1       -0.072   4.657   1.953  0.00  0.00    +0.160 A 
ATOM     22  N   LIG    1       -0.770   5.719   2.252  0.00  0.00    -0.280 NA
ATOM     23  N   LIG    1       -0.061   6.515   2.971  0.00  0.00    -0.290 NA
ATOM     24  C   LIG    1        1.125   6.003   3.155  0.00  0.00    +0.380 A 
ATOM     25  N   LIG    1        1.152   4.809   2.514  0.00  0.00    -0.470 N 
ATOM     26  C   LIG    1        2.276   3.872   2.443  0.00  0.00    +0.350 C 
ENDBRANCH  19  21
ENDBRANCH   7  19
TORSDOF 4
