REMARK  Name = ZINCqH0000002P88.0
REMARK                            x       y       z     vdW  Elec       q    Type
REMARK                         _______ _______ _______ _____ _____    ______ ____
ROOT
ATOM      1  C   LIG    1       -1.293  -0.775   0.010  0.00  0.00    +0.250 C 
ENDROOT
BRANCH   1   2
ATOM      2  C   LIG    1        0.002  -0.004   0.002  0.00  0.00    +0.510 C 
ATOM      3  N   LIG    1       -0.016   1.344   0.009  0.00  0.00    -0.720 N 
ATOM      4  H   LIG    1       -0.863   1.817   0.016  0.00  0.00    +0.410 HD
ATOM      5  O   LIG    1        1.060  -0.596  -0.011  0.00  0.00    -0.530 OA
BRANCH   3   6
ATOM      6  C   LIG    1        1.242   2.093   0.001  0.00  0.00    +0.310 C 
BRANCH   6   7
ATOM      7  C   LIG    1        0.943   3.594   0.012  0.00  0.00    +0.040 C 
ATOM      8  C   LIG    1        2.255   4.373   0.004  0.00  0.00    +0.130 C 
ATOM      9  S   LIG    1        1.923   6.143  -0.191  0.00  0.00    -0.240 S 
ATOM     10  C   LIG    1        0.968   6.554   1.292  0.00  0.00    +0.130 C 
ATOM     11  C   LIG    1       -0.344   5.775   1.301  0.00  0.00    +0.130 C 
ATOM     12  S   LIG    1       -0.013   4.005   1.496  0.00  0.00    -0.230 S 
ENDBRANCH   6   7
ENDBRANCH   3   6
ENDBRANCH   1   2
BRANCH   1  13
ATOM     13  N   LIG    1       -1.005  -2.212  -0.000  0.00  0.00    -0.710 N 
ATOM     14  H   LIG    1       -0.160  -2.540   0.345  0.00  0.00    +0.410 HD
ATOM     15  C   LIG    1       -1.915  -3.077  -0.489  0.00  0.00    +0.600 C 
ATOM     16  O   LIG    1       -2.975  -2.666  -0.922  0.00  0.00    -0.520 OA
BRANCH  15  17
ATOM     17  C   LIG    1       -1.627  -4.519  -0.500  0.00  0.00    -0.230 A 
ATOM     18  C   LIG    1       -2.462  -5.458  -0.957  0.00  0.00    +0.130 A 
ATOM     19  C   LIG    1       -1.990  -6.778  -0.879  0.00  0.00    -0.090 A 
ATOM     20  C   LIG    1       -2.632  -7.975  -1.278  0.00  0.00    +0.070 A 
ATOM     21  C   LIG    1       -2.014  -9.175  -1.117  0.00  0.00    +0.010 A 
ATOM     22  C   LIG    1       -0.744  -9.250  -0.558  0.00  0.00    +0.040 A 
ATOM     23  C   LIG    1       -0.096  -8.106  -0.160  0.00  0.00    +0.040 A 
ATOM     24  C   LIG    1       -0.711  -6.859  -0.316  0.00  0.00    -0.120 A 
ATOM     25  S   LIG    1       -0.143  -5.244   0.093  0.00  0.00    +0.120 S 
ENDBRANCH  15  17
ENDBRANCH   1  13
BRANCH   1  26
ATOM     26  C   LIG    1       -2.088  -0.423   1.269  0.00  0.00    +0.020 C 
BRANCH  26  28
ATOM     27  C   LIG    1       -4.250  -0.757   2.476  0.00  0.00    +0.010 C 
ATOM     28  C   LIG    1       -3.455  -1.109   1.217  0.00  0.00    +0.020 C 
ENDBRANCH  26  28
ENDBRANCH   1  26
TORSDOF 7
