REMARK  Name = ZINCvU0000000FUp.0
REMARK                            x       y       z     vdW  Elec       q    Type
REMARK                         _______ _______ _______ _____ _____    ______ ____
ROOT
ATOM      1  C   LIG    1        5.610   0.143   0.003  0.00  0.00    +0.280 A 
ATOM      2  N   LIG    1        5.634   1.445  -0.108  0.00  0.00    -0.290 NA
ATOM      3  N   LIG    1        4.299   1.882  -0.130  0.00  0.00    -0.320 N 
ATOM      4  C   LIG    1        3.533   0.762  -0.016  0.00  0.00    +0.370 A 
ATOM      5  N   LIG    1        4.348  -0.273   0.059  0.00  0.00    -0.510 NA
ENDROOT
BRANCH   3   6
ATOM      6  C   LIG    1        3.847   3.203  -0.242  0.00  0.00    +0.170 A 
ATOM      7  C   LIG    1        4.426   4.059  -1.170  0.00  0.00    +0.040 A 
ATOM      8  C   LIG    1        3.974   5.360  -1.283  0.00  0.00    +0.090 A 
ATOM      9  C   LIG    1        2.955   5.812  -0.465  0.00  0.00    -0.170 A 
ATOM     10  C   LIG    1        2.380   4.963   0.463  0.00  0.00    +0.100 A 
ATOM     11  C   LIG    1        2.824   3.660   0.577  0.00  0.00    +0.070 A 
BRANCH   9  12
ATOM     12  C   LIG    1        2.469   7.234  -0.587  0.00  0.00    +0.510 C 
ATOM     13  F   LIG    1        1.114   7.294  -0.241  0.00  0.00    -0.170 F 
ATOM     14  F   LIG    1        2.634   7.672  -1.905  0.00  0.00    -0.170 F 
ATOM     15  F   LIG    1        3.207   8.053   0.274  0.00  0.00    -0.170 F 
ENDBRANCH   9  12
ENDBRANCH   3   6
BRANCH   1  20
ATOM     16  C   LIG    1        5.875  -1.886  -2.098  0.00  0.00    +0.060 C 
ATOM     17  C   LIG    1        6.971  -1.811  -1.032  0.00  0.00    -0.100 C 
ATOM     18  C   LIG    1        6.601  -2.225   0.393  0.00  0.00    +0.070 C 
ATOM     19  C   LIG    1        8.386  -2.134  -1.518  0.00  0.00    +0.070 C 
ATOM     20  C   LIG    1        6.824  -0.749   0.059  0.00  0.00    +0.050 C 
ENDBRANCH   1  20
BRANCH   4  21
ATOM     21  C   LIG    1        2.056   0.714   0.011  0.00  0.00    +0.040 A 
ATOM     22  C   LIG    1        1.291  -0.383   0.239  0.00  0.00    +0.260 A 
ATOM     23  O   LIG    1        0.004   0.013   0.176  0.00  0.00    -0.220 OA
ATOM     24  C   LIG    1       -0.017   1.328  -0.086  0.00  0.00    +0.400 A 
ATOM     25  N   LIG    1        1.211   1.762  -0.188  0.00  0.00    -0.450 NA
BRANCH  24  26
ATOM     26  O   LIG    1       -1.132   2.083  -0.228  0.00  0.00    -0.230 OA
BRANCH  26  27
ATOM     27  C   LIG    1       -2.388   1.417  -0.085  0.00  0.00    +0.270 C 
BRANCH  27  28
ATOM     28  C   LIG    1       -3.524   2.425  -0.277  0.00  0.00    +0.470 C 
ATOM     29  F   LIG    1       -3.419   3.435   0.685  0.00  0.00    -0.170 F 
ATOM     30  F   LIG    1       -4.754   1.774  -0.138  0.00  0.00    -0.160 F 
ATOM     31  F   LIG    1       -3.436   2.988  -1.555  0.00  0.00    -0.170 F 
ENDBRANCH  27  28
ENDBRANCH  26  27
ENDBRANCH  24  26
ENDBRANCH   4  21
TORSDOF 7
