REMARK  Name = ZINCpe000000XD0L.0
REMARK                            x       y       z     vdW  Elec       q    Type
REMARK                         _______ _______ _______ _____ _____    ______ ____
ROOT
ATOM      1  C   LIG    1       -2.960   0.258  -0.151  0.00  0.00    +0.560 C 
ATOM      2  N   LIG    1       -3.878   1.237  -0.029  0.00  0.00    -0.610 N 
ATOM      3  C   LIG    1       -3.561   2.622  -0.411  0.00  0.00    +0.300 C 
ATOM      4  C   LIG    1       -4.663   3.126  -1.356  0.00  0.00    +0.180 C 
ATOM      5  N   LIG    1       -5.972   2.944  -0.714  0.00  0.00    -0.520 NA
ATOM      6  C   LIG    1       -6.257   1.522  -0.479  0.00  0.00    +0.180 C 
ATOM      7  C   LIG    1       -5.222   0.951   0.496  0.00  0.00    +0.300 C 
ATOM      8  O   LIG    1       -3.263  -0.893   0.094  0.00  0.00    -0.520 OA
ENDROOT
BRANCH   1  12
ATOM      9  C   LIG    1        0.556   0.277  -3.686  0.00  0.00    +0.150 C 
ATOM     10  C   LIG    1        0.109   0.595  -2.282  0.00  0.00    +0.180 A 
ATOM     11  C   LIG    1       -1.154   0.296  -1.901  0.00  0.00    -0.060 A 
ATOM     12  C   LIG    1       -1.579   0.585  -0.587  0.00  0.00    -0.010 A 
ATOM     13  C   LIG    1       -0.690   1.182   0.288  0.00  0.00    -0.050 A 
ATOM     14  C   LIG    1        0.616   1.473  -0.158  0.00  0.00    +0.520 A 
ATOM     15  O   LIG    1        1.416   1.995   0.601  0.00  0.00    -0.540 OA
ATOM     16  N   LIG    1        0.980   1.176  -1.419  0.00  0.00    -0.600 N 
ATOM     17  H   LIG    1        1.881   1.380  -1.716  0.00  0.00    +0.420 HD
ENDBRANCH   1  12
BRANCH   5  18
ATOM     18  C   LIG    1       -7.038   3.571  -1.505  0.00  0.00    +0.130 C 
ATOM     19  C   LIG    1       -8.359   3.489  -0.738  0.00  0.00    +0.070 C 
BRANCH  18  20
ATOM     20  C   LIG    1       -6.694   5.017  -1.757  0.00  0.00    +0.530 C 
ATOM     21  N   LIG    1       -7.110   5.622  -2.887  0.00  0.00    -0.620 N 
ATOM     22  C   LIG    1       -7.985   5.025  -3.906  0.00  0.00    +0.240 C 
ATOM     23  C   LIG    1       -8.168   6.073  -5.024  0.00  0.00    +0.030 C 
ATOM     24  C   LIG    1       -6.926   6.986  -4.848  0.00  0.00    +0.040 C 
ATOM     25  C   LIG    1       -6.758   6.990  -3.309  0.00  0.00    +0.250 C 
ATOM     26  O   LIG    1       -6.041   5.635  -0.943  0.00  0.00    -0.510 OA
ENDBRANCH  18  20
ENDBRANCH   5  18
TORSDOF 3
