REMARK  Name = ZINCpk00000ebed2.0
REMARK                            x       y       z     vdW  Elec       q    Type
REMARK                         _______ _______ _______ _____ _____    ______ ____
ROOT
ATOM      1  C   LIG    1        4.746  -5.829   2.529  0.00  0.00    +0.590 C 
ATOM      2  N   LIG    1        4.238  -5.362   1.371  0.00  0.00    -0.710 N 
ATOM      3  H   LIG    1        4.527  -5.742   0.526  0.00  0.00    +0.410 HD
ATOM      4  O   LIG    1        4.463  -5.285   3.579  0.00  0.00    -0.530 OA
ENDROOT
BRANCH   1   7
ATOM      5  C   LIG    1        5.880  -7.236   5.031  0.00  0.00    +0.320 C 
ATOM      6  N   LIG    1        6.148  -7.622   3.643  0.00  0.00    -0.450 N 
ATOM      7  C   LIG    1        5.642  -6.994   2.522  0.00  0.00    +0.020 A 
ATOM      8  C   LIG    1        6.100  -7.629   1.411  0.00  0.00    +0.010 A 
ATOM      9  C   LIG    1        6.934  -8.692   1.835  0.00  0.00    -0.120 A 
ATOM     10  C   LIG    1        7.671  -9.668   1.152  0.00  0.00    +0.070 A 
ATOM     11  C   LIG    1        8.394 -10.588   1.854  0.00  0.00    -0.020 A 
ATOM     12  C   LIG    1        8.406 -10.568   3.243  0.00  0.00    +0.040 A 
ATOM     13  C   LIG    1        7.690  -9.618   3.937  0.00  0.00    -0.010 A 
ATOM     14  C   LIG    1        6.945  -8.669   3.243  0.00  0.00    +0.110 A 
ENDBRANCH   1   7
BRANCH   2  15
ATOM     15  C   LIG    1        3.249  -4.281   1.387  0.00  0.00    +0.260 C 
BRANCH  15  16
ATOM     16  C   LIG    1        2.840  -3.943  -0.048  0.00  0.00    +0.370 C 
BRANCH  16  17
ATOM     17  N   LIG    1        1.851  -2.862  -0.031  0.00  0.00    -0.430 N 
ATOM     18  N   LIG    1        0.459  -3.014   0.036  0.00  0.00    -0.290 NA
ATOM     19  C   LIG    1       -0.078  -1.817   0.029  0.00  0.00    +0.300 A 
ATOM     20  C   LIG    1       -1.427  -1.381   0.080  0.00  0.00    +0.040 A 
ATOM     21  C   LIG    1       -1.697  -0.053   0.057  0.00  0.00    +0.110 A 
ATOM     22  C   LIG    1       -0.640   0.877  -0.016  0.00  0.00    -0.020 A 
ATOM     23  C   LIG    1        0.637   0.459  -0.064  0.00  0.00    +0.300 A 
ATOM     24  N   LIG    1        0.938  -0.882  -0.042  0.00  0.00    -0.480 N 
ATOM     25  C   LIG    1        2.114  -1.540  -0.078  0.00  0.00    +0.650 A 
ATOM     26  O   LIG    1        3.220  -1.031  -0.142  0.00  0.00    -0.530 OA
ENDBRANCH  16  17
ENDBRANCH  15  16
ENDBRANCH   2  15
TORSDOF 4
