REMARK  Name = ZINCrD000000ArfF.0
REMARK                            x       y       z     vdW  Elec       q    Type
REMARK                         _______ _______ _______ _____ _____    ______ ____
ROOT
ATOM      1  O   LIG    1       -1.709   2.265   1.150  0.00  0.00    -0.490 OA
ATOM      2  C   LIG    1       -0.717   1.573   1.248  0.00  0.00    +0.520 C 
ATOM      3  N   LIG    1       -0.242   1.246   2.466  0.00  0.00    -0.670 N 
ATOM      4  H   LIG    1        0.511   0.639   2.546  0.00  0.00    +0.420 HD
ENDROOT
BRANCH   3   5
ATOM      5  C   LIG    1       -0.834   1.782   3.615  0.00  0.00    +0.150 A 
ATOM      6  C   LIG    1       -2.203   2.006   3.652  0.00  0.00    +0.080 A 
ATOM      7  C   LIG    1       -2.785   2.534   4.788  0.00  0.00    +0.060 A 
ATOM      8  C   LIG    1       -2.004   2.841   5.888  0.00  0.00    -0.010 A 
ATOM      9  C   LIG    1       -0.638   2.619   5.854  0.00  0.00    -0.160 A 
ATOM     10 CL   LIG    1       -2.738   3.506   7.314  0.00  0.00    -0.040 Cl
ATOM     11  C   LIG    1       -0.052   2.086   4.723  0.00  0.00    +0.070 A 
BRANCH   9  12
ATOM     12  C   LIG    1        0.209   2.954   7.054  0.00  0.00    +0.510 C 
ATOM     13  F   LIG    1       -0.227   2.209   8.155  0.00  0.00    -0.170 F 
ATOM     14  F   LIG    1        0.096   4.319   7.339  0.00  0.00    -0.170 F 
ATOM     15  F   LIG    1        1.546   2.644   6.782  0.00  0.00    -0.170 F 
ENDBRANCH   9  12
ENDBRANCH   3   5
BRANCH   2  16
ATOM     16  C   LIG    1       -0.016   1.080   0.008  0.00  0.00    +0.250 C 
BRANCH  16  17
ATOM     17  O   LIG    1       -0.705   1.556  -1.150  0.00  0.00    -0.280 OA
BRANCH  17  18
ATOM     18  C   LIG    1       -0.199   1.199  -2.359  0.00  0.00    +0.150 A 
ATOM     19  C   LIG    1        0.937   0.406  -2.430  0.00  0.00    -0.060 A 
ATOM     20  C   LIG    1        1.452   0.042  -3.659  0.00  0.00    +0.100 A 
ATOM     21  C   LIG    1        0.838   0.466  -4.822  0.00  0.00    -0.020 A 
ATOM     22  C   LIG    1       -0.299   1.260  -4.757  0.00  0.00    +0.170 A 
ATOM     23  C   LIG    1       -0.821   1.622  -3.524  0.00  0.00    +0.020 A 
BRANCH  22  24
ATOM     24  N   LIG    1       -0.923   1.690  -5.937  0.00  0.00    -0.330 N 
ATOM     25  C   LIG    1       -0.605   1.348  -7.205  0.00  0.00    +0.470 A 
ATOM     26  N   LIG    1       -1.438   1.973  -7.996  0.00  0.00    -0.330 NA
ATOM     27  N   LIG    1       -2.260   2.687  -7.315  0.00  0.00    -0.030 NA
ATOM     28  N   LIG    1       -2.018   2.565  -6.054  0.00  0.00    -0.070 NA
ENDBRANCH  22  24
ENDBRANCH  17  18
ENDBRANCH  16  17
ENDBRANCH   2  16
TORSDOF 6
