REMARK  Name = ZINCrg00000cfBgw.0
REMARK                            x       y       z     vdW  Elec       q    Type
REMARK                         _______ _______ _______ _____ _____    ______ ____
ROOT
ATOM      1  N   LIG    1        1.685  -1.027  -1.416  0.00  0.00    -0.610 N 
ATOM      2  C   LIG    1        1.982  -2.344  -1.989  0.00  0.00    +0.340 C 
ATOM      3  C   LIG    1        2.323  -2.108  -3.439  0.00  0.00    -0.090 A 
ATOM      4  C   LIG    1        2.679  -2.946  -4.469  0.00  0.00    +0.110 A 
ATOM      5  C   LIG    1        2.948  -2.418  -5.734  0.00  0.00    -0.100 A 
ATOM      6  C   LIG    1        2.854  -1.042  -5.947  0.00  0.00    +0.050 A 
ATOM      7  C   LIG    1        2.497  -0.203  -4.913  0.00  0.00    +0.090 A 
ATOM      8  C   LIG    1        2.228  -0.730  -3.648  0.00  0.00    -0.130 A 
ATOM      9  C   LIG    1        1.831  -0.095  -2.374  0.00  0.00    +0.570 C 
ATOM     10  O   LIG    1        1.661   1.097  -2.215  0.00  0.00    -0.500 OA
ENDROOT
BRANCH   1  15
ATOM     11  O   LIG    1        0.237  -4.477   1.247  0.00  0.00    -0.490 OA
ATOM     12  C   LIG    1        0.555  -3.372   0.864  0.00  0.00    +0.520 C 
ATOM     13  C   LIG    1       -0.366  -2.617  -0.059  0.00  0.00    +0.090 C 
ATOM     14  C   LIG    1       -0.181  -1.113   0.167  0.00  0.00    +0.070 C 
ATOM     15  C   LIG    1        1.299  -0.768  -0.026  0.00  0.00    +0.300 C 
ATOM     16  C   LIG    1        2.130  -1.623   0.894  0.00  0.00    +0.520 C 
ATOM     17  O   LIG    1        3.189  -1.200   1.304  0.00  0.00    -0.470 OA
ATOM     18  N   LIG    1        1.720  -2.844   1.269  0.00  0.00    -0.670 N 
ATOM     19  H   LIG    1        2.290  -3.368   1.854  0.00  0.00    +0.420 HD
ENDBRANCH   1  15
BRANCH   5  20
ATOM     20  C   LIG    1        3.331  -3.316  -6.846  0.00  0.00    +0.560 C 
ATOM     21  N   LIG    1        3.591  -2.805  -8.066  0.00  0.00    -0.720 N 
ATOM     22  H   LIG    1        3.526  -1.849  -8.215  0.00  0.00    +0.400 HD
ATOM     23  O   LIG    1        3.412  -4.514  -6.659  0.00  0.00    -0.520 OA
BRANCH  21  24
ATOM     24  C   LIG    1        3.970  -3.694  -9.167  0.00  0.00    +0.230 C 
ATOM     25  C   LIG    1        5.468  -3.974  -9.093  0.00  0.00    +0.030 C 
ATOM     26  C   LIG    1        5.836  -5.106 -10.056  0.00  0.00    +0.120 C 
ATOM     27  S   LIG    1        5.477  -4.570 -11.756  0.00  0.00    -0.260 S 
ATOM     28  C   LIG    1        3.741  -4.046 -11.635  0.00  0.00    +0.120 C 
ATOM     29  C   LIG    1        3.609  -3.033 -10.494  0.00  0.00    +0.040 C 
ENDBRANCH  21  24
ENDBRANCH   5  20
TORSDOF 3
