REMARK  Name = ZINCvU0000000Fz1.0
REMARK                            x       y       z     vdW  Elec       q    Type
REMARK                         _______ _______ _______ _____ _____    ______ ____
ROOT
ATOM      1  O   LIG    1        1.280   1.984  -0.082  0.00  0.00    -0.320 OA
ENDROOT
BRANCH   1   2
ATOM      2  C   LIG    1        0.109   1.334  -0.227  0.00  0.00    +0.540 C 
ATOM      3  O   LIG    1        0.101   0.142  -0.467  0.00  0.00    -0.510 OA
BRANCH   2   7
ATOM      4  C   LIG    1       -3.306   5.060   0.464  0.00  0.00    +0.130 C 
ATOM      5  C   LIG    1       -2.654   3.726   0.206  0.00  0.00    +0.010 A 
ATOM      6  C   LIG    1       -1.329   3.498   0.183  0.00  0.00    +0.030 A 
ATOM      7  C   LIG    1       -1.160   2.067  -0.101  0.00  0.00    -0.220 A 
ATOM      8  C   LIG    1       -2.432   1.553  -0.232  0.00  0.00    +0.130 A 
ATOM      9  C   LIG    1       -2.779   0.118  -0.535  0.00  0.00    +0.150 C 
ATOM     10  N   LIG    1       -3.313   2.555  -0.040  0.00  0.00    -0.390 N 
BRANCH  10  11
ATOM     11  C   LIG    1       -4.707   2.418  -0.092  0.00  0.00    +0.100 A 
ATOM     12  C   LIG    1       -5.364   1.635   0.848  0.00  0.00    +0.020 A 
ATOM     13  C   LIG    1       -6.738   1.504   0.797  0.00  0.00    +0.020 A 
ATOM     14  C   LIG    1       -7.459   2.144  -0.195  0.00  0.00    +0.020 A 
ATOM     15  C   LIG    1       -6.807   2.921  -1.135  0.00  0.00    +0.020 A 
ATOM     16  C   LIG    1       -5.433   3.059  -1.086  0.00  0.00    +0.020 A 
ENDBRANCH  10  11
ENDBRANCH   2   7
ENDBRANCH   1   2
BRANCH   1  17
ATOM     17  C   LIG    1        2.493   1.198  -0.225  0.00  0.00    +0.210 C 
BRANCH  17  18
ATOM     18  C   LIG    1        2.929   1.206  -1.667  0.00  0.00    -0.110 A 
ATOM     19  C   LIG    1        2.821   2.363  -2.416  0.00  0.00    +0.040 A 
ATOM     20  C   LIG    1        3.226   2.372  -3.737  0.00  0.00    +0.010 A 
ATOM     21  C   LIG    1        3.730   1.221  -4.314  0.00  0.00    +0.020 A 
ATOM     22  C   LIG    1        3.833   0.062  -3.567  0.00  0.00    +0.010 A 
ATOM     23  C   LIG    1        3.432   0.055  -2.244  0.00  0.00    +0.040 A 
ENDBRANCH  17  18
BRANCH  17  24
ATOM     24  C   LIG    1        3.581   1.792   0.632  0.00  0.00    +0.410 C 
ATOM     25  O   LIG    1        3.518   2.954   0.972  0.00  0.00    -0.420 OA
BRANCH  24  26
ATOM     26  C   LIG    1        4.718   0.961   1.057  0.00  0.00    -0.160 A 
ATOM     27  C   LIG    1        4.730  -0.410   0.781  0.00  0.00    +0.050 A 
ATOM     28  C   LIG    1        5.801  -1.181   1.178  0.00  0.00    +0.000 A 
ATOM     29  C   LIG    1        6.860  -0.604   1.858  0.00  0.00    +0.050 A 
ATOM     30  C   LIG    1        6.854   0.751   2.139  0.00  0.00    +0.000 A 
ATOM     31  C   LIG    1        5.792   1.537   1.744  0.00  0.00    +0.080 A 
ENDBRANCH  24  26
ENDBRANCH  17  24
ENDBRANCH   1  17
TORSDOF 7
