REMARK  Name = ZINCqH0000034MUF.0
REMARK                            x       y       z     vdW  Elec       q    Type
REMARK                         _______ _______ _______ _____ _____    ______ ____
ROOT
ATOM      1  C   LIG    1       -2.869   2.102  -5.003  0.00  0.00    +0.290 C 
ATOM      2  C   LIG    1       -1.772   1.584  -5.935  0.00  0.00    +0.030 C 
ENDROOT
BRANCH   1   7
ATOM      3  C   LIG    1       -1.571   2.658  -1.501  0.00  0.00    -0.670 A 
ATOM      4  C   LIG    1       -1.090   3.950  -1.588  0.00  0.00    +0.120 A 
ATOM      5  C   LIG    1       -1.176   4.642  -2.782  0.00  0.00    +0.010 A 
ATOM      6  C   LIG    1       -1.753   4.045  -3.886  0.00  0.00    +0.070 A 
ATOM      7  C   LIG    1       -2.240   2.754  -3.799  0.00  0.00    -0.110 A 
ATOM      8  C   LIG    1       -2.149   2.060  -2.606  0.00  0.00    +0.130 A 
BRANCH   3   9
ATOM      9  S   LIG    1       -1.456   1.774   0.019  0.00  0.00    +2.700 S 
ATOM     10  O   LIG    1       -1.361   2.752   1.045  0.00  0.00    -0.950 OA
ATOM     11  O   LIG    1       -2.472   0.781  -0.017  0.00  0.00    -0.950 OA
BRANCH   9  13
ATOM     12  C   LIG    1        1.248   1.716  -0.001  0.00  0.00    +0.300 C 
ATOM     13  N   LIG    1       -0.011   0.966   0.007  0.00  0.00    -1.120 NA
ATOM     14  H   LIG    1        0.002  -0.004   0.002  0.00  0.00    +0.420 HD
ENDBRANCH   9  13
ENDBRANCH   3   9
ENDBRANCH   1   7
BRANCH   1  15
ATOM     15  N   LIG    1       -3.691   3.084  -5.715  0.00  0.00    -0.730 N 
ATOM     16  H   LIG    1       -3.496   4.031  -5.633  0.00  0.00    +0.400 HD
BRANCH  15  17
ATOM     17  C   LIG    1       -4.757   2.656  -6.513  0.00  0.00    +0.250 A 
ATOM     18  C   LIG    1       -5.030   1.296  -6.633  0.00  0.00    -0.040 A 
ATOM     19  C   LIG    1       -6.072   0.864  -7.404  0.00  0.00    +0.130 A 
ATOM     20  C   LIG    1       -6.862   1.788  -8.088  0.00  0.00    -0.030 A 
ATOM     21  N   LIG    1       -7.937   1.677  -8.917  0.00  0.00    -0.470 NA
ATOM     22  C   LIG    1       -8.303   2.866  -9.290  0.00  0.00    +0.260 A 
ATOM     23  O   LIG    1       -7.505   3.794  -8.737  0.00  0.00    -0.210 OA
ATOM     24  C   LIG    1       -6.587   3.160  -7.975  0.00  0.00    +0.060 A 
ATOM     25  C   LIG    1       -5.532   3.588  -7.185  0.00  0.00    -0.050 A 
BRANCH  22  26
ATOM     26  C   LIG    1       -9.458   3.162 -10.211  0.00  0.00    +0.050 C 
ATOM     27  C   LIG    1      -10.380   1.999 -10.584  0.00  0.00    +0.080 C 
ATOM     28  C   LIG    1       -9.408   2.567 -11.620  0.00  0.00    +0.060 C 
ENDBRANCH  22  26
ENDBRANCH  15  17
ENDBRANCH   1  15
TORSDOF 6
