REMARK  Name = ZINCvU0000000FlK.0
REMARK                            x       y       z     vdW  Elec       q    Type
REMARK                         _______ _______ _______ _____ _____    ______ ____
ROOT
ATOM      1  C   LIG    1        4.865  -4.255  -0.237  0.00  0.00    +0.510 C 
ATOM      2  N   LIG    1        5.883  -5.138  -0.240  0.00  0.00    -0.670 N 
ATOM      3  H   LIG    1        6.796  -4.826  -0.338  0.00  0.00    +0.420 HD
ATOM      4  O   LIG    1        3.720  -4.650  -0.189  0.00  0.00    -0.520 OA
ENDROOT
BRANCH   2   5
ATOM      5  C   LIG    1        5.622  -6.508  -0.101  0.00  0.00    +0.140 A 
ATOM      6  C   LIG    1        6.511  -7.318   0.593  0.00  0.00    +0.010 A 
ATOM      7  C   LIG    1        6.252  -8.666   0.734  0.00  0.00    +0.030 A 
ATOM      8  C   LIG    1        5.107  -9.216   0.171  0.00  0.00    -0.110 A 
ATOM      9  C   LIG    1        4.220  -8.406  -0.528  0.00  0.00    +0.050 A 
ATOM     10  C   LIG    1        4.477  -7.057  -0.664  0.00  0.00    +0.040 A 
BRANCH   8  11
ATOM     11  S   LIG    1        4.779 -10.938   0.344  0.00  0.00    -0.000 S 
BRANCH  11  12
ATOM     12  C   LIG    1        6.079 -11.485   1.401  0.00  0.00    -0.140 A 
ATOM     13  C   LIG    1        5.832 -11.711   2.749  0.00  0.00    +0.070 A 
ATOM     14  C   LIG    1        6.852 -12.143   3.574  0.00  0.00    -0.100 A 
ATOM     15  C   LIG    1        8.121 -12.342   3.060  0.00  0.00    +0.040 A 
ATOM     16  C   LIG    1        8.371 -12.113   1.719  0.00  0.00    +0.000 A 
ATOM     17  C   LIG    1        6.584 -12.395   5.035  0.00  0.00    +0.090 C 
ATOM     18  C   LIG    1        7.355 -11.685   0.888  0.00  0.00    -0.040 A 
ATOM     19  C   LIG    1        7.630 -11.434  -0.572  0.00  0.00    +0.090 C 
ENDBRANCH  11  12
ENDBRANCH   8  11
ENDBRANCH   2   5
BRANCH   1  20
ATOM     20  C   LIG    1        5.151  -2.776  -0.294  0.00  0.00    +0.320 C 
BRANCH  20  22
ATOM     21  C   LIG    1        3.898  -0.687  -0.322  0.00  0.00    +0.570 C 
ATOM     22  N   LIG    1        3.888  -2.034  -0.278  0.00  0.00    -0.720 N 
ATOM     23  H   LIG    1        3.045  -2.512  -0.237  0.00  0.00    +0.410 HD
ATOM     24  O   LIG    1        4.955  -0.088  -0.374  0.00  0.00    -0.520 OA
BRANCH  21  30
ATOM     25  C   LIG    1        2.631   1.462  -0.353  0.00  0.00    +0.190 A 
ATOM     26  C   LIG    1        1.430   2.154  -0.338  0.00  0.00    -0.080 A 
ATOM     27  C   LIG    1        0.234   1.465  -0.279  0.00  0.00    +0.080 A 
ATOM     28  C   LIG    1        0.225   0.081  -0.234  0.00  0.00    -0.040 A 
ATOM     29  C   LIG    1        1.410  -0.623  -0.247  0.00  0.00    +0.080 A 
ATOM     30  C   LIG    1        2.626   0.061  -0.307  0.00  0.00    -0.180 A 
BRANCH  25  31
ATOM     31  O   LIG    1        3.806   2.137  -0.411  0.00  0.00    -0.280 OA
BRANCH  31  33
ATOM     32  C   LIG    1        5.147   4.145  -0.517  0.00  0.00    +0.070 C 
ATOM     33  C   LIG    1        3.733   3.564  -0.455  0.00  0.00    +0.170 C 
ENDBRANCH  31  33
ENDBRANCH  25  31
ENDBRANCH  21  30
ENDBRANCH  20  22
ENDBRANCH   1  20
TORSDOF 8
