REMARK  Name = ZINCpe000000Umn4.0
REMARK                            x       y       z     vdW  Elec       q    Type
REMARK                         _______ _______ _______ _____ _____    ______ ____
ROOT
ATOM      1  O   LIG    1       -1.012  -2.177   0.033  0.00  0.00    -0.290 OA
ENDROOT
BRANCH   1   2
ATOM      2  C   LIG    1       -2.079  -3.019   0.022  0.00  0.00    +0.160 A 
ATOM      3  C   LIG    1       -3.368  -2.506   0.026  0.00  0.00    -0.110 A 
ATOM      4  C   LIG    1       -4.454  -3.362   0.010  0.00  0.00    +0.080 A 
ATOM      5  C   LIG    1       -4.259  -4.729   0.001  0.00  0.00    -0.060 A 
ATOM      6  C   LIG    1       -2.970  -5.248   0.002  0.00  0.00    +0.210 A 
ATOM      7  C   LIG    1       -1.879  -4.391   0.013  0.00  0.00    -0.030 A 
BRANCH   6   8
ATOM      8  N   LIG    1       -2.772  -6.633  -0.007  0.00  0.00    -0.560 N 
ATOM      9  C   LIG    1       -3.849  -7.624   0.104  0.00  0.00    +0.260 C 
ATOM     10  C   LIG    1       -3.153  -8.949   0.484  0.00  0.00    +0.060 C 
ATOM     11  C   LIG    1       -1.730  -8.731  -0.081  0.00  0.00    +0.070 C 
ATOM     12  C   LIG    1       -1.572  -7.227  -0.123  0.00  0.00    +0.510 C 
ATOM     13  O   LIG    1       -0.516  -6.643  -0.242  0.00  0.00    -0.500 OA
ENDBRANCH   6   8
ENDBRANCH   1   2
BRANCH   1  14
ATOM     14  C   LIG    1       -1.293  -0.775   0.042  0.00  0.00    +0.240 C 
BRANCH  14  17
ATOM     15  C   LIG    1       -1.295   2.058   0.057  0.00  0.00    +0.290 C 
ATOM     16  N   LIG    1       -0.016   1.343   0.063  0.00  0.00    -0.610 N 
ATOM     17  C   LIG    1        0.002  -0.004   0.053  0.00  0.00    +0.520 C 
ATOM     18  O   LIG    1        1.061  -0.597   0.053  0.00  0.00    -0.500 OA
BRANCH  16  19
ATOM     19  C   LIG    1        1.243   2.093   0.073  0.00  0.00    +0.280 C 
ATOM     20  C   LIG    1        1.311   2.971   1.335  0.00  0.00    +0.070 C 
ATOM     21  C   LIG    1        2.482   3.965   1.121  0.00  0.00    -0.310 C 
ATOM     22  S   LIG    1        2.257   4.474  -0.625  0.00  0.00    +2.400 S 
ATOM     23  O   LIG    1        3.520   4.490  -1.277  0.00  0.00    -0.930 OA
ATOM     24  O   LIG    1        1.417   5.619  -0.678  0.00  0.00    -0.930 OA
ATOM     25  C   LIG    1        1.313   3.005  -1.168  0.00  0.00    -0.330 C 
ENDBRANCH  16  19
ENDBRANCH  14  17
ENDBRANCH   1  14
TORSDOF 5
