REMARK  Name = ZINCnE000001L3yo.1
REMARK                            x       y       z     vdW  Elec       q    Type
REMARK                         _______ _______ _______ _____ _____    ______ ____
ROOT
ATOM      1  C   LIG    1       -3.005   4.119  -1.369  0.00  0.00    +0.460 C 
ATOM      2  N   LIG    1       -4.165   4.766  -1.601  0.00  0.00    -0.690 NA
ATOM      3  O   LIG    1       -2.325   3.741  -2.299  0.00  0.00    -0.560 OA
ENDROOT
BRANCH   2   4
ATOM      4  C   LIG    1       -4.580   4.998  -2.903  0.00  0.00    +0.400 A 
ATOM      5  N   LIG    1       -3.931   4.642  -3.956  0.00  0.00    -0.560 NA
ATOM      6  C   LIG    1       -4.467   4.936  -5.158  0.00  0.00    +0.130 A 
ATOM      7  C   LIG    1       -3.959   4.655  -6.443  0.00  0.00    +0.040 A 
ATOM      8  C   LIG    1       -4.648   5.040  -7.565  0.00  0.00    -0.060 A 
ATOM      9  C   LIG    1       -5.859   5.715  -7.453  0.00  0.00    +0.080 A 
ATOM     10  C   LIG    1       -6.375   6.001  -6.204  0.00  0.00    +0.030 A 
ATOM     11  C   LIG    1       -5.685   5.615  -5.057  0.00  0.00    -0.180 A 
ATOM     12  S   LIG    1       -6.065   5.826  -3.350  0.00  0.00    -0.030 S 
BRANCH   9  13
ATOM     13  O   LIG    1       -6.534   6.093  -8.572  0.00  0.00    -0.320 OA
ATOM     14  C   LIG    1       -5.941   5.764  -9.829  0.00  0.00    +0.220 C 
ENDBRANCH   9  13
ENDBRANCH   2   4
BRANCH   1  15
ATOM     15  C   LIG    1       -2.553   3.867   0.046  0.00  0.00    +0.090 C 
BRANCH  15  19
ATOM     16  C   LIG    1        1.179   1.786   0.000  0.00  0.00    +0.110 A 
ATOM     17  C   LIG    1       -0.013   1.076   0.008  0.00  0.00    -0.030 A 
ATOM     18  C   LIG    1       -1.218   1.751   0.017  0.00  0.00    +0.050 A 
ATOM     19  C   LIG    1       -1.237   3.133   0.030  0.00  0.00    -0.080 A 
ATOM     20  C   LIG    1       -0.051   3.844   0.023  0.00  0.00    +0.050 A 
ATOM     21  C   LIG    1        1.157   3.174   0.008  0.00  0.00    -0.090 A 
BRANCH  16  23
ATOM     22  C   LIG    1        3.553   1.921  -0.022  0.00  0.00    +0.220 C 
ATOM     23  O   LIG    1        2.366   1.125  -0.015  0.00  0.00    -0.320 OA
ENDBRANCH  16  23
ENDBRANCH  15  19
ENDBRANCH   1  15
TORSDOF 5
