REMARK  Name = ZINCpk00000y6wLZ.0
REMARK                            x       y       z     vdW  Elec       q    Type
REMARK                         _______ _______ _______ _____ _____    ______ ____
ROOT
ATOM      1  O   LIG    1       -7.298  -0.050  -0.732  0.00  0.00    -0.530 OA
ATOM      2  C   LIG    1       -8.124   0.292   0.092  0.00  0.00    +0.570 C 
ATOM      3  N   LIG    1       -8.465   1.591   0.205  0.00  0.00    -0.720 N 
ATOM      4  H   LIG    1       -9.125   1.864   0.861  0.00  0.00    +0.400 HD
ENDROOT
BRANCH   2   5
ATOM      5  C   LIG    1       -8.755  -0.715   0.967  0.00  0.00    -0.170 A 
ATOM      6  C   LIG    1       -8.410  -2.031   0.852  0.00  0.00    +0.320 A 
ATOM      7  N   LIG    1       -8.981  -2.966   1.657  0.00  0.00    -0.370 N 
ATOM      8  C   LIG    1       -8.827  -4.324   1.749  0.00  0.00    +0.100 A 
ATOM      9  C   LIG    1       -9.656  -4.753   2.724  0.00  0.00    +0.230 A 
ATOM     10  N   LIG    1      -10.310  -3.701   3.223  0.00  0.00    -0.490 NA
ATOM     11  C   LIG    1       -9.921  -2.605   2.589  0.00  0.00    +0.230 A 
ATOM     12  C   LIG    1      -10.293  -1.250   2.726  0.00  0.00    +0.090 A 
ATOM     13  C   LIG    1       -9.719  -0.316   1.927  0.00  0.00    +0.050 A 
ENDBRANCH   2   5
BRANCH   3  14
ATOM     14  C   LIG    1       -7.840   2.591  -0.664  0.00  0.00    +0.270 C 
BRANCH  14  15
ATOM     15  C   LIG    1       -8.452   3.965  -0.384  0.00  0.00    +0.180 C 
ATOM     16  C   LIG    1       -9.931   3.980  -0.824  0.00  0.00    +0.030 C 
ATOM     17  C   LIG    1      -10.099   5.402  -1.427  0.00  0.00    +0.200 C 
ATOM     18  C   LIG    1       -8.717   5.630  -2.089  0.00  0.00    +0.200 C 
ATOM     19  F   LIG    1      -11.122   5.425  -2.381  0.00  0.00    -0.200 F 
ATOM     20  N   LIG    1       -7.749   4.997  -1.169  0.00  0.00    -0.460 N 
BRANCH  20  21
ATOM     21  C   LIG    1       -6.680   4.448  -1.869  0.00  0.00    +0.220 A 
ATOM     22  C   LIG    1       -5.371   4.772  -1.516  0.00  0.00    +0.070 A 
ATOM     23  C   LIG    1       -4.341   4.194  -2.242  0.00  0.00    +0.050 A 
ATOM     24  C   LIG    1       -4.677   3.339  -3.282  0.00  0.00    +0.220 A 
ATOM     25  N   LIG    1       -5.943   3.092  -3.550  0.00  0.00    -0.230 NA
ATOM     26  N   LIG    1       -6.902   3.619  -2.879  0.00  0.00    -0.260 NA
ENDBRANCH  20  21
ENDBRANCH  14  15
ENDBRANCH   3  14
TORSDOF 4
