REMARK  Name = ZINCrH00000tj1bI.0
REMARK                            x       y       z     vdW  Elec       q    Type
REMARK                         _______ _______ _______ _____ _____    ______ ____
ROOT
ATOM      1  C   LIG    1       -4.950   3.596   0.067  0.00  0.00    -0.310 A 
ATOM      2  C   LIG    1       -5.688   2.415   0.068  0.00  0.00    +0.500 A 
ATOM      3  N   LIG    1       -4.858   1.337   0.054  0.00  0.00    -0.480 N 
ATOM      4  C   LIG    1       -3.537   1.736   0.044  0.00  0.00    +0.300 A 
ATOM      5  N   LIG    1       -2.393   1.085   0.030  0.00  0.00    -0.440 NA
ATOM      6  C   LIG    1       -1.239   1.764   0.018  0.00  0.00    +0.100 A 
ATOM      7  C   LIG    1       -0.013   1.076   0.008  0.00  0.00    +0.060 A 
ATOM      8  C   LIG    1        1.155   1.774   0.001  0.00  0.00    +0.030 A 
ATOM      9  C   LIG    1        1.158   3.167   0.009  0.00  0.00    +0.040 A 
ATOM     10  C   LIG    1       -0.008   3.868   0.024  0.00  0.00    +0.060 A 
ATOM     11  C   LIG    1       -1.237   3.182   0.031  0.00  0.00    +0.090 A 
ATOM     12  N   LIG    1       -2.391   3.860   0.045  0.00  0.00    -0.420 NA
ATOM     13  C   LIG    1       -3.532   3.201   0.052  0.00  0.00    +0.180 A 
ENDROOT
BRANCH   2  14
ATOM     14  N   LIG    1       -7.056   2.348   0.080  0.00  0.00    -0.820 N 
ATOM     15  H   LIG    1       -7.581   3.163   0.089  0.00  0.00    +0.430 HD
ATOM     16  H   LIG    1       -7.499   1.485   0.080  0.00  0.00    +0.410 HD
ENDBRANCH   2  14
BRANCH   1  17
ATOM     17  C   LIG    1       -5.463   4.915   0.079  0.00  0.00    +0.570 C 
ATOM     18  O   LIG    1       -5.694   5.488  -0.970  0.00  0.00    -0.500 OA
BRANCH  17  19
ATOM     19  O   LIG    1       -5.697   5.538   1.254  0.00  0.00    -0.350 OA
BRANCH  19  20
ATOM     20  C   LIG    1       -6.214   6.869   1.191  0.00  0.00    +0.200 C 
BRANCH  20  22
ATOM     21  C   LIG    1       -6.967   8.831   2.542  0.00  0.00    +0.030 C 
ATOM     22  C   LIG    1       -6.412   7.406   2.609  0.00  0.00    +0.020 C 
ENDBRANCH  20  22
ENDBRANCH  19  20
ENDBRANCH  17  19
ENDBRANCH   1  17
BRANCH   3  23
ATOM     23  C   LIG    1       -5.306  -0.058   0.050  0.00  0.00    +0.360 C 
BRANCH  23  24
ATOM     24  C   LIG    1       -5.447  -0.545   1.470  0.00  0.00    -0.130 A 
ATOM     25  C   LIG    1       -4.373  -1.139   2.106  0.00  0.00    +0.040 A 
ATOM     26  C   LIG    1       -4.500  -1.581   3.409  0.00  0.00    +0.010 A 
ATOM     27  C   LIG    1       -5.704  -1.438   4.073  0.00  0.00    +0.020 A 
ATOM     28  C   LIG    1       -6.779  -0.849   3.435  0.00  0.00    +0.010 A 
ATOM     29  C   LIG    1       -6.651  -0.402   2.134  0.00  0.00    +0.020 A 
ENDBRANCH  23  24
ENDBRANCH   3  23
TORSDOF 7
