REMARK  Name = ZINCqH00000321N6.0
REMARK                            x       y       z     vdW  Elec       q    Type
REMARK                         _______ _______ _______ _____ _____    ______ ____
ROOT
ATOM      1  C   LIG    1       -1.036   3.706  -2.997  0.00  0.00    +0.600 C 
ATOM      2  N   LIG    1       -1.567   3.111  -1.910  0.00  0.00    -0.610 N 
ATOM      3  C   LIG    1       -2.617   3.779  -1.129  0.00  0.00    +0.270 C 
ATOM      4  C   LIG    1       -2.184   3.827   0.340  0.00  0.00    +0.010 C 
ATOM      5  C   LIG    1       -1.850   2.412   0.816  0.00  0.00    +0.030 C 
ATOM      6  C   LIG    1       -0.690   1.853  -0.012  0.00  0.00    +0.050 C 
ATOM      7  C   LIG    1       -1.106   1.782  -1.484  0.00  0.00    +0.360 C 
ATOM      8  O   LIG    1       -0.267   3.092  -3.712  0.00  0.00    -0.500 OA
ENDROOT
BRANCH   1  13
ATOM      9  C   LIG    1       -1.780   7.012  -4.356  0.00  0.00    +0.050 A 
ATOM     10  N   LIG    1       -2.008   7.161  -3.076  0.00  0.00    -0.260 NA
ATOM     11  N   LIG    1       -1.794   6.065  -2.441  0.00  0.00    -0.380 N 
ATOM     12  H   LIG    1       -1.903   5.942  -1.485  0.00  0.00    +0.450 HD
ATOM     13  C   LIG    1       -1.386   5.099  -3.317  0.00  0.00    -0.030 A 
ATOM     14  C   LIG    1       -1.373   5.692  -4.568  0.00  0.00    +0.020 A 
BRANCH   9  16
ATOM     15  C   LIG    1       -3.200   7.812  -6.224  0.00  0.00    +0.050 C 
ATOM     16  C   LIG    1       -1.930   8.075  -5.414  0.00  0.00    +0.020 C 
ATOM     17  C   LIG    1       -0.716   8.043  -6.344  0.00  0.00    +0.050 C 
ATOM     18  C   LIG    1       -2.026   9.448  -4.746  0.00  0.00    +0.040 C 
ENDBRANCH   9  16
ENDBRANCH   1  13
BRANCH   7  19
ATOM     19  C   LIG    1        0.074   1.364  -2.323  0.00  0.00    +0.170 A 
ATOM     20  N   LIG    1        1.232   1.958  -2.374  0.00  0.00    -0.260 NA
ATOM     21  N   LIG    1        1.999   1.328  -3.194  0.00  0.00    -0.270 NA
ATOM     22  C   LIG    1        1.355   0.311  -3.693  0.00  0.00    +0.170 A 
ATOM     23  O   LIG    1        0.126   0.307  -3.151  0.00  0.00    -0.220 OA
BRANCH  22  24
ATOM     24  C   LIG    1        1.893  -0.681  -4.692  0.00  0.00    +0.100 C 
ATOM     25  C   LIG    1        3.360  -1.070  -4.445  0.00  0.00    +0.060 C 
ATOM     26  C   LIG    1        3.546  -1.022  -5.972  0.00  0.00    +0.030 C 
ATOM     27  C   LIG    1        2.364  -0.038  -6.007  0.00  0.00    +0.050 C 
ENDBRANCH  22  24
ENDBRANCH   7  19
TORSDOF 4
