REMARK  Name = ZINCkj000005hkIc.0
REMARK                            x       y       z     vdW  Elec       q    Type
REMARK                         _______ _______ _______ _____ _____    ______ ____
ROOT
ATOM      1  C   LIG    1       -1.239  -0.885  -0.009  0.00  0.00    +0.280 C 
ENDROOT
BRANCH   1   2
ATOM      2  N   LIG    1       -0.907  -2.031   0.848  0.00  0.00    -0.390 N 
ATOM      3  C   LIG    1        0.393  -2.620   0.435  0.00  0.00    +0.260 C 
ATOM      4  C   LIG    1        0.856  -3.380   1.704  0.00  0.00    +0.080 C 
ATOM      5  C   LIG    1        0.401  -2.448   2.850  0.00  0.00    +0.070 C 
ATOM      6  C   LIG    1       -0.722  -1.585   2.246  0.00  0.00    +0.250 C 
ATOM      7  H   LIG    1       -1.637  -2.726   0.798  0.00  0.00    +0.420 HD
ENDBRANCH   1   2
BRANCH   1   8
ATOM      8  C   LIG    1       -0.190   0.185   0.154  0.00  0.00    -0.100 A 
ATOM      9  C   LIG    1       -0.410   1.512   0.138  0.00  0.00    +0.040 A 
ATOM     10  C   LIG    1        0.844   2.138   0.326  0.00  0.00    -0.040 A 
ATOM     11  C   LIG    1        1.755   1.156   0.445  0.00  0.00    +0.230 A 
ATOM     12  O   LIG    1        1.124  -0.025   0.340  0.00  0.00    -0.180 OA
ENDBRANCH   1   8
BRANCH   1  13
ATOM     13  C   LIG    1       -1.283  -1.337  -1.470  0.00  0.00    +0.370 C 
BRANCH  13  18
ATOM     14  C   LIG    1       -5.872  -3.096  -2.207  0.00  0.00    +0.370 C 
ATOM     15  N   LIG    1       -4.425  -3.084  -1.977  0.00  0.00    -0.620 N 
ATOM     16  C   LIG    1       -3.546  -4.259  -1.845  0.00  0.00    +0.340 C 
ATOM     17  C   LIG    1       -2.173  -3.653  -1.629  0.00  0.00    +0.510 C 
ATOM     18  N   LIG    1       -2.357  -2.318  -1.645  0.00  0.00    -0.590 N 
ATOM     19  O   LIG    1       -1.127  -4.246  -1.473  0.00  0.00    -0.460 OA
ATOM     20  C   LIG    1       -3.641  -2.000  -1.847  0.00  0.00    +0.690 C 
ATOM     21  O   LIG    1       -4.052  -0.857  -1.905  0.00  0.00    -0.520 OA
ENDBRANCH  13  18
ENDBRANCH   1  13
TORSDOF 4
