REMARK  Name = ZINCtV000002MmHY.0
REMARK                            x       y       z     vdW  Elec       q    Type
REMARK                         _______ _______ _______ _____ _____    ______ ____
ROOT
ATOM      1  O   LIG    1        6.247   6.486  -1.130  0.00  0.00    -0.500 OA
ATOM      2  C   LIG    1        6.546   5.434  -0.607  0.00  0.00    +0.540 C 
ATOM      3  N   LIG    1        7.758   5.285  -0.038  0.00  0.00    -0.660 N 
ATOM      4  H   LIG    1        7.974   4.467   0.437  0.00  0.00    +0.420 HD
ENDROOT
BRANCH   3   5
ATOM      5  C   LIG    1        8.708   6.311  -0.133  0.00  0.00    +0.160 A 
ATOM      6  C   LIG    1        8.302   7.637  -0.121  0.00  0.00    +0.050 A 
ATOM      7  C   LIG    1        9.241   8.648  -0.208  0.00  0.00    +0.030 A 
ATOM      8  C   LIG    1       10.584   8.342  -0.321  0.00  0.00    +0.020 A 
ATOM      9  C   LIG    1       10.998   7.024  -0.339  0.00  0.00    +0.020 A 
ATOM     10  C   LIG    1       10.064   6.002  -0.245  0.00  0.00    -0.120 A 
BRANCH  10  11
ATOM     11  S   LIG    1       10.588   4.320  -0.269  0.00  0.00    -0.000 S 
BRANCH  11  12
ATOM     12  C   LIG    1       12.345   4.452  -0.269  0.00  0.00    -0.140 A 
ATOM     13  C   LIG    1       13.046   4.412  -1.468  0.00  0.00    +0.090 A 
ATOM     14  C   LIG    1       14.423   4.521  -1.465  0.00  0.00    +0.020 A 
ATOM     15  C   LIG    1       15.105   4.660  -0.269  0.00  0.00    -0.000 A 
ATOM     16  C   LIG    1       14.409   4.695   0.927  0.00  0.00    +0.020 A 
ATOM     17 CL   LIG    1       16.836   4.790  -0.269  0.00  0.00    -0.060 Cl
ATOM     18  C   LIG    1       13.033   4.592   0.930  0.00  0.00    +0.090 A 
ENDBRANCH  11  12
ENDBRANCH  10  11
ENDBRANCH   3   5
BRANCH   2  19
ATOM     19  C   LIG    1        5.561   4.293  -0.592  0.00  0.00    +0.120 C 
BRANCH  19  20
ATOM     20  S   LIG    1        4.038   4.800  -1.427  0.00  0.00    +0.090 S 
BRANCH  20  21
ATOM     21  C   LIG    1        3.095   3.320  -1.267  0.00  0.00    +0.250 A 
ATOM     22  N   LIG    1        3.507   2.224  -0.679  0.00  0.00    -0.490 NA
ATOM     23  C   LIG    1        2.530   1.281  -0.735  0.00  0.00    +0.070 A 
ATOM     24  C   LIG    1        2.440  -0.035  -0.276  0.00  0.00    +0.080 A 
ATOM     25  C   LIG    1        1.286  -0.758  -0.490  0.00  0.00    -0.040 A 
ATOM     26  C   LIG    1        0.213  -0.187  -1.159  0.00  0.00    +0.050 A 
ATOM     27  C   LIG    1        0.288   1.112  -1.620  0.00  0.00    +0.050 A 
ATOM     28 CL   LIG    1        1.175  -2.393   0.081  0.00  0.00    -0.060 Cl
ATOM     29  C   LIG    1        1.441   1.853  -1.413  0.00  0.00    +0.060 A 
ATOM     30  N   LIG    1        1.824   3.144  -1.738  0.00  0.00    -0.580 N 
ATOM     31  H   LIG    1        1.290   3.801  -2.212  0.00  0.00    +0.430 HD
ENDBRANCH  20  21
ENDBRANCH  19  20
ENDBRANCH   2  19
TORSDOF 6
