REMARK  Name = ZINCtV000002MmHY.1
REMARK                            x       y       z     vdW  Elec       q    Type
REMARK                         _______ _______ _______ _____ _____    ______ ____
ROOT
ATOM      1  O   LIG    1        1.930   5.764  -0.250  0.00  0.00    -0.500 OA
ATOM      2  C   LIG    1        2.847   5.008  -0.489  0.00  0.00    +0.540 C 
ATOM      3  N   LIG    1        2.657   3.675  -0.419  0.00  0.00    -0.660 N 
ATOM      4  H   LIG    1        3.405   3.071  -0.551  0.00  0.00    +0.420 HD
ENDROOT
BRANCH   3   5
ATOM      5  C   LIG    1        1.380   3.162  -0.157  0.00  0.00    +0.200 A 
ATOM      6  C   LIG    1        0.461   3.917   0.555  0.00  0.00    +0.020 A 
ATOM      7  C   LIG    1       -0.799   3.409   0.813  0.00  0.00    +0.060 A 
ATOM      8  C   LIG    1       -1.149   2.151   0.358  0.00  0.00    -0.010 A 
ATOM      9  C   LIG    1       -0.237   1.388  -0.348  0.00  0.00    +0.100 A 
ATOM     10  C   LIG    1        1.030   1.890  -0.611  0.00  0.00    -0.180 A 
BRANCH  10  11
ATOM     11  S   LIG    1        2.192   0.924  -1.516  0.00  0.00    +0.010 S 
BRANCH  11  12
ATOM     12  C   LIG    1        2.180   1.678  -3.109  0.00  0.00    -0.100 A 
ATOM     13  C   LIG    1        1.274   2.693  -3.392  0.00  0.00    +0.020 A 
ATOM     14  C   LIG    1        1.271   3.286  -4.639  0.00  0.00    +0.050 A 
ATOM     15  C   LIG    1        2.162   2.863  -5.610  0.00  0.00    -0.040 A 
ATOM     16  C   LIG    1        3.062   1.849  -5.333  0.00  0.00    +0.050 A 
ATOM     17 CL   LIG    1        2.150   3.606  -7.179  0.00  0.00    -0.060 Cl
ATOM     18  C   LIG    1        3.073   1.256  -4.086  0.00  0.00    +0.050 A 
ENDBRANCH  11  12
ENDBRANCH  10  11
ENDBRANCH   3   5
BRANCH   2  19
ATOM     19  C   LIG    1        4.199   5.557  -0.864  0.00  0.00    +0.120 C 
BRANCH  19  20
ATOM     20  S   LIG    1        4.134   7.366  -0.871  0.00  0.00    +0.090 S 
BRANCH  20  21
ATOM     21  C   LIG    1        5.796   7.730  -1.328  0.00  0.00    +0.250 A 
ATOM     22  N   LIG    1        6.724   6.837  -1.569  0.00  0.00    -0.490 NA
ATOM     23  C   LIG    1        7.886   7.462  -1.894  0.00  0.00    +0.060 A 
ATOM     24  C   LIG    1        9.160   7.001  -2.236  0.00  0.00    +0.090 A 
ATOM     25  C   LIG    1       10.161   7.904  -2.520  0.00  0.00    +0.030 A 
ATOM     26  C   LIG    1        9.913   9.268  -2.471  0.00  0.00    -0.020 A 
ATOM     27  C   LIG    1        8.659   9.739  -2.135  0.00  0.00    +0.040 A 
ATOM     28 CL   LIG    1       11.187  10.390  -2.833  0.00  0.00    -0.060 Cl
ATOM     29  C   LIG    1        7.641   8.844  -1.846  0.00  0.00    +0.070 A 
ATOM     30  N   LIG    1        6.309   8.986  -1.490  0.00  0.00    -0.580 N 
ATOM     31  H   LIG    1        5.830   9.822  -1.376  0.00  0.00    +0.430 HD
ENDBRANCH  20  21
ENDBRANCH  19  20
ENDBRANCH   2  19
TORSDOF 6
