REMARK  Name = ZINCrD000003OVie.0
REMARK                            x       y       z     vdW  Elec       q    Type
REMARK                         _______ _______ _______ _____ _____    ______ ____
ROOT
ATOM      1  C   LIG    1        3.665  -0.646  -0.089  0.00  0.00    +0.570 C 
ATOM      2  N   LIG    1        3.673  -1.989   0.025  0.00  0.00    -0.610 N 
ATOM      3  C   LIG    1        2.416  -2.749   0.087  0.00  0.00    +0.280 C 
ATOM      4  C   LIG    1        2.479  -3.873  -0.959  0.00  0.00    +0.170 C 
ATOM      5  N   LIG    1        3.696  -4.668  -0.743  0.00  0.00    -0.530 NA
ATOM      6  C   LIG    1        4.904  -3.857  -0.944  0.00  0.00    +0.190 C 
ATOM      7  C   LIG    1        4.940  -2.733   0.097  0.00  0.00    +0.300 C 
ATOM      8  O   LIG    1        4.709  -0.042  -0.235  0.00  0.00    -0.530 OA
ENDROOT
BRANCH   1  13
ATOM      9  C   LIG    1       -1.320   2.222   0.112  0.00  0.00    +0.100 C 
ATOM     10  C   LIG    1       -0.013   1.474   0.062  0.00  0.00    -0.060 A 
ATOM     11  C   LIG    1        0.328   0.613   1.089  0.00  0.00    +0.000 A 
ATOM     12  C   LIG    1        1.521  -0.079   1.046  0.00  0.00    +0.050 A 
ATOM     13  C   LIG    1        2.385   0.092  -0.036  0.00  0.00    -0.140 A 
ATOM     14  C   LIG    1        2.035   0.963  -1.069  0.00  0.00    -0.030 A 
ATOM     15  C   LIG    1        2.962   1.154  -2.243  0.00  0.00    +0.090 C 
ATOM     16  C   LIG    1        0.840   1.649  -1.014  0.00  0.00    +0.000 A 
ENDBRANCH   1  13
BRANCH   5  17
ATOM     17  C   LIG    1        3.709  -5.855  -1.608  0.00  0.00    +0.360 C 
BRANCH  17  18
ATOM     18  C   LIG    1        2.361  -6.527  -1.560  0.00  0.00    +0.190 A 
ATOM     19  N   LIG    1        1.344  -6.285  -2.348  0.00  0.00    -0.470 NA
ATOM     20  C   LIG    1        0.360  -7.118  -1.936  0.00  0.00    +0.230 A 
ATOM     21  N   LIG    1        0.835  -7.809  -0.932  0.00  0.00    -0.370 NA
ATOM     22  O   LIG    1        1.982  -7.485  -0.708  0.00  0.00    +0.100 OA
BRANCH  20  23
ATOM     23  C   LIG    1       -1.000  -7.227  -2.515  0.00  0.00    -0.050 A 
ATOM     24  C   LIG    1       -1.414  -6.478  -3.552  0.00  0.00    -0.030 A 
ATOM     25  S   LIG    1       -3.026  -6.859  -3.961  0.00  0.00    +0.200 S 
ATOM     26  C   LIG    1       -3.120  -8.062  -2.683  0.00  0.00    -0.060 A 
ATOM     27  C   LIG    1       -1.959  -8.120  -2.033  0.00  0.00    +0.040 A 
ENDBRANCH  20  23
ENDBRANCH  17  18
ENDBRANCH   5  17
TORSDOF 4
