REMARK  Name = ZINCvU0000000Di4.0
REMARK                            x       y       z     vdW  Elec       q    Type
REMARK                         _______ _______ _______ _____ _____    ______ ____
ROOT
ATOM      1  C   LIG    1       -2.952  -2.138   0.017  0.00  0.00    +0.280 A 
ATOM      2  N   LIG    1       -1.697  -1.814   0.003  0.00  0.00    -0.470 NA
ATOM      3  C   LIG    1       -1.412  -0.526   0.013  0.00  0.00    +0.090 A 
ATOM      4  C   LIG    1       -2.477   0.278   0.027  0.00  0.00    -0.060 A 
ATOM      5  S   LIG    1       -3.922  -0.730   0.035  0.00  0.00    +0.150 S 
ENDROOT
BRANCH   1   8
ATOM      6  C   LIG    1       -3.109  -5.893  -0.005  0.00  0.00    +0.110 C 
ATOM      7  C   LIG    1       -2.581  -4.481  -0.001  0.00  0.00    +0.510 C 
ATOM      8  N   LIG    1       -3.439  -3.441   0.013  0.00  0.00    -0.480 N 
ATOM      9  O   LIG    1       -1.385  -4.280  -0.011  0.00  0.00    -0.470 OA
BRANCH   8  10
ATOM     10  C   LIG    1       -4.820  -3.673   0.024  0.00  0.00    +0.100 A 
ATOM     11  C   LIG    1       -5.518  -3.775  -1.171  0.00  0.00    +0.030 A 
ATOM     12  C   LIG    1       -6.879  -4.008  -1.157  0.00  0.00    +0.020 A 
ATOM     13  C   LIG    1       -7.549  -4.130   0.046  0.00  0.00    +0.030 A 
ATOM     14  C   LIG    1       -6.857  -4.024   1.239  0.00  0.00    -0.080 A 
ATOM     15  C   LIG    1       -7.591  -4.158   2.549  0.00  0.00    +0.100 C 
ATOM     16  C   LIG    1       -5.495  -3.796   1.232  0.00  0.00    -0.060 A 
ATOM     17  C   LIG    1       -4.743  -3.680   2.532  0.00  0.00    +0.100 C 
ENDBRANCH   8  10
ENDBRANCH   1   8
BRANCH   3  18
ATOM     18  C   LIG    1        0.002  -0.004   0.002  0.00  0.00    +0.330 C 
BRANCH  18  19
ATOM     19  O   LIG    1       -0.018   1.448   0.010  0.00  0.00    -0.360 OA
BRANCH  19  20
ATOM     20  C   LIG    1        1.170   2.073   0.002  0.00  0.00    +0.460 C 
ATOM     21  O   LIG    1        2.192   1.429  -0.011  0.00  0.00    -0.490 OA
BRANCH  20  22
ATOM     22  C   LIG    1        1.228   3.579   0.010  0.00  0.00    +0.190 C 
BRANCH  22  23
ATOM     23  C   LIG    1        2.668   4.026  -0.002  0.00  0.00    -0.170 A 
ATOM     24  C   LIG    1        3.413   4.346   1.068  0.00  0.00    +0.250 A 
ATOM     25  N   LIG    1        4.672   4.705   0.669  0.00  0.00    -0.590 N 
ATOM     26  H   LIG    1        5.388   4.977   1.264  0.00  0.00    +0.420 HD
ATOM     27  C   LIG    1        4.770   4.622  -0.702  0.00  0.00    +0.100 A 
ATOM     28  C   LIG    1        5.799   4.866  -1.604  0.00  0.00    -0.010 A 
ATOM     29  C   LIG    1        5.584   4.686  -2.953  0.00  0.00    +0.030 A 
ATOM     30  C   LIG    1        4.348   4.263  -3.422  0.00  0.00    -0.020 A 
ATOM     31  C   LIG    1        3.322   4.018  -2.553  0.00  0.00    +0.050 A 
ATOM     32  C   LIG    1        3.521   4.187  -1.182  0.00  0.00    -0.090 A 
ENDBRANCH  22  23
ENDBRANCH  20  22
ENDBRANCH  19  20
ENDBRANCH  18  19
ENDBRANCH   3  18
TORSDOF 7
