REMARK  Name = ZINCrH000004tD8P.0
REMARK                            x       y       z     vdW  Elec       q    Type
REMARK                         _______ _______ _______ _____ _____    ______ ____
ROOT
ATOM      1  O   LIG    1       -5.023   3.719  -1.979  0.00  0.00    -0.490 OA
ATOM      2  C   LIG    1       -4.901   3.594  -3.180  0.00  0.00    +0.530 C 
ATOM      3  N   LIG    1       -3.799   4.062  -3.797  0.00  0.00    -0.600 N 
ATOM      4  C   LIG    1       -3.522   3.978  -5.243  0.00  0.00    +0.260 C 
ATOM      5  C   LIG    1       -2.531   5.135  -5.526  0.00  0.00    +0.040 C 
ATOM      6  C   LIG    1       -1.659   5.117  -4.243  0.00  0.00    +0.060 C 
ATOM      7  C   LIG    1       -2.671   4.741  -3.141  0.00  0.00    +0.320 C 
ENDROOT
BRANCH   7   8
ATOM      8  C   LIG    1       -2.024   3.813  -2.145  0.00  0.00    +0.170 A 
ATOM      9  N   LIG    1       -1.735   2.552  -2.334  0.00  0.00    -0.280 NA
ATOM     10  N   LIG    1       -1.183   2.071  -1.275  0.00  0.00    -0.290 NA
ATOM     11  C   LIG    1       -1.091   3.003  -0.369  0.00  0.00    +0.180 A 
ATOM     12  C   LIG    1       -0.493   2.879   1.008  0.00  0.00    +0.150 C 
ATOM     13  C   LIG    1       -1.446   3.508   2.028  0.00  0.00    +0.030 C 
ATOM     14  C   LIG    1       -1.141   4.996   2.165  0.00  0.00    +0.020 C 
ATOM     15  C   LIG    1       -0.669   5.571   0.830  0.00  0.00    +0.030 C 
ATOM     16  C   LIG    1       -1.776   5.419  -0.217  0.00  0.00    +0.280 C 
ATOM     17  N   LIG    1       -1.633   4.128  -0.891  0.00  0.00    -0.460 N 
ENDBRANCH   7   8
BRANCH   2  18
ATOM     18  C   LIG    1       -5.983   2.917  -3.981  0.00  0.00    +0.140 C 
BRANCH  18  19
ATOM     19  C   LIG    1       -7.009   2.297  -3.030  0.00  0.00    -0.070 C 
ATOM     20  S   LIG    1       -8.464   1.712  -3.962  0.00  0.00    -0.180 S 
ATOM     21  C   LIG    1       -9.803   2.722  -3.252  0.00  0.00    +0.150 C 
ATOM     22  C   LIG    1       -9.168   4.052  -2.789  0.00  0.00    +0.120 C 
ATOM     23  S   LIG    1       -7.657   3.564  -1.881  0.00  0.00    -0.120 S 
BRANCH  19  24
ATOM     24  C   LIG    1       -6.378   1.143  -2.247  0.00  0.00    +0.480 C 
ATOM     25  F   LIG    1       -5.845   0.209  -3.142  0.00  0.00    -0.170 F 
ATOM     26  F   LIG    1       -7.353   0.528  -1.456  0.00  0.00    -0.160 F 
ATOM     27  F   LIG    1       -5.358   1.639  -1.428  0.00  0.00    -0.150 F 
ENDBRANCH  19  24
ENDBRANCH  18  19
ENDBRANCH   2  18
TORSDOF 4
