REMARK  Name = ZINCpe000000SyZ0.0
REMARK                            x       y       z     vdW  Elec       q    Type
REMARK                         _______ _______ _______ _____ _____    ______ ____
ROOT
ATOM      1  C   LIG    1       -3.292  -0.419  -1.046  0.00  0.00    +0.520 C 
ATOM      2  N   LIG    1       -2.127   0.237  -0.880  0.00  0.00    -0.610 N 
ATOM      3  C   LIG    1       -2.106   1.705  -0.852  0.00  0.00    +0.280 C 
ATOM      4  C   LIG    1       -1.455   2.173   0.443  0.00  0.00    +0.320 C 
ATOM      5  N   LIG    1       -0.239   1.375   0.659  0.00  0.00    -0.630 N 
ATOM      6  C   LIG    1        1.002   1.811   0.880  0.00  0.00    +0.700 C 
ATOM      7  N   LIG    1        1.929   0.843   0.841  0.00  0.00    -0.630 N 
ATOM      8  C   LIG    1        1.266  -0.454   0.631  0.00  0.00    +0.280 C 
ATOM      9  O   LIG    1        1.268   2.978   1.095  0.00  0.00    -0.580 OA
ATOM     10  C   LIG    1       -0.231  -0.102   0.605  0.00  0.00    +0.200 C 
ATOM     11  C   LIG    1       -0.872  -0.514  -0.726  0.00  0.00    +0.270 C 
ATOM     12  O   LIG    1       -4.333   0.199  -1.110  0.00  0.00    -0.520 OA
ENDROOT
BRANCH   1  19
ATOM     13  C   LIG    1       -0.245  -3.965  -2.695  0.00  0.00    +0.100 C 
ATOM     14  C   LIG    1       -1.621  -4.577  -2.765  0.00  0.00    +0.510 C 
ATOM     15  N   LIG    1       -2.712  -3.804  -2.592  0.00  0.00    -0.610 N 
ATOM     16  C   LIG    1       -4.054  -4.400  -2.555  0.00  0.00    +0.280 C 
ATOM     17  C   LIG    1       -4.758  -3.951  -1.271  0.00  0.00    +0.020 C 
ATOM     18  C   LIG    1       -4.747  -2.423  -1.195  0.00  0.00    +0.060 C 
ATOM     19  C   LIG    1       -3.301  -1.923  -1.153  0.00  0.00    -0.020 C 
ATOM     20  C   LIG    1       -2.581  -2.349  -2.436  0.00  0.00    +0.280 C 
ATOM     21  O   LIG    1       -1.747  -5.764  -2.977  0.00  0.00    -0.540 OA
ENDBRANCH   1  19
BRANCH   7  22
ATOM     22  C   LIG    1        3.373   1.044   0.984  0.00  0.00    +0.330 C 
BRANCH  22  23
ATOM     23  C   LIG    1        3.994   1.284  -0.393  0.00  0.00    -0.050 C 
ATOM     24  C   LIG    1        3.844   0.024  -1.248  0.00  0.00    +0.020 C 
ATOM     25  C   LIG    1        5.479   1.617  -0.233  0.00  0.00    +0.030 C 
ENDBRANCH  22  23
ENDBRANCH   7  22
TORSDOF 3
