REMARK  Name = ZINCpe00000gN03O.0
REMARK                            x       y       z     vdW  Elec       q    Type
REMARK                         _______ _______ _______ _____ _____    ______ ____
ROOT
ATOM      1  C   LIG    1        5.859   5.071  -0.024  0.00  0.00    +0.570 C 
ATOM      2  O   LIG    1        5.194   6.088  -0.013  0.00  0.00    -0.490 OA
ENDROOT
BRANCH   1   3
ATOM      3  C   LIG    1        5.192   3.754  -0.024  0.00  0.00    -0.000 A 
ATOM      4  N   LIG    1        5.787   2.577  -0.036  0.00  0.00    -0.210 NA
ATOM      5  N   LIG    1        4.915   1.634  -0.028  0.00  0.00    -0.370 N 
ATOM      6  H   LIG    1        5.121   0.686  -0.030  0.00  0.00    +0.450 HD
ATOM      7  C   LIG    1        3.658   2.162  -0.020  0.00  0.00    +0.060 A 
ATOM      8  C   LIG    1        3.799   3.521  -0.014  0.00  0.00    +0.020 A 
BRANCH   7   9
ATOM      9  C   LIG    1        2.384   1.407  -0.013  0.00  0.00    -0.030 A 
ATOM     10  C   LIG    1        1.167   2.088   0.002  0.00  0.00    +0.040 A 
ATOM     11  C   LIG    1       -0.017   1.379   0.010  0.00  0.00    +0.020 A 
ATOM     12  C   LIG    1        0.002  -0.004   0.002  0.00  0.00    +0.020 A 
ATOM     13  C   LIG    1        1.206  -0.685  -0.013  0.00  0.00    +0.020 A 
ATOM     14  C   LIG    1        2.397   0.012  -0.020  0.00  0.00    +0.010 A 
ENDBRANCH   7   9
ENDBRANCH   1   3
BRANCH   1  15
ATOM     15  O   LIG    1        7.204   5.145  -0.034  0.00  0.00    -0.330 OA
BRANCH  15  16
ATOM     16  C   LIG    1        7.791   6.473  -0.033  0.00  0.00    +0.330 C 
BRANCH  16  21
ATOM     17  C   LIG    1       13.486   6.122  -0.082  0.00  0.00    +0.340 C 
ATOM     18  N   LIG    1       12.023   6.195  -0.069  0.00  0.00    -0.560 N 
ATOM     19  C   LIG    1       11.294   5.061  -0.069  0.00  0.00    +0.550 A 
ATOM     20  C   LIG    1        9.881   5.143  -0.051  0.00  0.00    -0.080 A 
ATOM     21  C   LIG    1        9.293   6.358  -0.046  0.00  0.00    +0.180 A 
ATOM     22  N   LIG    1       10.069   7.486  -0.047  0.00  0.00    -0.530 N 
ATOM     23  C   LIG    1        9.432   8.805  -0.036  0.00  0.00    +0.340 C 
ATOM     24  O   LIG    1       11.847   3.975  -0.080  0.00  0.00    -0.510 OA
ATOM     25  C   LIG    1       11.411   7.394  -0.058  0.00  0.00    +0.700 A 
ATOM     26  O   LIG    1       12.081   8.409  -0.059  0.00  0.00    -0.530 OA
ENDBRANCH  16  21
ENDBRANCH  15  16
ENDBRANCH   1  15
TORSDOF 5
