REMARK  Name = ZINCpk00000e9gLF.0
REMARK                            x       y       z     vdW  Elec       q    Type
REMARK                         _______ _______ _______ _____ _____    ______ ____
ROOT
ATOM      1  C   LIG    1       -3.808   4.284   2.942  0.00  0.00    +0.270 C 
ENDROOT
BRANCH   1   3
ATOM      2  N   LIG    1       -3.116   2.173   1.855  0.00  0.00    -0.600 N 
ATOM      3  C   LIG    1       -2.969   3.509   1.960  0.00  0.00    +0.520 C 
ATOM      4  O   LIG    1       -2.161   4.086   1.264  0.00  0.00    -0.500 OA
BRANCH   2   5
ATOM      5  C   LIG    1       -2.300   1.419   0.900  0.00  0.00    +0.280 C 
ATOM      6  C   LIG    1       -0.805   1.619   1.230  0.00  0.00    +0.070 C 
ATOM      7  C   LIG    1       -0.013   1.086   0.008  0.00  0.00    -0.310 C 
ATOM      8  S   LIG    1       -0.976   1.731  -1.411  0.00  0.00    +2.400 S 
ATOM      9  O   LIG    1       -1.107   0.713  -2.394  0.00  0.00    -0.940 OA
ATOM     10  O   LIG    1       -0.475   3.009  -1.778  0.00  0.00    -0.920 OA
ATOM     11  C   LIG    1       -2.566   1.934  -0.529  0.00  0.00    -0.330 C 
ENDBRANCH   2   5
BRANCH   2  13
ATOM     12  C   LIG    1       -3.422   1.041   4.001  0.00  0.00    +0.020 C 
ATOM     13  C   LIG    1       -4.091   1.475   2.696  0.00  0.00    +0.280 C 
ENDBRANCH   2  13
ENDBRANCH   1   3
BRANCH   1  14
ATOM     14  O   LIG    1       -3.466   5.693   2.866  0.00  0.00    -0.320 OA
BRANCH  14  15
ATOM     15  C   LIG    1       -4.131   6.530   3.686  0.00  0.00    +0.520 C 
ATOM     16  O   LIG    1       -4.974   6.094   4.444  0.00  0.00    -0.500 OA
BRANCH  15  17
ATOM     17  C   LIG    1       -3.835   7.974   3.663  0.00  0.00    -0.110 A 
ATOM     18  C   LIG    1       -2.858   8.479   2.793  0.00  0.00    +0.110 A 
ATOM     19  C   LIG    1       -2.581   9.808   2.761  0.00  0.00    +0.080 A 
ATOM     20  C   LIG    1       -3.264  10.706   3.610  0.00  0.00    +0.120 A 
ATOM     21  N   LIG    1       -3.132  12.038   3.729  0.00  0.00    -0.470 NA
ATOM     22  C   LIG    1       -3.873  12.641   4.581  0.00  0.00    +0.290 A 
ATOM     23  S   LIG    1       -4.901  11.552   5.399  0.00  0.00    +0.130 S 
ATOM     24  C   LIG    1       -4.237  10.201   4.484  0.00  0.00    -0.210 A 
ATOM     25  C   LIG    1       -4.521   8.842   4.510  0.00  0.00    +0.160 A 
ENDBRANCH  15  17
ENDBRANCH  14  15
ENDBRANCH   1  14
TORSDOF 6
