REMARK  Name = ZINCrD0000045FLa.0
REMARK                            x       y       z     vdW  Elec       q    Type
REMARK                         _______ _______ _______ _____ _____    ______ ____
ROOT
ATOM      1  C   LIG    1       -1.667   1.338  -0.675  0.00  0.00    +0.330 C 
ATOM      2  C   LIG    1       -1.384   0.921   0.785  0.00  0.00    +0.130 C 
ATOM      3  C   LIG    1       -2.428   1.757   1.560  0.00  0.00    +0.080 C 
ATOM      4  C   LIG    1       -2.710   2.934   0.651  0.00  0.00    +0.530 C 
ATOM      5  O   LIG    1       -3.255   3.962   0.994  0.00  0.00    -0.520 OA
ATOM      6  N   LIG    1       -2.268   2.674  -0.592  0.00  0.00    -0.600 N 
ENDROOT
BRANCH   1  10
ATOM      7  C   LIG    1        2.047   0.194  -3.841  0.00  0.00    +0.350 C 
ATOM      8  N   LIG    1        1.232   0.889  -2.841  0.00  0.00    -0.380 N 
ATOM      9  C   LIG    1        0.042   0.474  -2.358  0.00  0.00    +0.250 A 
ATOM     10  C   LIG    1       -0.382   1.393  -1.460  0.00  0.00    -0.260 A 
ATOM     11  C   LIG    1        0.586   2.400  -1.385  0.00  0.00    +0.270 A 
ATOM     12  N   LIG    1        1.554   2.099  -2.212  0.00  0.00    -0.290 NA
ENDBRANCH   1  10
BRANCH   2  13
ATOM     13  C   LIG    1        0.017   1.297   1.191  0.00  0.00    +0.170 A 
ATOM     14  N   LIG    1        0.535   2.492   1.158  0.00  0.00    -0.270 NA
ATOM     15  N   LIG    1        1.751   2.442   1.576  0.00  0.00    -0.280 NA
ATOM     16  C   LIG    1        2.050   1.214   1.891  0.00  0.00    +0.170 A 
ATOM     17  O   LIG    1        0.960   0.463   1.660  0.00  0.00    -0.220 OA
BRANCH  16  18
ATOM     18  C   LIG    1        3.374   0.727   2.422  0.00  0.00    +0.190 C 
BRANCH  18  19
ATOM     19  C   LIG    1        3.367   0.797   3.950  0.00  0.00    -0.010 C 
ATOM     20  C   LIG    1        3.319   2.268   4.411  0.00  0.00    +0.020 C 
ATOM     21  C   LIG    1        4.222   2.300   5.670  0.00  0.00    +0.010 C 
ATOM     22  C   LIG    1        5.371   1.332   5.293  0.00  0.00    +0.010 C 
ATOM     23  C   LIG    1        4.671   0.201   4.510  0.00  0.00    +0.020 C 
ENDBRANCH  18  19
ENDBRANCH  16  18
ENDBRANCH   2  13
BRANCH   6  24
ATOM     24  C   LIG    1       -2.374   3.605  -1.718  0.00  0.00    +0.190 C 
ATOM     25  C   LIG    1       -1.471   4.814  -1.467  0.00  0.00    +0.030 C 
ATOM     26  C   LIG    1       -3.825   4.072  -1.859  0.00  0.00    +0.050 C 
ATOM     27  C   LIG    1       -1.939   2.901  -3.004  0.00  0.00    +0.030 C 
ENDBRANCH   6  24
TORSDOF 5
