REMARK  Name = ZINCb70000002qxh.0
REMARK                            x       y       z     vdW  Elec       q    Type
REMARK                         _______ _______ _______ _____ _____    ______ ____
ROOT
ATOM      1  C   LIG    1        3.025   1.501   4.051  0.00  0.00    +0.110 C 
ATOM      2  C   LIG    1        3.007   1.682   2.532  0.00  0.00    +0.150 C 
ATOM      3  C   LIG    1        4.436   1.596   1.990  0.00  0.00    +0.250 C 
ATOM      4  N   LIG    1        4.413   1.731   0.526  0.00  0.00    -0.510 N 
ATOM      5  C   LIG    1        3.619   0.636  -0.051  0.00  0.00    +0.270 C 
ATOM      6  C   LIG    1        2.209   0.676   0.517  0.00  0.00    +0.060 C 
ATOM      7  C   LIG    1        1.449   1.916  -0.002  0.00  0.00    -0.010 C 
ATOM      8  C   LIG    1       -0.017   1.429   0.010  0.00  0.00    +0.220 C 
ATOM      9  O   LIG    1        0.002  -0.004   0.002  0.00  0.00    -0.360 OA
ATOM     10  C   LIG    1        1.359  -0.477  -0.051  0.00  0.00    +0.270 C 
ATOM     11  H   LIG    1        5.356   1.688   0.170  0.00  0.00    +0.440 HD
ATOM     12  H   LIG    1        3.999   2.616   0.276  0.00  0.00    +0.430 HD
ATOM     13  O   LIG    1        2.216   0.647   1.936  0.00  0.00    -0.330 OA
ENDROOT
TORSDOF 0
