REMARK  Name = ZINCpk00000y6wDs.0
REMARK                            x       y       z     vdW  Elec       q    Type
REMARK                         _______ _______ _______ _____ _____    ______ ____
ROOT
ATOM      1  O   LIG    1        5.981  -5.129   1.470  0.00  0.00    -0.510 OA
ATOM      2  C   LIG    1        5.368  -5.226   0.428  0.00  0.00    +0.520 C 
ATOM      3  N   LIG    1        4.731  -4.154  -0.082  0.00  0.00    -0.620 N 
ATOM      4  C   LIG    1        3.956  -4.131  -1.331  0.00  0.00    +0.260 C 
ATOM      5  C   LIG    1        3.392  -2.703  -1.494  0.00  0.00    +0.040 C 
ATOM      6  C   LIG    1        3.411  -2.154  -0.043  0.00  0.00    +0.170 C 
ATOM      7  C   LIG    1        4.697  -2.808   0.521  0.00  0.00    +0.300 C 
ENDROOT
BRANCH   6   8
ATOM      8  O   LIG    1        3.516  -0.729  -0.036  0.00  0.00    -0.290 OA
BRANCH   8   9
ATOM      9  C   LIG    1        2.353  -0.025  -0.021  0.00  0.00    +0.080 A 
ATOM     10  C   LIG    1        2.371   1.366  -0.013  0.00  0.00    +0.030 A 
ATOM     11  C   LIG    1        1.161   2.040   0.002  0.00  0.00    +0.010 A 
ATOM     12  C   LIG    1       -0.016   1.315   0.009  0.00  0.00    +0.220 A 
ATOM     13  N   LIG    1        0.002  -0.004   0.002  0.00  0.00    -0.450 NA
ATOM     14  C   LIG    1        1.132  -0.683  -0.012  0.00  0.00    +0.180 A 
ENDBRANCH   8   9
ENDBRANCH   6   8
BRANCH   2  15
ATOM     15  C   LIG    1        5.319  -6.546  -0.297  0.00  0.00    +0.370 C 
BRANCH  15  16
ATOM     16  N   LIG    1        6.083  -7.545   0.454  0.00  0.00    -0.530 N 
ATOM     17  C   LIG    1        7.393  -7.815   0.300  0.00  0.00    +0.690 A 
ATOM     18  N   LIG    1        7.760  -8.787   1.157  0.00  0.00    -0.640 N 
ATOM     19  H   LIG    1        8.651  -9.159   1.245  0.00  0.00    +0.440 HD
ATOM     20  C   LIG    1        6.641  -9.169   1.892  0.00  0.00    +0.090 A 
ATOM     21  C   LIG    1        6.433 -10.108   2.890  0.00  0.00    +0.030 A 
ATOM     22  C   LIG    1        5.175 -10.261   3.441  0.00  0.00    +0.030 A 
ATOM     23  C   LIG    1        4.121  -9.480   2.999  0.00  0.00    +0.020 A 
ATOM     24  C   LIG    1        4.318  -8.542   2.004  0.00  0.00    +0.030 A 
ATOM     25  O   LIG    1        8.134  -7.262  -0.491  0.00  0.00    -0.550 OA
ATOM     26  C   LIG    1        5.577  -8.382   1.446  0.00  0.00    +0.100 A 
ENDBRANCH  15  16
ENDBRANCH   2  15
TORSDOF 4
