REMARK  Name = ZINCvU00000009zT.0
REMARK                            x       y       z     vdW  Elec       q    Type
REMARK                         _______ _______ _______ _____ _____    ______ ____
ROOT
ATOM      1  O   LIG    1        4.665   3.224  -1.457  0.00  0.00    -0.500 OA
ATOM      2  C   LIG    1        3.779   2.590  -0.925  0.00  0.00    +0.520 C 
ATOM      3  N   LIG    1        3.454   1.367  -1.389  0.00  0.00    -0.670 N 
ATOM      4  H   LIG    1        2.792   0.832  -0.924  0.00  0.00    +0.410 HD
ENDROOT
BRANCH   3   5
ATOM      5  C   LIG    1        4.072   0.869  -2.543  0.00  0.00    +0.150 A 
ATOM      6  C   LIG    1        3.356   0.068  -3.424  0.00  0.00    +0.020 A 
ATOM      7  C   LIG    1        3.964  -0.419  -4.564  0.00  0.00    +0.030 A 
ATOM      8  C   LIG    1        5.294  -0.116  -4.824  0.00  0.00    +0.110 A 
ATOM      9  C   LIG    1        6.011   0.680  -3.942  0.00  0.00    +0.040 A 
ATOM     10  C   LIG    1        5.402   1.171  -2.804  0.00  0.00    +0.050 A 
BRANCH   8  11
ATOM     11  N   LIG    1        5.913  -0.616  -5.979  0.00  0.00    -0.450 N 
ATOM     12  C   LIG    1        6.632   0.103  -6.886  0.00  0.00    +0.490 A 
ATOM     13  N   LIG    1        7.062  -0.676  -7.835  0.00  0.00    -0.490 NA
ATOM     14  C   LIG    1        6.651  -1.950  -7.603  0.00  0.00    +0.050 A 
ATOM     15  C   LIG    1        6.825  -3.157  -8.284  0.00  0.00    +0.070 A 
ATOM     16  C   LIG    1        6.269  -4.311  -7.782  0.00  0.00    +0.000 A 
ATOM     17  C   LIG    1        5.535  -4.286  -6.604  0.00  0.00    +0.030 A 
ATOM     18  C   LIG    1        5.354  -3.103  -5.919  0.00  0.00    +0.010 A 
ATOM     19  C   LIG    1        5.913  -1.931  -6.407  0.00  0.00    +0.050 A 
ENDBRANCH   8  11
ENDBRANCH   3   5
BRANCH   2  20
ATOM     20  C   LIG    1        3.041   3.169   0.254  0.00  0.00    +0.100 C 
BRANCH  20  21
ATOM     21  C   LIG    1        3.601   4.556   0.575  0.00  0.00    +0.070 C 
ATOM     22  S   LIG    1        5.326   4.405   1.128  0.00  0.00    -0.030 S 
ATOM     23  C   LIG    1        5.124   3.769   2.764  0.00  0.00    -0.150 A 
ATOM     24  C   LIG    1        6.101   2.955   3.314  0.00  0.00    +0.110 A 
ATOM     25  C   LIG    1        5.956   2.477   4.604  0.00  0.00    +0.030 A 
ATOM     26  C   LIG    1        4.837   2.817   5.343  0.00  0.00    +0.000 A 
ATOM     27  C   LIG    1        3.858   3.624   4.797  0.00  0.00    +0.010 A 
ATOM     28 CL   LIG    1        4.662   2.225   6.966  0.00  0.00    -0.050 Cl
ATOM     29  C   LIG    1        3.982   4.096   3.495  0.00  0.00    +0.170 A 
ATOM     30  N   LIG    1        2.978   4.903   2.965  0.00  0.00    -0.650 N 
ATOM     31  H   LIG    1        2.355   5.298   3.595  0.00  0.00    +0.420 HD
ATOM     32  C   LIG    1        2.792   5.185   1.679  0.00  0.00    +0.530 C 
ATOM     33  O   LIG    1        1.929   5.984   1.381  0.00  0.00    -0.500 OA
ENDBRANCH  20  21
ENDBRANCH   2  20
TORSDOF 4
