REMARK  Name = ZINCqH0000062TLK.0
REMARK                            x       y       z     vdW  Elec       q    Type
REMARK                         _______ _______ _______ _____ _____    ______ ____
ROOT
ATOM      1  N   LIG    1       -1.436   0.820   3.613  0.00  0.00    -0.360 N 
ATOM      2  N   LIG    1       -1.903  -0.446   4.002  0.00  0.00    -0.280 NA
ATOM      3  C   LIG    1       -2.175  -1.105   2.896  0.00  0.00    +0.270 A 
ATOM      4  N   LIG    1       -1.907  -0.314   1.848  0.00  0.00    -0.470 NA
ATOM      5  C   LIG    1       -1.468   0.843   2.268  0.00  0.00    +0.280 A 
ENDROOT
BRANCH   3   6
ATOM      6  C   LIG    1       -2.691  -2.494   2.822  0.00  0.00    +0.180 A 
ATOM      7  C   LIG    1       -2.921  -3.193   3.992  0.00  0.00    +0.040 A 
ATOM      8  C   LIG    1       -3.410  -4.507   3.904  0.00  0.00    -0.030 A 
ATOM      9  C   LIG    1       -3.671  -5.284   5.042  0.00  0.00    +0.020 A 
ATOM     10  C   LIG    1       -4.145  -6.553   4.894  0.00  0.00    +0.030 A 
ATOM     11  C   LIG    1       -4.375  -7.089   3.629  0.00  0.00    +0.020 A 
ATOM     12  C   LIG    1       -4.133  -6.364   2.502  0.00  0.00    +0.050 A 
ATOM     13  C   LIG    1       -3.644  -5.053   2.614  0.00  0.00    -0.110 A 
ATOM     14  C   LIG    1       -3.378  -4.261   1.484  0.00  0.00    +0.320 A 
ATOM     15  N   LIG    1       -2.928  -3.038   1.627  0.00  0.00    -0.450 NA
ENDBRANCH   3   6
BRANCH   5  16
ATOM     16  C   LIG    1       -1.059   2.001   1.395  0.00  0.00    -0.330 C 
ATOM     17  C   LIG    1       -2.300   2.631   0.720  0.00  0.00    +0.100 C 
ATOM     18  C   LIG    1       -1.895   3.152  -0.670  0.00  0.00    +0.080 C 
ATOM     19  C   LIG    1       -1.088   2.017  -1.351  0.00  0.00    -0.290 C 
ATOM     20  S   LIG    1       -0.017   1.417   0.010  0.00  0.00    +2.400 S 
ATOM     21  O   LIG    1        1.205   2.141   0.002  0.00  0.00    -0.930 OA
ATOM     22  O   LIG    1        0.002  -0.004   0.002  0.00  0.00    -0.890 OA
ENDBRANCH   5  16
BRANCH   1  23
ATOM     23  C   LIG    1       -1.004   1.905   4.498  0.00  0.00    +0.260 C 
ATOM     24  C   LIG    1       -2.161   2.307   5.415  0.00  0.00    +0.050 C 
BRANCH  23  26
ATOM     25  C   LIG    1        0.709   2.599   6.179  0.00  0.00    +0.040 C 
ATOM     26  C   LIG    1        0.178   1.430   5.346  0.00  0.00    +0.020 C 
ENDBRANCH  23  26
ENDBRANCH   1  23
TORSDOF 4
