REMARK  Name = ZINCvU00000006Z0.0
REMARK                            x       y       z     vdW  Elec       q    Type
REMARK                         _______ _______ _______ _____ _____    ______ ____
ROOT
ATOM      1  C   LIG    1        3.639   3.117  -0.016  0.00  0.00    +0.100 C 
ENDROOT
BRANCH   1   4
ATOM      2  N   LIG    1        5.709   4.471  -0.029  0.00  0.00    -0.720 N 
ATOM      3  H   LIG    1        6.213   3.642  -0.038  0.00  0.00    +0.400 HD
ATOM      4  C   LIG    1        4.362   4.439  -0.017  0.00  0.00    +0.540 C 
ATOM      5  O   LIG    1        3.731   5.475  -0.006  0.00  0.00    -0.520 OA
BRANCH   2   7
ATOM      6  C   LIG    1        6.560   6.257   1.408  0.00  0.00    +0.040 C 
ATOM      7  C   LIG    1        6.412   5.756  -0.030  0.00  0.00    +0.290 C 
BRANCH   7   8
ATOM      8  C   LIG    1        7.777   5.582  -0.644  0.00  0.00    -0.100 A 
ATOM      9  C   LIG    1        8.526   4.455  -0.360  0.00  0.00    +0.000 A 
ATOM     10  C   LIG    1        9.774   4.302  -0.928  0.00  0.00    +0.010 A 
ATOM     11  C   LIG    1       10.289   5.275  -1.774  0.00  0.00    -0.070 A 
ATOM     12  C   LIG    1       11.666   5.053  -2.344  0.00  0.00    +0.080 C 
ATOM     13  C   LIG    1       11.897   5.952  -3.556  0.00  0.00    +0.020 C 
ATOM     14  C   LIG    1       11.543   7.392  -3.165  0.00  0.00    +0.020 C 
ATOM     15  C   LIG    1       10.030   7.484  -2.979  0.00  0.00    +0.080 C 
ATOM     16  C   LIG    1        9.543   6.397  -2.057  0.00  0.00    -0.070 A 
ATOM     17  C   LIG    1        8.286   6.548  -1.486  0.00  0.00    +0.010 A 
ENDBRANCH   7   8
ENDBRANCH   2   7
ENDBRANCH   1   4
BRANCH   1  18
ATOM     18  S   LIG    1        1.852   3.407   0.002  0.00  0.00    +0.150 S 
BRANCH  18  19
ATOM     19  C   LIG    1        1.272   1.743  -0.001  0.00  0.00    +0.110 A 
ATOM     20  N   LIG    1        2.015   0.663  -0.014  0.00  0.00    -0.280 NA
ATOM     21  N   LIG    1        1.259  -0.378  -0.012  0.00  0.00    -0.270 NA
ATOM     22  C   LIG    1        0.002  -0.004   0.002  0.00  0.00    +0.260 A 
ATOM     23  O   LIG    1       -0.016   1.347   0.009  0.00  0.00    -0.210 OA
BRANCH  22  24
ATOM     24  C   LIG    1       -1.175  -0.894   0.009  0.00  0.00    -0.130 A 
ATOM     25  C   LIG    1       -2.479  -0.515   0.030  0.00  0.00    +0.310 A 
ATOM     26  N   LIG    1       -3.280  -1.620   0.026  0.00  0.00    -0.580 N 
ATOM     27  H   LIG    1       -4.250  -1.602   0.036  0.00  0.00    +0.430 HD
ATOM     28  C   LIG    1       -2.512  -2.764   0.012  0.00  0.00    +0.090 A 
ATOM     29  C   LIG    1       -2.824  -4.120   0.008  0.00  0.00    +0.000 A 
ATOM     30  C   LIG    1       -1.814  -5.058  -0.006  0.00  0.00    +0.040 A 
ATOM     31  C   LIG    1       -0.484  -4.664  -0.017  0.00  0.00    -0.010 A 
ATOM     32  C   LIG    1       -0.154  -3.327  -0.014  0.00  0.00    +0.070 A 
ATOM     33  C   LIG    1       -1.164  -2.367   0.001  0.00  0.00    -0.070 A 
ENDBRANCH  22  24
ENDBRANCH  18  19
ENDBRANCH   1  18
TORSDOF 6
