REMARK  Name = ZINCqH0000005krH.0
REMARK                            x       y       z     vdW  Elec       q    Type
REMARK                         _______ _______ _______ _____ _____    ______ ____
ROOT
ATOM      1  C   LIG    1       -7.256   0.866   0.438  0.00  0.00    -0.680 A 
ATOM      2  C   LIG    1       -7.254  -0.517   0.428  0.00  0.00    +0.160 A 
ATOM      3  C   LIG    1       -6.064  -1.213   0.301  0.00  0.00    +0.010 A 
ATOM      4  C   LIG    1       -4.873  -0.530   0.176  0.00  0.00    +0.110 A 
ATOM      5  C   LIG    1       -4.867   0.866   0.190  0.00  0.00    -0.160 A 
ATOM      6  C   LIG    1       -6.071   1.562   0.319  0.00  0.00    +0.210 A 
ENDROOT
BRANCH   5   7
ATOM      7  C   LIG    1       -3.593   1.605   0.063  0.00  0.00    +0.560 C 
ATOM      8  N   LIG    1       -2.433   0.931  -0.061  0.00  0.00    -0.670 N 
ATOM      9  H   LIG    1       -2.440  -0.036  -0.142  0.00  0.00    +0.410 HD
ATOM     10  O   LIG    1       -3.592   2.821   0.071  0.00  0.00    -0.500 OA
BRANCH   8  11
ATOM     11  C   LIG    1       -1.219   1.625  -0.073  0.00  0.00    +0.140 A 
ATOM     12  C   LIG    1       -1.073   2.785   0.676  0.00  0.00    +0.010 A 
ATOM     13  C   LIG    1        0.130   3.464   0.667  0.00  0.00    +0.030 A 
ATOM     14  C   LIG    1        1.185   2.994  -0.092  0.00  0.00    +0.000 A 
ATOM     15  C   LIG    1        1.042   1.842  -0.844  0.00  0.00    +0.030 A 
ATOM     16  C   LIG    1       -0.158   1.157  -0.838  0.00  0.00    -0.010 A 
ENDBRANCH   8  11
ENDBRANCH   5   7
BRANCH   1  17
ATOM     17  S   LIG    1       -8.777   1.742   0.601  0.00  0.00    +2.690 S 
ATOM     18  O   LIG    1       -8.448   3.022   1.123  0.00  0.00    -0.940 OA
ATOM     19  O   LIG    1       -9.685   0.853   1.237  0.00  0.00    -0.940 OA
BRANCH  17  21
ATOM     20  C   LIG    1      -10.325   1.057  -1.508  0.00  0.00    +0.320 C 
ATOM     21  N   LIG    1       -9.363   1.996  -0.927  0.00  0.00    -0.950 N 
BRANCH  21  22
ATOM     22  C   LIG    1       -8.939   3.106  -1.661  0.00  0.00    +0.120 A 
ATOM     23  C   LIG    1       -9.179   4.388  -1.186  0.00  0.00    +0.030 A 
ATOM     24  C   LIG    1       -8.755   5.483  -1.913  0.00  0.00    +0.020 A 
ATOM     25  C   LIG    1       -8.100   5.304  -3.118  0.00  0.00    +0.020 A 
ATOM     26  C   LIG    1       -7.864   4.028  -3.597  0.00  0.00    +0.020 A 
ATOM     27  C   LIG    1       -8.281   2.929  -2.872  0.00  0.00    +0.010 A 
ENDBRANCH  21  22
ENDBRANCH  17  21
ENDBRANCH   1  17
TORSDOF 5
