REMARK  Name = ZINCrg000000ogqe.0
REMARK                            x       y       z     vdW  Elec       q    Type
REMARK                         _______ _______ _______ _____ _____    ______ ____
ROOT
ATOM      1  C   LIG    1       -0.240  -0.026   7.127  0.00  0.00    +0.250 C 
ATOM      2  C   LIG    1       -1.363  -0.770   7.872  0.00  0.00    +0.300 C 
ATOM      3  N   LIG    1       -0.621  -0.440   9.108  0.00  0.00    -1.030 NA
ATOM      4  C   LIG    1        0.013   0.719   8.450  0.00  0.00    +0.310 C 
ENDROOT
BRANCH   1   6
ATOM      5  C   LIG    1       -0.547   0.469   4.761  0.00  0.00    +0.510 C 
ATOM      6  N   LIG    1       -0.721   0.838   6.046  0.00  0.00    -0.720 N 
ATOM      7  H   LIG    1       -1.163   1.675   6.255  0.00  0.00    +0.400 HD
ATOM      8  O   LIG    1       -0.077  -0.618   4.500  0.00  0.00    -0.510 OA
BRANCH   5   9
ATOM      9  C   LIG    1       -0.939   1.407   3.649  0.00  0.00    +0.170 C 
BRANCH   9  10
ATOM     10  C   LIG    1       -0.032   2.639   3.677  0.00  0.00    -0.020 C 
ATOM     11  C   LIG    1       -0.477   3.625   2.596  0.00  0.00    +0.020 C 
ATOM     12  C   LIG    1        1.414   2.214   3.416  0.00  0.00    +0.040 C 
ENDBRANCH   9  10
BRANCH   9  13
ATOM     13  O   LIG    1       -0.798   0.741   2.392  0.00  0.00    -0.350 OA
BRANCH  13  15
ATOM     14  C   LIG    1       -1.728   0.012   0.284  0.00  0.00    +0.050 C 
ATOM     15  C   LIG    1       -2.017   0.629   1.654  0.00  0.00    +0.150 C 
ENDBRANCH  13  15
ENDBRANCH   9  13
ENDBRANCH   5   9
ENDBRANCH   1   6
BRANCH   3  16
ATOM     16  S   LIG    1       -0.535  -1.106  10.621  0.00  0.00    +2.720 S 
ATOM     17  O   LIG    1        0.714  -0.703  11.166  0.00  0.00    -0.940 OA
ATOM     18  O   LIG    1       -0.920  -2.467  10.483  0.00  0.00    -0.940 OA
BRANCH  16  19
ATOM     19  C   LIG    1       -1.778  -0.334  11.603  0.00  0.00    -0.680 A 
ATOM     20  C   LIG    1       -1.481   0.810  12.318  0.00  0.00    +0.140 A 
ATOM     21  C   LIG    1       -2.455   1.421  13.086  0.00  0.00    +0.020 A 
ATOM     22  C   LIG    1       -3.730   0.881  13.148  0.00  0.00    +0.110 A 
ATOM     23  O   LIG    1       -4.676   1.488  13.915  0.00  0.00    -0.300 OA
ATOM     24  C   LIG    1       -6.039   1.134  13.656  0.00  0.00    +0.230 C 
ATOM     25  C   LIG    1       -6.126  -0.394  13.544  0.00  0.00    +0.230 C 
ATOM     26  O   LIG    1       -5.276  -0.815  12.472  0.00  0.00    -0.300 OA
ATOM     27  C   LIG    1       -4.029  -0.272  12.431  0.00  0.00    +0.030 A 
ATOM     28  C   LIG    1       -3.048  -0.877  11.659  0.00  0.00    +0.140 A 
ENDBRANCH  16  19
ENDBRANCH   3  16
TORSDOF 7
