REMARK  Name = ZINCqH00000511XV.0
REMARK                            x       y       z     vdW  Elec       q    Type
REMARK                         _______ _______ _______ _____ _____    ______ ____
ROOT
ATOM      1  C   LIG    1       -1.207  -3.409   4.114  0.00  0.00    +0.560 C 
ATOM      2  N   LIG    1       -1.425  -2.749   2.959  0.00  0.00    -0.610 N 
ATOM      3  C   LIG    1       -2.243  -3.345   1.892  0.00  0.00    +0.280 C 
ATOM      4  C   LIG    1       -1.456  -3.276   0.579  0.00  0.00    +0.170 C 
ATOM      5  N   LIG    1       -1.034  -1.890   0.337  0.00  0.00    -0.530 NA
ATOM      6  C   LIG    1       -0.119  -1.421   1.386  0.00  0.00    +0.170 C 
ATOM      7  C   LIG    1       -0.851  -1.414   2.732  0.00  0.00    +0.300 C 
ATOM      8  O   LIG    1       -0.450  -2.946   4.944  0.00  0.00    -0.530 OA
ENDROOT
BRANCH   1  13
ATOM      9  C   LIG    1       -1.905  -6.895   5.355  0.00  0.00    -0.030 A 
ATOM     10  C   LIG    1       -3.187  -7.107   4.843  0.00  0.00    +0.090 A 
ATOM     11  C   LIG    1       -3.810  -6.122   4.103  0.00  0.00    +0.020 A 
ATOM     12  C   LIG    1       -3.174  -4.919   3.869  0.00  0.00    +0.080 A 
ATOM     13  C   LIG    1       -1.889  -4.696   4.370  0.00  0.00    -0.130 A 
ATOM     14  C   LIG    1       -1.255  -5.685   5.118  0.00  0.00    +0.120 A 
BRANCH   9  16
ATOM     15  N   LIG    1       -0.749  -8.729   6.732  0.00  0.00    -0.400 NA
ATOM     16  C   LIG    1       -1.260  -7.918   6.123  0.00  0.00    +0.250 C 
ENDBRANCH   9  16
ENDBRANCH   1  13
BRANCH   5  17
ATOM     17  C   LIG    1       -0.427  -1.749  -0.993  0.00  0.00    +0.250 C 
BRANCH  17  18
ATOM     18  C   LIG    1       -0.232  -0.288  -1.304  0.00  0.00    -0.080 A 
ATOM     19  C   LIG    1       -1.060   0.390  -2.073  0.00  0.00    +0.000 A 
ATOM     20  S   LIG    1       -0.557   2.061  -2.239  0.00  0.00    +0.090 S 
ATOM     21  C   LIG    1        0.847   1.811  -1.209  0.00  0.00    -0.140 A 
ATOM     22  C   LIG    1        1.845   2.701  -0.801  0.00  0.00    +0.050 A 
ATOM     23  C   LIG    1        2.861   2.271   0.020  0.00  0.00    +0.030 A 
ATOM     24  C   LIG    1        2.901   0.951   0.448  0.00  0.00    +0.020 A 
ATOM     25  C   LIG    1        1.939   0.068   0.063  0.00  0.00    +0.040 A 
ATOM     26  C   LIG    1        0.887   0.480  -0.784  0.00  0.00    -0.070 A 
ENDBRANCH  17  18
ENDBRANCH   5  17
TORSDOF 4
