REMARK  Name = ZINCpk00000y6xfa.0
REMARK                            x       y       z     vdW  Elec       q    Type
REMARK                         _______ _______ _______ _____ _____    ______ ____
ROOT
ATOM      1  C   LIG    1       -0.699   1.737   1.281  0.00  0.00    +0.260 C 
ATOM      2  C   LIG    1        0.017   1.167   0.054  0.00  0.00    +0.300 C 
ATOM      3  N   LIG    1       -0.707   1.499  -1.165  0.00  0.00    -0.710 N 
ATOM      4  H   LIG    1       -0.553   0.945  -1.946  0.00  0.00    +0.410 HD
ATOM      5  C   LIG    1       -1.568   2.511  -1.283  0.00  0.00    +0.510 C 
ATOM      6  C   LIG    1       -1.968   3.386  -0.127  0.00  0.00    +0.350 C 
ATOM      7  O   LIG    1       -2.050   2.737  -2.373  0.00  0.00    -0.540 OA
ATOM      8  N   LIG    1       -1.054   3.138   0.997  0.00  0.00    -0.610 N 
ATOM      9  C   LIG    1       -0.560   4.150   1.737  0.00  0.00    +0.540 C 
ATOM     10  O   LIG    1        0.102   3.913   2.725  0.00  0.00    -0.480 OA
ENDROOT
BRANCH   9  11
ATOM     11  C   LIG    1       -0.833   5.577   1.338  0.00  0.00    -0.060 C 
ATOM     12  C   LIG    1       -1.750   6.402   2.244  0.00  0.00    +0.080 C 
ATOM     13  C   LIG    1       -0.245   6.682   2.219  0.00  0.00    +0.050 C 
BRANCH  13  14
ATOM     14  C   LIG    1        0.561   6.259   3.420  0.00  0.00    -0.060 A 
ATOM     15  C   LIG    1       -0.025   5.493   4.410  0.00  0.00    +0.060 A 
ATOM     16  C   LIG    1        0.717   5.101   5.510  0.00  0.00    -0.010 A 
ATOM     17  C   LIG    1        2.040   5.484   5.623  0.00  0.00    -0.070 A 
ATOM     18  C   LIG    1        2.624   6.255   4.635  0.00  0.00    +0.000 A 
ATOM     19  C   LIG    1        1.884   6.643   3.534  0.00  0.00    +0.020 A 
BRANCH  17  20
ATOM     20  C   LIG    1        2.846   5.062   6.825  0.00  0.00    +0.010 C 
ATOM     21  C   LIG    1        2.897   3.535   6.894  0.00  0.00    +0.030 C 
ATOM     22  C   LIG    1        2.192   5.609   8.095  0.00  0.00    +0.040 C 
ENDBRANCH  17  20
ENDBRANCH  13  14
ENDBRANCH   9  11
BRANCH   1  23
ATOM     23  C   LIG    1        0.216   1.677   2.477  0.00  0.00    +0.490 C 
ATOM     24  O   LIG    1        1.400   1.876   2.342  0.00  0.00    -0.490 OA
BRANCH  23  26
ATOM     25  C   LIG    1        0.656   1.362   4.798  0.00  0.00    +0.270 C 
ATOM     26  O   LIG    1       -0.284   1.403   3.692  0.00  0.00    -0.350 OA
ENDBRANCH  23  26
ENDBRANCH   1  23
TORSDOF 5
