REMARK  Name = ZINCrD00000l9eSJ.0
REMARK                            x       y       z     vdW  Elec       q    Type
REMARK                         _______ _______ _______ _____ _____    ______ ____
ROOT
ATOM      1  C   LIG    1       -1.369   4.088  -2.102  0.00  0.00    +0.590 C 
ATOM      2  N   LIG    1       -1.961   3.241  -1.236  0.00  0.00    -0.610 N 
ATOM      3  C   LIG    1       -2.536   1.967  -1.697  0.00  0.00    +0.250 C 
ATOM      4  C   LIG    1       -1.996   0.842  -0.807  0.00  0.00    +0.220 C 
ATOM      5  O   LIG    1       -2.216   1.179   0.565  0.00  0.00    -0.370 OA
ATOM      6  C   LIG    1       -1.533   2.359   0.995  0.00  0.00    +0.230 C 
ATOM      7  C   LIG    1       -2.050   3.562   0.197  0.00  0.00    +0.290 C 
ATOM      8  O   LIG    1       -1.020   5.193  -1.729  0.00  0.00    -0.480 OA
ENDROOT
BRANCH   7   9
ATOM      9  C   LIG    1       -1.205   4.773   0.499  0.00  0.00    -0.210 A 
ATOM     10  C   LIG    1       -1.651   5.950   0.996  0.00  0.00    +0.110 A 
ATOM     11  N   LIG    1       -0.587   6.770   1.125  0.00  0.00    -0.380 N 
ATOM     12  N   LIG    1        0.548   6.077   0.686  0.00  0.00    -0.280 NA
ATOM     13  C   LIG    1       -3.078   6.284   1.346  0.00  0.00    +0.140 C 
ATOM     14  C   LIG    1        0.176   4.880   0.311  0.00  0.00    +0.130 A 
ATOM     15  C   LIG    1        1.081   3.803  -0.231  0.00  0.00    +0.150 C 
BRANCH  11  16
ATOM     16  C   LIG    1       -0.615   8.145   1.631  0.00  0.00    +0.370 C 
BRANCH  16  17
ATOM     17  C   LIG    1       -0.845   9.112   0.468  0.00  0.00    +0.440 C 
ATOM     18  F   LIG    1        0.192   8.978  -0.462  0.00  0.00    -0.170 F 
ATOM     19  F   LIG    1       -0.872  10.424   0.951  0.00  0.00    -0.180 F 
ATOM     20  F   LIG    1       -2.066   8.817  -0.149  0.00  0.00    -0.180 F 
ENDBRANCH  16  17
ENDBRANCH  11  16
ENDBRANCH   7   9
BRANCH   1  24
ATOM     21  C   LIG    1       -0.983   3.850  -5.771  0.00  0.00    +0.110 A 
ATOM     22  C   LIG    1       -0.682   2.549  -5.654  0.00  0.00    -0.180 A 
ATOM     23  S   LIG    1       -0.712   2.060  -4.019  0.00  0.00    +0.230 S 
ATOM     24  C   LIG    1       -1.147   3.679  -3.491  0.00  0.00    -0.240 A 
ATOM     25  C   LIG    1       -1.250   4.495  -4.584  0.00  0.00    +0.090 A 
BRANCH  21  27
ATOM     26  C   LIG    1       -0.736   3.701  -8.133  0.00  0.00    +0.250 C 
ATOM     27  O   LIG    1       -1.027   4.485  -6.975  0.00  0.00    -0.300 OA
ENDBRANCH  21  27
ENDBRANCH   1  24
TORSDOF 5
