REMARK  Name = ZINCrg00001Jdv0k.0
REMARK                            x       y       z     vdW  Elec       q    Type
REMARK                         _______ _______ _______ _____ _____    ______ ____
ROOT
ATOM      1  N   LIG    1        1.522   0.580   1.023  0.00  0.00    -0.990 NA
ATOM      2  C   LIG    1        0.467  -0.367   1.425  0.00  0.00    +0.280 C 
ATOM      3  C   LIG    1       -0.744  -0.017   0.525  0.00  0.00    +0.040 C 
ATOM      4  C   LIG    1       -0.635   1.529   0.443  0.00  0.00    +0.070 C 
ATOM      5  C   LIG    1        0.889   1.767   0.429  0.00  0.00    +0.290 C 
ENDROOT
BRANCH   1   6
ATOM      6  S   LIG    1        3.151   0.346   1.208  0.00  0.00    +2.710 S 
ATOM      7  O   LIG    1        3.304  -0.593   2.264  0.00  0.00    -0.950 OA
ATOM      8  O   LIG    1        3.743   1.637   1.224  0.00  0.00    -0.930 OA
BRANCH   6  13
ATOM      9  C   LIG    1        5.143  -2.380  -3.793  0.00  0.00    +0.090 C 
ATOM     10  C   LIG    1        4.646  -1.699  -2.544  0.00  0.00    -0.030 A 
ATOM     11  C   LIG    1        4.628  -0.319  -2.469  0.00  0.00    -0.010 A 
ATOM     12  C   LIG    1        4.171   0.305  -1.323  0.00  0.00    +0.120 A 
ATOM     13  C   LIG    1        3.733  -0.450  -0.252  0.00  0.00    -0.690 A 
ATOM     14  C   LIG    1        3.756  -1.831  -0.325  0.00  0.00    +0.120 A 
ATOM     15  C   LIG    1        4.209  -2.455  -1.472  0.00  0.00    -0.010 A 
ENDBRANCH   6  13
ENDBRANCH   1   6
BRANCH   5  16
ATOM     16  C   LIG    1        1.224   2.989   1.246  0.00  0.00    +0.440 C 
ATOM     17  O   LIG    1        1.933   2.889   2.220  0.00  0.00    -0.480 OA
BRANCH  16  18
ATOM     18  O   LIG    1        0.736   4.188   0.892  0.00  0.00    -0.330 OA
BRANCH  18  19
ATOM     19  C   LIG    1        1.100   5.320   1.724  0.00  0.00    +0.220 C 
BRANCH  19  20
ATOM     20  C   LIG    1        0.464   6.572   1.176  0.00  0.00    +0.430 C 
ATOM     21  O   LIG    1       -0.229   6.515   0.180  0.00  0.00    -0.460 OA
BRANCH  20  22
ATOM     22  C   LIG    1        0.674   7.814   1.822  0.00  0.00    -0.320 C 
ATOM     23  C   LIG    1        0.181   8.978   1.260  0.00  0.00    +0.350 C 
ATOM     24  C   LIG    1       -0.687   8.912   0.030  0.00  0.00    +0.160 C 
BRANCH  23  25
ATOM     25  N   LIG    1        0.477  10.172   1.813  0.00  0.00    -0.800 N 
ATOM     26  H   LIG    1        0.132  10.988   1.419  0.00  0.00    +0.420 HD
ATOM     27  H   LIG    1        1.036  10.215   2.605  0.00  0.00    +0.410 HD
ENDBRANCH  23  25
BRANCH  22  28
ATOM     28  C   LIG    1        1.397   7.865   3.057  0.00  0.00    +0.250 C 
ATOM     29  N   LIG    1        1.970   7.906   4.037  0.00  0.00    -0.430 NA
ENDBRANCH  22  28
ENDBRANCH  20  22
ENDBRANCH  19  20
ENDBRANCH  18  19
ENDBRANCH  16  18
ENDBRANCH   5  16
TORSDOF 9
