REMARK  Name = ZINCrD000000AEUu.0
REMARK                            x       y       z     vdW  Elec       q    Type
REMARK                         _______ _______ _______ _____ _____    ______ ____
ROOT
ATOM      1  O   LIG    1        1.552  -1.519  -2.364  0.00  0.00    -0.500 OA
ATOM      2  C   LIG    1        1.793  -2.277  -1.448  0.00  0.00    +0.510 C 
ATOM      3  N   LIG    1        2.182  -3.542  -1.705  0.00  0.00    -0.720 N 
ATOM      4  H   LIG    1        2.375  -4.148  -0.973  0.00  0.00    +0.410 HD
ENDROOT
BRANCH   3   5
ATOM      5  C   LIG    1        2.314  -4.001  -3.090  0.00  0.00    +0.390 C 
BRANCH   5   6
ATOM      6  C   LIG    1        2.147  -5.498  -3.141  0.00  0.00    -0.100 A 
ATOM      7  C   LIG    1        2.711  -6.290  -2.158  0.00  0.00    +0.010 A 
ATOM      8  C   LIG    1        2.555  -7.662  -2.203  0.00  0.00    +0.020 A 
ATOM      9  C   LIG    1        1.843  -8.244  -3.235  0.00  0.00    +0.020 A 
ATOM     10  C   LIG    1        1.284  -7.452  -4.221  0.00  0.00    +0.020 A 
ATOM     11  C   LIG    1        1.437  -6.079  -4.174  0.00  0.00    +0.030 A 
ENDBRANCH   5   6
BRANCH   5  12
ATOM     12  C   LIG    1        3.676  -3.628  -3.615  0.00  0.00    -0.190 A 
ATOM     13  C   LIG    1        3.929  -3.177  -4.845  0.00  0.00    +0.020 A 
ATOM     14  C   LIG    1        5.261  -2.899  -5.101  0.00  0.00    +0.010 A 
ATOM     15  C   LIG    1        6.089  -3.125  -4.080  0.00  0.00    -0.040 A 
ATOM     16  S   LIG    1        5.175  -3.715  -2.699  0.00  0.00    +0.110 S 
ENDBRANCH   5  12
ENDBRANCH   3   5
BRANCH   2  17
ATOM     17  C   LIG    1        1.658  -1.805  -0.024  0.00  0.00    +0.410 C 
BRANCH  17  18
ATOM     18  N   LIG    1        1.225  -0.405  -0.012  0.00  0.00    -0.130 N 
ATOM     19  N   LIG    1        0.002  -0.004   0.002  0.00  0.00    -0.040 NA
ATOM     20  N   LIG    1       -0.015   1.286   0.009  0.00  0.00    -0.270 NA
ATOM     21  C   LIG    1        1.259   1.701  -0.001  0.00  0.00    +0.220 A 
ATOM     22  N   LIG    1        2.009   0.617  -0.014  0.00  0.00    -0.290 NA
BRANCH  21  23
ATOM     23  C   LIG    1        1.733   3.108   0.002  0.00  0.00    -0.020 A 
ATOM     24  C   LIG    1        3.098   3.385  -0.004  0.00  0.00    +0.050 A 
ATOM     25  C   LIG    1        3.534   4.695  -0.007  0.00  0.00    +0.010 A 
ATOM     26  C   LIG    1        2.618   5.731   0.007  0.00  0.00    +0.030 A 
ATOM     27  C   LIG    1        1.261   5.461   0.019  0.00  0.00    +0.010 A 
ATOM     28  C   LIG    1        0.815   4.155   0.016  0.00  0.00    +0.060 A 
ENDBRANCH  21  23
ENDBRANCH  17  18
ENDBRANCH   2  17
TORSDOF 6
