REMARK  Name = ZINCvU0000000Alr.0
REMARK                            x       y       z     vdW  Elec       q    Type
REMARK                         _______ _______ _______ _____ _____    ______ ____
ROOT
ATOM      1  C   LIG    1        3.292   3.498  -1.170  0.00  0.00    +0.190 A 
ATOM      2  N   LIG    1        3.712   4.253  -2.141  0.00  0.00    -0.370 NA
ATOM      3  O   LIG    1        4.367   3.600  -2.927  0.00  0.00    +0.080 OA
ATOM      4  C   LIG    1        4.429   2.329  -2.519  0.00  0.00    +0.180 A 
ATOM      5  N   LIG    1        3.752   2.255  -1.398  0.00  0.00    -0.470 NA
ENDROOT
BRANCH   1   6
ATOM      6  C   LIG    1        2.451   3.937   0.001  0.00  0.00    +0.080 C 
ATOM      7  C   LIG    1        3.210   3.676   1.306  0.00  0.00    +0.030 C 
ATOM      8  C   LIG    1        2.379   4.196   2.482  0.00  0.00    +0.220 C 
ATOM      9  O   LIG    1        2.113   5.588   2.297  0.00  0.00    -0.380 OA
ATOM     10  C   LIG    1        1.365   5.887   1.117  0.00  0.00    +0.220 C 
ATOM     11  C   LIG    1        2.154   5.435  -0.114  0.00  0.00    +0.020 C 
BRANCH   6  15
ATOM     12  C   LIG    1       -1.221   1.754   0.024  0.00  0.00    +0.010 A 
ATOM     13  C   LIG    1       -0.973   2.679  -0.973  0.00  0.00    +0.000 A 
ATOM     14  C   LIG    1        0.215   3.387  -0.979  0.00  0.00    +0.010 A 
ATOM     15  C   LIG    1        1.156   3.165   0.008  0.00  0.00    -0.070 A 
ATOM     16  C   LIG    1        0.911   2.237   1.002  0.00  0.00    +0.020 A 
ATOM     17  C   LIG    1       -0.277   1.530   1.009  0.00  0.00    +0.010 A 
ENDBRANCH   6  15
ENDBRANCH   1   6
BRANCH   4  18
ATOM     18  C   LIG    1        5.145   1.198  -3.212  0.00  0.00    +0.210 C 
BRANCH  18  19
ATOM     19  C   LIG    1        4.192   0.517  -4.195  0.00  0.00    +0.050 C 
BRANCH  19  20
ATOM     20  C   LIG    1        4.919  -0.631  -4.898  0.00  0.00    +0.200 C 
BRANCH  20  21
ATOM     21  O   LIG    1        4.028  -1.267  -5.817  0.00  0.00    -0.310 OA
BRANCH  21  22
ATOM     22  C   LIG    1        4.520  -2.314  -6.528  0.00  0.00    +0.150 A 
ATOM     23  C   LIG    1        5.813  -2.718  -6.352  0.00  0.00    -0.090 A 
ATOM     24  C   LIG    1        6.333  -3.790  -7.073  0.00  0.00    +0.050 A 
ATOM     25  C   LIG    1        5.569  -4.466  -7.974  0.00  0.00    -0.020 A 
ATOM     26  C   LIG    1        4.234  -4.081  -8.185  0.00  0.00    -0.020 A 
ATOM     27  C   LIG    1        3.418  -4.756  -9.109  0.00  0.00    +0.010 A 
ATOM     28  C   LIG    1        2.129  -4.355  -9.288  0.00  0.00    +0.030 A 
ATOM     29  C   LIG    1        1.605  -3.283  -8.569  0.00  0.00    -0.010 A 
ATOM     30  C   LIG    1        2.367  -2.606  -7.666  0.00  0.00    +0.050 A 
ATOM     31  C   LIG    1        3.699  -2.995  -7.450  0.00  0.00    -0.070 A 
ENDBRANCH  21  22
ENDBRANCH  20  21
ENDBRANCH  19  20
ENDBRANCH  18  19
ENDBRANCH   4  18
TORSDOF 7
