REMARK  Name = ZINCnE000001RkKJ.0
REMARK                            x       y       z     vdW  Elec       q    Type
REMARK                         _______ _______ _______ _____ _____    ______ ____
ROOT
ATOM      1  C   LIG    1        6.973  -1.545  -0.593  0.00  0.00    +0.310 C 
ATOM      2  N   LIG    1        5.946  -1.940  -1.561  0.00  0.00    -0.450 N 
ATOM      3  C   LIG    1        6.157  -2.325  -2.857  0.00  0.00    -0.040 A 
ATOM      4  C   LIG    1        4.948  -2.599  -3.384  0.00  0.00    +0.140 A 
ATOM      5  N   LIG    1        4.025  -2.391  -2.433  0.00  0.00    -0.490 NA
ATOM      6  C   LIG    1        4.615  -1.992  -1.340  0.00  0.00    +0.250 A 
ENDROOT
BRANCH   3   7
ATOM      7  C   LIG    1        7.486  -2.423  -3.560  0.00  0.00    +0.160 C 
BRANCH   7   8
ATOM      8  C   LIG    1        7.749  -1.147  -4.318  0.00  0.00    -0.070 A 
ATOM      9  C   LIG    1        7.331  -1.023  -5.630  0.00  0.00    +0.010 A 
ATOM     10  C   LIG    1        7.568   0.149  -6.324  0.00  0.00    +0.000 A 
ATOM     11  C   LIG    1        8.231   1.194  -5.708  0.00  0.00    -0.010 A 
ATOM     12  C   LIG    1        8.653   1.069  -4.398  0.00  0.00    +0.000 A 
ATOM     13  C   LIG    1        8.412  -0.102  -3.703  0.00  0.00    +0.000 A 
ENDBRANCH   7   8
ENDBRANCH   3   7
BRANCH   6  14
ATOM     14  C   LIG    1        3.925  -1.651  -0.044  0.00  0.00    +0.300 C 
BRANCH  14  15
ATOM     15  N   LIG    1        3.583  -0.226  -0.033  0.00  0.00    -0.630 NA
ATOM     16  C   LIG    1        2.326   0.145  -0.019  0.00  0.00    +0.350 A 
ATOM     17  N   LIG    1        1.216  -0.653  -0.013  0.00  0.00    -0.490 NA
ATOM     18  N   LIG    1        0.002  -0.004   0.002  0.00  0.00    -0.210 NA
ATOM     19  C   LIG    1       -0.015   1.284   0.009  0.00  0.00    -0.140 A 
ATOM     20  S   LIG    1        1.681   1.798  -0.004  0.00  0.00    -0.110 S 
BRANCH  19  21
ATOM     21  C   LIG    1       -1.232   2.173   0.020  0.00  0.00    +0.510 C 
ATOM     22  F   LIG    1       -0.930   3.367   0.684  0.00  0.00    -0.200 F 
ATOM     23  F   LIG    1       -2.279   1.523   0.682  0.00  0.00    -0.200 F 
ENDBRANCH  19  21
ENDBRANCH  14  15
ENDBRANCH   6  14
TORSDOF 5
