REMARK  Name = ZINCqH0000005WF2.0
REMARK                            x       y       z     vdW  Elec       q    Type
REMARK                         _______ _______ _______ _____ _____    ______ ____
ROOT
ATOM      1  C   LIG    1        4.705   1.477  -0.036  0.00  0.00    +0.370 A 
ATOM      2  N   LIG    1        3.556   2.107  -0.021  0.00  0.00    -0.530 NA
ATOM      3  C   LIG    1        2.381   1.435  -0.013  0.00  0.00    +0.160 A 
ATOM      4  C   LIG    1        1.155   2.106   0.002  0.00  0.00    +0.030 A 
ATOM      5  C   LIG    1       -0.017   1.385   0.010  0.00  0.00    +0.070 A 
ATOM      6  C   LIG    1        0.002  -0.004   0.002  0.00  0.00    -0.010 A 
ATOM      7  C   LIG    1        1.197  -0.689  -0.013  0.00  0.00    +0.100 A 
ATOM      8  C   LIG    1        2.396   0.021  -0.021  0.00  0.00    -0.200 A 
ATOM      9  C   LIG    1        3.699  -0.658  -0.037  0.00  0.00    +0.560 A 
ATOM     10  O   LIG    1        3.777  -1.873  -0.044  0.00  0.00    -0.500 OA
ATOM     11  N   LIG    1        4.809   0.116  -0.044  0.00  0.00    -0.530 N 
ENDROOT
BRANCH   1  12
ATOM     12  S   LIG    1        6.186   2.432  -0.045  0.00  0.00    +0.020 S 
BRANCH  12  13
ATOM     13  C   LIG    1        5.484   4.101  -0.029  0.00  0.00    +0.230 C 
BRANCH  13  17
ATOM     14  C   LIG    1        8.140   6.508   0.670  0.00  0.00    -0.050 A 
ATOM     15  C   LIG    1        8.159   6.544  -0.695  0.00  0.00    +0.070 A 
ATOM     16  C   LIG    1        7.171   5.650  -1.135  0.00  0.00    -0.020 A 
ATOM     17  C   LIG    1        6.599   5.114  -0.034  0.00  0.00    +0.030 A 
ATOM     18  O   LIG    1        7.183   5.637   1.052  0.00  0.00    -0.140 OA
BRANCH  14  19
ATOM     19  C   LIG    1        9.005   7.282   1.564  0.00  0.00    +0.550 C 
ATOM     20  O   LIG    1        9.833   8.043   1.100  0.00  0.00    -0.480 OA
BRANCH  19  22
ATOM     21  C   LIG    1        9.773   7.951   3.725  0.00  0.00    +0.290 C 
ATOM     22  O   LIG    1        8.883   7.152   2.901  0.00  0.00    -0.350 OA
ENDBRANCH  19  22
ENDBRANCH  14  19
ENDBRANCH  13  17
ENDBRANCH  12  13
ENDBRANCH   1  12
BRANCH  11  23
ATOM     23  C   LIG    1        6.133  -0.512  -0.060  0.00  0.00    +0.300 C 
BRANCH  23  24
ATOM     24  C   LIG    1        6.607  -0.739   1.376  0.00  0.00    -0.030 C 
ATOM     25  C   LIG    1        8.039  -1.279   1.361  0.00  0.00    +0.040 C 
ATOM     26  C   LIG    1        5.688  -1.750   2.064  0.00  0.00    +0.030 C 
ENDBRANCH  23  24
ENDBRANCH  11  23
TORSDOF 7
