REMARK  Name = ZINCrH000004loxD.0
REMARK                            x       y       z     vdW  Elec       q    Type
REMARK                         _______ _______ _______ _____ _____    ______ ____
ROOT
ATOM      1  C   LIG    1        3.776  -0.694   0.335  0.00  0.00    +0.570 C 
ATOM      2  N   LIG    1        4.923   0.005   0.233  0.00  0.00    -0.650 N 
ATOM      3  H   LIG    1        4.909   0.973   0.296  0.00  0.00    +0.410 HD
ATOM      4  O   LIG    1        3.795  -1.908   0.255  0.00  0.00    -0.470 OA
ENDROOT
BRANCH   1  10
ATOM      5  C   LIG    1        1.302  -0.712   0.649  0.00  0.00    +0.200 A 
ATOM      6  C   LIG    1        0.106  -0.038   0.845  0.00  0.00    -0.080 A 
ATOM      7  C   LIG    1        0.095   1.340   0.934  0.00  0.00    +0.090 A 
ATOM      8  C   LIG    1        1.274   2.059   0.830  0.00  0.00    -0.040 A 
ATOM      9  C   LIG    1        2.472   1.405   0.635  0.00  0.00    +0.080 A 
ATOM     10  C   LIG    1        2.498   0.012   0.543  0.00  0.00    -0.180 A 
BRANCH   5  11
ATOM     11  O   LIG    1        1.315  -2.066   0.560  0.00  0.00    -0.270 OA
BRANCH  11  12
ATOM     12  C   LIG    1        0.058  -2.736   0.678  0.00  0.00    +0.200 C 
BRANCH  12  13
ATOM     13  C   LIG    1        0.271  -4.245   0.553  0.00  0.00    +0.190 C 
BRANCH  13  15
ATOM     14  C   LIG    1        1.308  -6.114   1.637  0.00  0.00    +0.200 C 
ATOM     15  O   LIG    1        1.050  -4.709   1.657  0.00  0.00    -0.380 OA
ENDBRANCH  13  15
ENDBRANCH  12  13
ENDBRANCH  11  12
ENDBRANCH   5  11
ENDBRANCH   1  10
BRANCH   2  16
ATOM     16  C   LIG    1        6.131  -0.661   0.036  0.00  0.00    +0.310 A 
ATOM     17  C   LIG    1        6.318  -2.010   0.047  0.00  0.00    -0.090 A 
ATOM     18  C   LIG    1        7.673  -2.257  -0.191  0.00  0.00    +0.090 A 
ATOM     19  N   LIG    1        8.284  -1.110  -0.340  0.00  0.00    -0.280 NA
ATOM     20  C   LIG    1        8.320  -3.616  -0.264  0.00  0.00    +0.160 C 
ATOM     21  N   LIG    1        7.339  -0.084  -0.208  0.00  0.00    -0.340 N 
BRANCH  21  22
ATOM     22  C   LIG    1        7.593   1.290  -0.306  0.00  0.00    +0.140 A 
ATOM     23  C   LIG    1        6.783   2.093  -1.098  0.00  0.00    +0.000 A 
ATOM     24  C   LIG    1        7.036   3.447  -1.193  0.00  0.00    +0.020 A 
ATOM     25  C   LIG    1        8.095   4.005  -0.501  0.00  0.00    +0.020 A 
ATOM     26  C   LIG    1        8.904   3.208   0.288  0.00  0.00    +0.030 A 
ATOM     27  C   LIG    1        8.653   1.854   0.392  0.00  0.00    -0.070 A 
ATOM     28  C   LIG    1        9.531   0.988   1.258  0.00  0.00    +0.110 C 
ENDBRANCH  21  22
ENDBRANCH   2  16
TORSDOF 7
