REMARK  Name = ZINCqH0000002xCq.0
REMARK                            x       y       z     vdW  Elec       q    Type
REMARK                         _______ _______ _______ _____ _____    ______ ____
ROOT
ATOM      1  N   LIG    1       -1.149  -1.165  -3.739  0.00  0.00    -0.670 N 
ATOM      2  H   LIG    1       -1.175  -0.535  -4.476  0.00  0.00    +0.410 HD
ATOM      3  C   LIG    1       -1.507  -0.771  -2.501  0.00  0.00    +0.600 C 
ATOM      4  O   LIG    1       -1.567  -1.583  -1.598  0.00  0.00    -0.520 OA
ENDROOT
BRANCH   1   9
ATOM      5  C   LIG    1       -0.181  -6.409  -6.142  0.00  0.00    +0.290 A 
ATOM      6  N   LIG    1       -0.743  -5.272  -6.435  0.00  0.00    -0.490 NA
ATOM      7  C   LIG    1       -0.617  -4.417  -5.388  0.00  0.00    +0.070 A 
ATOM      8  C   LIG    1       -1.026  -3.100  -5.167  0.00  0.00    +0.030 A 
ATOM      9  C   LIG    1       -0.740  -2.486  -3.962  0.00  0.00    +0.150 A 
ATOM     10  C   LIG    1       -0.043  -3.172  -2.970  0.00  0.00    +0.040 A 
ATOM     11  C   LIG    1        0.361  -4.474  -3.175  0.00  0.00    +0.040 A 
ATOM     12  C   LIG    1        0.081  -5.104  -4.380  0.00  0.00    +0.030 A 
ATOM     13  N   LIG    1        0.343  -6.363  -4.888  0.00  0.00    -0.600 N 
ATOM     14  H   LIG    1        0.812  -7.080  -4.434  0.00  0.00    +0.420 HD
BRANCH   5  15
ATOM     15  C   LIG    1       -0.121  -7.604  -7.059  0.00  0.00    +0.140 C 
BRANCH  15  16
ATOM     16  C   LIG    1       -1.537  -7.975  -7.506  0.00  0.00    +0.030 C 
BRANCH  16  18
ATOM     17  C   LIG    1       -2.891  -9.560  -8.884  0.00  0.00    +0.020 C 
ATOM     18  C   LIG    1       -1.476  -9.188  -8.437  0.00  0.00    +0.000 C 
ENDBRANCH  16  18
ENDBRANCH  15  16
ENDBRANCH   5  15
ENDBRANCH   1   9
BRANCH   3  19
ATOM     19  C   LIG    1       -1.825   0.645  -2.242  0.00  0.00    -0.290 A 
ATOM     20  C   LIG    1       -1.800   1.673  -3.163  0.00  0.00    +0.300 A 
ATOM     21  N   LIG    1       -2.153   2.797  -2.521  0.00  0.00    -0.460 N 
ATOM     22  H   LIG    1       -2.222   3.679  -2.918  0.00  0.00    +0.450 HD
ATOM     23  N   LIG    1       -2.410   2.482  -1.182  0.00  0.00    -0.270 NA
ATOM     24  C   LIG    1       -2.213   1.204  -1.004  0.00  0.00    +0.140 A 
BRANCH  24  25
ATOM     25  C   LIG    1       -2.377   0.456   0.294  0.00  0.00    +0.270 C 
ATOM     26  C   LIG    1       -1.193   0.765   1.230  0.00  0.00    +0.020 C 
ATOM     27  C   LIG    1       -1.856   1.357   2.497  0.00  0.00    +0.010 C 
ATOM     28  C   LIG    1       -3.309   0.831   2.380  0.00  0.00    +0.200 C 
ATOM     29  O   LIG    1       -3.575   0.887   0.962  0.00  0.00    -0.370 OA
ENDBRANCH  24  25
ENDBRANCH   3  19
TORSDOF 6
