REMARK  Name = ZINCqH0000002xCq.1
REMARK                            x       y       z     vdW  Elec       q    Type
REMARK                         _______ _______ _______ _____ _____    ______ ____
ROOT
ATOM      1  N   LIG    1        2.397   1.106  -0.014  0.00  0.00    -0.670 N 
ATOM      2  H   LIG    1        2.488   0.263   0.457  0.00  0.00    +0.410 HD
ATOM      3  C   LIG    1        3.445   1.615  -0.691  0.00  0.00    +0.600 C 
ATOM      4  O   LIG    1        3.358   2.711  -1.213  0.00  0.00    -0.520 OA
ENDROOT
BRANCH   1  10
ATOM      5  C   LIG    1       -3.297   2.515   0.051  0.00  0.00    +0.280 A 
ATOM      6  N   LIG    1       -2.527   3.564   0.069  0.00  0.00    -0.480 NA
ATOM      7  C   LIG    1       -1.226   3.175   0.051  0.00  0.00    +0.040 A 
ATOM      8  C   LIG    1       -0.014   3.871   0.047  0.00  0.00    +0.080 A 
ATOM      9  C   LIG    1        1.167   3.186   0.026  0.00  0.00    +0.030 A 
ATOM     10  C   LIG    1        1.178   1.793   0.008  0.00  0.00    +0.170 A 
ATOM     11  C   LIG    1       -0.013   1.084   0.011  0.00  0.00    -0.010 A 
ATOM     12  C   LIG    1       -1.219   1.770   0.028  0.00  0.00    +0.070 A 
ATOM     13  N   LIG    1       -2.544   1.382   0.031  0.00  0.00    -0.600 N 
ATOM     14  H   LIG    1       -2.876   0.471   0.022  0.00  0.00    +0.420 HD
BRANCH   5  15
ATOM     15  C   LIG    1       -4.804   2.550   0.061  0.00  0.00    +0.140 C 
BRANCH  15  16
ATOM     16  C   LIG    1       -5.286   3.375   1.257  0.00  0.00    +0.030 C 
BRANCH  16  18
ATOM     17  C   LIG    1       -7.298   4.234   2.463  0.00  0.00    +0.010 C 
ATOM     18  C   LIG    1       -6.816   3.410   1.268  0.00  0.00    +0.010 C 
ENDBRANCH  16  18
ENDBRANCH  15  16
ENDBRANCH   5  15
ENDBRANCH   1  10
BRANCH   3  19
ATOM     19  C   LIG    1        4.697   0.845  -0.799  0.00  0.00    -0.290 A 
ATOM     20  C   LIG    1        4.941  -0.403  -0.263  0.00  0.00    +0.300 A 
ATOM     21  N   LIG    1        6.197  -0.744  -0.591  0.00  0.00    -0.460 N 
ATOM     22  H   LIG    1        6.642  -1.571  -0.348  0.00  0.00    +0.450 HD
ATOM     23  N   LIG    1        6.757   0.296  -1.341  0.00  0.00    -0.270 NA
ATOM     24  C   LIG    1        5.872   1.244  -1.477  0.00  0.00    +0.140 A 
BRANCH  24  25
ATOM     25  C   LIG    1        6.068   2.539  -2.221  0.00  0.00    +0.270 C 
ATOM     26  C   LIG    1        6.964   3.486  -1.399  0.00  0.00    +0.030 C 
ATOM     27  C   LIG    1        8.166   3.775  -2.331  0.00  0.00    +0.010 C 
ATOM     28  C   LIG    1        7.585   3.431  -3.726  0.00  0.00    +0.210 C 
ATOM     29  O   LIG    1        6.737   2.289  -3.469  0.00  0.00    -0.370 OA
ENDBRANCH  24  25
ENDBRANCH   3  19
TORSDOF 6
