REMARK  Name = ZINCnE000005uicv.0
REMARK                            x       y       z     vdW  Elec       q    Type
REMARK                         _______ _______ _______ _____ _____    ______ ____
ROOT
ATOM      1  C   LIG    1        1.978  -2.705  -1.266  0.00  0.00    -0.080 C 
ATOM      2  C   LIG    1        3.173  -3.507  -0.706  0.00  0.00    +0.260 C 
ATOM      3  N   LIG    1        2.749  -3.906   0.656  0.00  0.00    -0.610 N 
ATOM      4  C   LIG    1        2.033  -2.719   1.183  0.00  0.00    +0.270 C 
ATOM      5  C   LIG    1        2.963  -5.083   1.277  0.00  0.00    +0.550 C 
ATOM      6  O   LIG    1        2.550  -5.259   2.403  0.00  0.00    -0.550 OA
ATOM      7  C   LIG    1        1.228  -2.186  -0.022  0.00  0.00    +0.050 C 
ENDROOT
BRANCH   7   8
ATOM      8  C   LIG    1        1.208  -0.679  -0.014  0.00  0.00    -0.040 A 
ATOM      9  C   LIG    1        0.002  -0.004   0.002  0.00  0.00    +0.020 A 
ATOM     10  C   LIG    1       -0.017   1.378   0.010  0.00  0.00    +0.040 A 
ATOM     11  C   LIG    1        1.172   2.086   0.002  0.00  0.00    -0.100 A 
ATOM     12  C   LIG    1        2.379   1.410  -0.013  0.00  0.00    +0.040 A 
ATOM     13 BR   LIG    1        1.147   3.976   0.013  0.00  0.00    -0.070 Br
ATOM     14  C   LIG    1        2.396   0.028  -0.021  0.00  0.00    +0.020 A 
ENDBRANCH   7   8
BRANCH   5  15
ATOM     15  C   LIG    1        3.717  -6.181   0.571  0.00  0.00    +0.000 C 
ATOM     16  C   LIG    1        5.132  -5.701   0.238  0.00  0.00    +0.080 C 
ATOM     17  C   LIG    1        5.974  -6.856  -0.221  0.00  0.00    -0.050 C 
ATOM     18  C   LIG    1        5.672  -8.098  -0.021  0.00  0.00    -0.060 C 
ATOM     19  C   LIG    1        4.432  -8.559   0.687  0.00  0.00    +0.060 C 
ATOM     20  C   LIG    1        3.824  -7.406   1.488  0.00  0.00    +0.040 C 
ENDBRANCH   5  15
BRANCH   1  22
ATOM     21  O   LIG    1        1.103  -3.539  -3.300  0.00  0.00    -0.700 OA
ATOM     22  C   LIG    1        1.083  -3.602  -2.082  0.00  0.00    +0.500 C 
ATOM     23  O   LIG    1        0.338  -4.390  -1.525  0.00  0.00    -0.680 OA
ENDBRANCH   1  22
TORSDOF 3
