REMARK  Name = ZINCqH00000016ra.0
REMARK                            x       y       z     vdW  Elec       q    Type
REMARK                         _______ _______ _______ _____ _____    ______ ____
ROOT
ATOM      1  N   LIG    1       -2.115  -0.443   1.332  0.00  0.00    -0.730 N 
ATOM      2  H   LIG    1       -1.274  -0.926   1.336  0.00  0.00    +0.400 HD
ATOM      3  C   LIG    1       -3.281  -1.120   1.313  0.00  0.00    +0.490 C 
ATOM      4  O   LIG    1       -4.333  -0.516   1.308  0.00  0.00    -0.520 OA
ENDROOT
BRANCH   1   5
ATOM      5  C   LIG    1       -2.119   1.022   1.346  0.00  0.00    +0.270 C 
BRANCH   5   7
ATOM      6  C   LIG    1        0.057   1.040   0.120  0.00  0.00    +0.030 C 
ATOM      7  C   LIG    1       -0.678   1.536   1.366  0.00  0.00    -0.070 C 
ATOM      8  C   LIG    1        0.031   1.016   2.618  0.00  0.00    +0.030 C 
BRANCH   7   9
ATOM      9  C   LIG    1       -0.683   3.066   1.381  0.00  0.00    +0.090 C 
BRANCH   9  10
ATOM     10  C   LIG    1        0.737   3.572   1.401  0.00  0.00    -0.080 A 
ATOM     11  C   LIG    1        1.373   3.798   2.607  0.00  0.00    +0.000 A 
ATOM     12  C   LIG    1        2.676   4.258   2.626  0.00  0.00    +0.000 A 
ATOM     13  C   LIG    1        3.340   4.501   1.438  0.00  0.00    +0.000 A 
ATOM     14  C   LIG    1        2.702   4.280   0.232  0.00  0.00    +0.000 A 
ATOM     15  C   LIG    1        1.400   3.816   0.213  0.00  0.00    +0.000 A 
ENDBRANCH   9  10
ENDBRANCH   7   9
ENDBRANCH   5   7
ENDBRANCH   1   5
BRANCH   3  16
ATOM     16  C   LIG    1       -3.276  -2.627   1.298  0.00  0.00    +0.350 C 
BRANCH  16  17
ATOM     17  N   LIG    1       -4.656  -3.119   1.279  0.00  0.00    -0.550 N 
ATOM     18  C   LIG    1       -5.303  -3.357   2.437  0.00  0.00    +0.670 C 
ATOM     19  O   LIG    1       -4.777  -3.076   3.496  0.00  0.00    -0.560 OA
BRANCH  17  20
ATOM     20  C   LIG    1       -5.333  -3.353   0.001  0.00  0.00    +0.220 C 
ATOM     21  C   LIG    1       -4.522  -3.133  -1.278  0.00  0.00    +0.020 C 
ATOM     22  C   LIG    1       -5.613  -2.135  -0.883  0.00  0.00    +0.020 C 
ENDBRANCH  17  20
BRANCH  18  23
ATOM     23  O   LIG    1       -6.533  -3.904   2.421  0.00  0.00    -0.360 OA
BRANCH  23  24
ATOM     24  C   LIG    1       -7.170  -4.132   3.706  0.00  0.00    +0.140 C 
ATOM     25  C   LIG    1       -6.308  -5.081   4.542  0.00  0.00    +0.040 C 
ATOM     26  C   LIG    1       -8.550  -4.756   3.488  0.00  0.00    +0.080 C 
ATOM     27  C   LIG    1       -7.323  -2.800   4.442  0.00  0.00    +0.040 C 
ENDBRANCH  23  24
ENDBRANCH  18  23
ENDBRANCH  16  17
ENDBRANCH   3  16
TORSDOF 9
