REMARK  Name = ZINCpe00000IScG0.0
REMARK                            x       y       z     vdW  Elec       q    Type
REMARK                         _______ _______ _______ _____ _____    ______ ____
ROOT
ATOM      1  O   LIG    1       -0.013   1.209  -0.083  0.00  0.00    -0.580 OA
ATOM      2  C   LIG    1        0.002  -0.004   0.002  0.00  0.00    +0.710 C 
ATOM      3  N   LIG    1        1.177  -0.659   0.089  0.00  0.00    -0.630 N 
ATOM      4  C   LIG    1        2.446   0.078   0.186  0.00  0.00    +0.320 C 
ATOM      5  C   LIG    1        3.233  -0.474   1.386  0.00  0.00    +0.170 C 
ATOM      6  N   LIG    1        3.370  -1.930   1.247  0.00  0.00    -0.530 NA
ATOM      7  C   LIG    1        2.060  -2.594   1.280  0.00  0.00    +0.170 C 
ATOM      8  C   LIG    1        1.224  -2.129   0.083  0.00  0.00    +0.280 C 
ATOM      9  N   LIG    1       -1.156  -0.694   0.009  0.00  0.00    -0.740 N 
ATOM     10  H   LIG    1       -1.143  -1.664   0.004  0.00  0.00    +0.400 HD
ENDROOT
BRANCH   6  11
ATOM     11  C   LIG    1        4.263  -2.476   2.278  0.00  0.00    +0.240 C 
BRANCH  11  12
ATOM     12  C   LIG    1        5.497  -1.617   2.379  0.00  0.00    -0.140 A 
ATOM     13  C   LIG    1        5.532  -0.540   3.252  0.00  0.00    +0.060 A 
ATOM     14  C   LIG    1        6.689   0.223   3.312  0.00  0.00    -0.030 A 
ATOM     15  C   LIG    1        7.760  -0.114   2.506  0.00  0.00    +0.260 A 
ATOM     16  N   LIG    1        7.691  -1.145   1.687  0.00  0.00    -0.480 NA
ATOM     17  C   LIG    1        6.609  -1.895   1.608  0.00  0.00    +0.280 A 
ENDBRANCH  11  12
ENDBRANCH   6  11
BRANCH   9  18
ATOM     18  C   LIG    1       -2.434   0.021   0.032  0.00  0.00    +0.280 C 
BRANCH  18  19
ATOM     19  C   LIG    1       -3.583  -0.989   0.036  0.00  0.00    +0.270 C 
BRANCH  19  20
ATOM     20  N   LIG    1       -4.862  -0.274   0.058  0.00  0.00    -0.700 N 
ATOM     21  H   LIG    1       -4.875   0.696   0.068  0.00  0.00    +0.420 HD
BRANCH  20  22
ATOM     22  C   LIG    1       -6.051  -0.982   0.066  0.00  0.00    +0.560 A 
ATOM     23  N   LIG    1       -6.015  -2.306   0.047  0.00  0.00    -0.570 NA
ATOM     24  C   LIG    1       -7.133  -3.013   0.059  0.00  0.00    +0.360 A 
ATOM     25  C   LIG    1       -8.351  -2.352   0.080  0.00  0.00    -0.140 A 
ATOM     26  C   LIG    1       -8.352  -0.966   0.094  0.00  0.00    +0.360 A 
ATOM     27  N   LIG    1       -7.198  -0.319   0.086  0.00  0.00    -0.570 NA
ENDBRANCH  20  22
ENDBRANCH  19  20
ENDBRANCH  18  19
ENDBRANCH   9  18
TORSDOF 6
