REMARK  Name = ZINCrD00000F5Lzq.0
REMARK                            x       y       z     vdW  Elec       q    Type
REMARK                         _______ _______ _______ _____ _____    ______ ____
ROOT
ATOM      1  C   LIG    1       -2.448   0.984   0.019  0.00  0.00    +0.550 C 
ATOM      2  N   LIG    1       -3.624   1.642   0.028  0.00  0.00    -0.610 N 
ATOM      3  H   LIG    1       -3.637   2.612   0.034  0.00  0.00    +0.430 HD
ATOM      4  O   LIG    1       -2.431  -0.233   0.012  0.00  0.00    -0.500 OA
ENDROOT
BRANCH   2   5
ATOM      5  C   LIG    1       -4.810   0.935   0.030  0.00  0.00    +0.240 A 
ATOM      6  N   LIG    1       -5.995   1.476   0.044  0.00  0.00    -0.520 NA
ATOM      7  C   LIG    1       -7.032   0.679   0.039  0.00  0.00    +0.190 A 
ATOM      8  C   LIG    1       -6.677  -0.661   0.029  0.00  0.00    -0.420 A 
ATOM      9  C   LIG    1       -7.619  -1.712   0.023  0.00  0.00    +0.440 C 
ATOM     10  C   LIG    1       -9.085  -1.343  -0.001  0.00  0.00    +0.050 C 
ATOM     11  C   LIG    1       -9.300  -0.016   0.727  0.00  0.00    -0.060 C 
ATOM     12  C   LIG    1      -10.786   0.344   0.695  0.00  0.00    +0.040 C 
ATOM     13  C   LIG    1       -8.848  -0.159   2.182  0.00  0.00    +0.020 C 
ATOM     14  O   LIG    1       -7.263  -2.873   0.039  0.00  0.00    -0.470 OA
ATOM     15  C   LIG    1       -8.493   1.099   0.053  0.00  0.00    +0.160 C 
ATOM     16  S   LIG    1       -4.927  -0.770   0.022  0.00  0.00    +0.350 S 
ENDBRANCH   2   5
BRANCH   1  18
ATOM     17  C   LIG    1       -0.013   1.076   0.008  0.00  0.00    +0.160 C 
ATOM     18  C   LIG    1       -1.189   1.734   0.017  0.00  0.00    -0.070 C 
BRANCH  17  22
ATOM     19  C   LIG    1        3.636   3.249  -0.017  0.00  0.00    -0.120 A 
ATOM     20  C   LIG    1        3.655   1.852  -0.023  0.00  0.00    +0.080 A 
ATOM     21  C   LIG    1        2.474   1.147  -0.015  0.00  0.00    +0.050 A 
ATOM     22  C   LIG    1        1.252   1.829  -0.000  0.00  0.00    -0.060 A 
ATOM     23  C   LIG    1        1.234   3.228   0.002  0.00  0.00    +0.040 A 
ATOM     24  C   LIG    1        2.417   3.931  -0.002  0.00  0.00    +0.040 A 
BRANCH  19  28
ATOM     25  C   LIG    1        6.147   6.103  -0.028  0.00  0.00    +0.290 C 
ATOM     26  N   LIG    1        4.888   5.353  -0.019  0.00  0.00    -0.730 N 
ATOM     27  H   LIG    1        4.042   5.827  -0.009  0.00  0.00    +0.400 HD
ATOM     28  C   LIG    1        4.906   4.006  -0.026  0.00  0.00    +0.550 C 
ATOM     29  O   LIG    1        5.967   3.412  -0.039  0.00  0.00    -0.530 OA
ENDBRANCH  19  28
ENDBRANCH  17  22
ENDBRANCH   1  18
TORSDOF 4
