REMARK  Name = ZINCrD000000AM4R.0
REMARK                            x       y       z     vdW  Elec       q    Type
REMARK                         _______ _______ _______ _____ _____    ______ ____
ROOT
ATOM      1  C   LIG    1        7.828   2.979  -4.819  0.00  0.00    +0.260 C 
ATOM      2  C   LIG    1        8.380   3.324  -3.434  0.00  0.00    +0.010 C 
ATOM      3  C   LIG    1        7.337   4.136  -2.660  0.00  0.00    +0.280 C 
ATOM      4  N   LIG    1        6.075   3.384  -2.636  0.00  0.00    -0.620 N 
ATOM      5  C   LIG    1        5.505   2.920  -3.909  0.00  0.00    +0.280 C 
ATOM      6  C   LIG    1        5.454   3.120  -1.469  0.00  0.00    +0.520 C 
ATOM      7  O   LIG    1        5.938   3.504  -0.425  0.00  0.00    -0.540 OA
ATOM      8  C   LIG    1        6.566   2.126  -4.669  0.00  0.00    +0.000 C 
ENDROOT
BRANCH   1  11
ATOM      9  O   LIG    1        7.966   2.885  -7.511  0.00  0.00    -0.590 OA
ATOM     10  C   LIG    1        8.818   2.248  -6.921  0.00  0.00    +0.700 C 
ATOM     11  N   LIG    1        8.836   2.231  -5.574  0.00  0.00    -0.740 N 
ATOM     12  H   LIG    1        9.515   1.723  -5.104  0.00  0.00    +0.400 HD
ATOM     13  N   LIG    1        9.746   1.559  -7.616  0.00  0.00    -0.740 N 
ATOM     14  H   LIG    1       10.425   1.052  -7.146  0.00  0.00    +0.390 HD
BRANCH  13  15
ATOM     15  C   LIG    1        9.727   1.578  -9.081  0.00  0.00    +0.250 C 
ATOM     16  C   LIG    1        8.761   0.507  -9.592  0.00  0.00    +0.000 C 
ATOM     17  C   LIG    1        8.742   0.526 -11.122  0.00  0.00    +0.000 C 
ATOM     18  C   LIG    1       10.148   0.241 -11.654  0.00  0.00    +0.000 C 
ATOM     19  C   LIG    1       11.113   1.312 -11.142  0.00  0.00    +0.020 C 
ATOM     20  C   LIG    1       11.133   1.293  -9.613  0.00  0.00    +0.010 C 
ENDBRANCH  13  15
ENDBRANCH   1  11
BRANCH   6  21
ATOM     21  C   LIG    1        4.160   2.347  -1.462  0.00  0.00    +0.060 C 
BRANCH  21  22
ATOM     22  C   LIG    1        3.671   2.186  -0.021  0.00  0.00    +0.110 C 
BRANCH  22  23
ATOM     23  C   LIG    1        2.377   1.414  -0.013  0.00  0.00    -0.120 A 
ATOM     24  C   LIG    1        1.171   2.087   0.002  0.00  0.00    +0.040 A 
ATOM     25  C   LIG    1       -0.017   1.378   0.010  0.00  0.00    +0.000 A 
ATOM     26  C   LIG    1        0.002  -0.004   0.002  0.00  0.00    +0.040 A 
ATOM     27  C   LIG    1        1.208  -0.679  -0.013  0.00  0.00    -0.010 A 
ATOM     28  C   LIG    1        2.397   0.029  -0.020  0.00  0.00    +0.100 A 
ATOM     29  F   LIG    1        3.577  -0.630  -0.035  0.00  0.00    -0.140 F 
ENDBRANCH  22  23
ENDBRANCH  21  22
ENDBRANCH   6  21
TORSDOF 5
