REMARK  Name = ZINCah0000002Co3.0
REMARK                            x       y       z     vdW  Elec       q    Type
REMARK                         _______ _______ _______ _____ _____    ______ ____
ROOT
ATOM      1  C   LIG    1        0.002  -0.004   0.002  0.00  0.00    +0.260 A 
ATOM      2  C   LIG    1        1.307  -0.354  -0.013  0.00  0.00    -0.300 A 
ATOM      3  C   LIG    1        1.971  -1.701  -0.032  0.00  0.00    +0.110 C 
ATOM      4  C   LIG    1        3.434  -1.504  -0.455  0.00  0.00    +0.020 C 
ATOM      5  C   LIG    1        4.073  -0.399   0.389  0.00  0.00    +0.020 C 
ATOM      6  C   LIG    1        3.507   0.968  -0.020  0.00  0.00    +0.130 C 
ATOM      7  C   LIG    1        2.004   0.873  -0.011  0.00  0.00    +0.060 A 
ATOM      8  N   LIG    1        1.107   1.806   0.001  0.00  0.00    -0.370 NA
ATOM      9  O   LIG    1       -0.016   1.344   0.009  0.00  0.00    +0.050 OA
ENDROOT
BRANCH   1  10
ATOM     10  N   LIG    1       -1.089  -0.853   0.008  0.00  0.00    -0.820 N 
ATOM     11  H   LIG    1       -0.956  -1.814   0.001  0.00  0.00    +0.420 HD
ATOM     12  H   LIG    1       -1.988  -0.488   0.019  0.00  0.00    +0.410 HD
ENDBRANCH   1  10
TORSDOF 1
