REMARK  Name = ZINCkj000005kReh.0
REMARK                            x       y       z     vdW  Elec       q    Type
REMARK                         _______ _______ _______ _____ _____    ______ ____
ROOT
ATOM      1  N   LIG    1        2.111  -2.224  -1.415  0.00  0.00    -0.500 N 
ATOM      2  H   LIG    1        2.740  -1.597  -1.893  0.00  0.00    +0.430 HD
ATOM      3  H   LIG    1        1.216  -2.224  -1.882  0.00  0.00    +0.430 HD
ENDROOT
BRANCH   1   4
ATOM      4  C   LIG    1        2.670  -3.582  -1.427  0.00  0.00    +0.160 C 
ATOM      5  C   LIG    1        4.133  -3.564  -0.928  0.00  0.00    +0.070 C 
ATOM      6  C   LIG    1        4.830  -4.587  -1.860  0.00  0.00    +0.220 C 
ATOM      7  N   LIG    1        4.172  -4.355  -3.171  0.00  0.00    -0.420 N 
ATOM      8  C   LIG    1        2.744  -4.117  -2.869  0.00  0.00    +0.230 C 
BRANCH   7   9
ATOM      9  C   LIG    1        4.328  -5.462  -4.014  0.00  0.00    +0.220 A 
ATOM     10  N   LIG    1        3.361  -6.210  -4.491  0.00  0.00    -0.330 NA
ATOM     11  N   LIG    1        3.935  -7.209  -5.288  0.00  0.00    -0.360 N 
ATOM     12  C   LIG    1        5.274  -7.037  -5.275  0.00  0.00    +0.260 A 
ATOM     13  C   LIG    1        3.209  -8.257  -6.011  0.00  0.00    +0.370 C 
ATOM     14  C   LIG    1        5.546  -5.962  -4.501  0.00  0.00    -0.120 A 
ENDBRANCH   7   9
ENDBRANCH   1   4
BRANCH   1  15
ATOM     15  C   LIG    1        1.938  -1.778  -0.026  0.00  0.00    +0.370 C 
BRANCH  15  22
ATOM     16  C   LIG    1       -1.192  -0.923   0.009  0.00  0.00    +0.170 C 
ATOM     17  C   LIG    1        0.002  -0.004   0.002  0.00  0.00    +0.040 A 
ATOM     18  N   LIG    1       -0.016   1.298   0.009  0.00  0.00    -0.340 NA
ATOM     19  O   LIG    1        1.103   1.758   0.001  0.00  0.00    +0.120 OA
ATOM     20  C   LIG    1        2.033   0.793  -0.013  0.00  0.00    +0.040 A 
ATOM     21  C   LIG    1        3.528   0.981  -0.026  0.00  0.00    +0.200 C 
ATOM     22  C   LIG    1        1.364  -0.385  -0.013  0.00  0.00    -0.300 A 
ENDBRANCH  15  22
ENDBRANCH   1  15
TORSDOF 4
