REMARK  Name = ZINCpe000000SueY.0
REMARK                            x       y       z     vdW  Elec       q    Type
REMARK                         _______ _______ _______ _____ _____    ______ ____
ROOT
ATOM      1  C   LIG    1       -1.648  -1.126   1.898  0.00  0.00    -0.730 A 
ATOM      2  C   LIG    1       -2.310  -0.206   2.690  0.00  0.00    +0.170 A 
ATOM      3  C   LIG    1       -3.625  -0.424   3.052  0.00  0.00    -0.090 A 
ATOM      4  C   LIG    1       -4.278  -1.575   2.630  0.00  0.00    +0.270 A 
ATOM      5  C   LIG    1       -3.608  -2.500   1.839  0.00  0.00    -0.080 A 
ATOM      6  C   LIG    1       -2.295  -2.272   1.475  0.00  0.00    +0.170 A 
ENDROOT
BRANCH   1   7
ATOM      7  S   LIG    1        0.027  -0.840   1.431  0.00  0.00    +2.690 S 
ATOM      8  O   LIG    1        0.569   0.044   2.404  0.00  0.00    -0.960 OA
ATOM      9  O   LIG    1        0.586  -2.114   1.142  0.00  0.00    -0.950 OA
BRANCH   7  10
ATOM     10  N   LIG    1        0.002  -0.004   0.002  0.00  0.00    -1.000 NA
ATOM     11  C   LIG    1       -0.018   1.461   0.010  0.00  0.00    +0.290 C 
BRANCH  10  12
ATOM     12  C   LIG    1       -0.000  -0.730  -1.271  0.00  0.00    +0.330 C 
BRANCH  12  14
ATOM     13  C   LIG    1        1.906  -2.031  -2.068  0.00  0.00    +0.040 C 
ATOM     14  C   LIG    1        1.412  -0.852  -1.782  0.00  0.00    -0.080 C 
ENDBRANCH  12  14
ENDBRANCH  10  12
ENDBRANCH   7  10
ENDBRANCH   1   7
BRANCH   4  15
ATOM     15  N   LIG    1       -5.606  -1.802   3.000  0.00  0.00    -0.730 N 
ATOM     16  H   LIG    1       -6.061  -2.606   2.704  0.00  0.00    +0.420 HD
BRANCH  15  17
ATOM     17  C   LIG    1       -6.311  -0.826   3.834  0.00  0.00    +0.300 C 
BRANCH  17  18
ATOM     18  C   LIG    1       -7.717  -1.304   4.087  0.00  0.00    +0.520 C 
ATOM     19  N   LIG    1       -8.557  -0.562   4.836  0.00  0.00    -0.690 N 
ATOM     20  H   LIG    1       -8.256   0.280   5.212  0.00  0.00    +0.410 HD
ATOM     21  C   LIG    1       -9.815  -0.990   5.063  0.00  0.00    +0.700 C 
ATOM     22  N   LIG    1      -10.654  -0.248   5.812  0.00  0.00    -0.710 N 
ATOM     23  H   LIG    1      -10.354   0.594   6.188  0.00  0.00    +0.400 HD
ATOM     24  O   LIG    1      -10.192  -2.045   4.592  0.00  0.00    -0.520 OA
ATOM     25  O   LIG    1       -8.093  -2.357   3.618  0.00  0.00    -0.460 OA
BRANCH  22  26
ATOM     26  C   LIG    1      -12.022  -0.713   6.058  0.00  0.00    +0.230 C 
ATOM     27  C   LIG    1      -13.149   0.314   5.939  0.00  0.00    +0.020 C 
ATOM     28  C   LIG    1      -12.726  -0.203   7.317  0.00  0.00    +0.020 C 
ENDBRANCH  22  26
ENDBRANCH  17  18
ENDBRANCH  15  17
ENDBRANCH   4  15
TORSDOF 8
