REMARK  Name = ZINCrD00000l2tlS.1
REMARK                            x       y       z     vdW  Elec       q    Type
REMARK                         _______ _______ _______ _____ _____    ______ ____
ROOT
ATOM      1  C   LIG    1        1.232   1.873   1.264  0.00  0.00    +0.170 C 
ATOM      2  C   LIG    1        0.856   2.721   0.076  0.00  0.00    +0.160 A 
ATOM      3  C   LIG    1        0.261   2.280  -1.053  0.00  0.00    -0.070 A 
ATOM      4  C   LIG    1        0.077   3.391  -1.915  0.00  0.00    +0.520 A 
ATOM      5  N   LIG    1        0.570   4.480  -1.292  0.00  0.00    -0.360 N 
ATOM      6  O   LIG    1       -0.434   3.365  -3.021  0.00  0.00    -0.490 OA
ATOM      7  N   LIG    1        1.063   4.074  -0.046  0.00  0.00    -0.400 N 
ATOM      8  C   LIG    1        1.687   4.941   0.957  0.00  0.00    +0.360 C 
ENDROOT
BRANCH   5   9
ATOM      9  C   LIG    1        0.586   5.783  -1.800  0.00  0.00    +0.150 A 
ATOM     10  C   LIG    1        0.148   6.842  -1.013  0.00  0.00    +0.000 A 
ATOM     11  C   LIG    1        0.170   8.128  -1.516  0.00  0.00    +0.030 A 
ATOM     12  C   LIG    1        0.617   8.361  -2.803  0.00  0.00    +0.010 A 
ATOM     13  C   LIG    1        1.048   7.309  -3.591  0.00  0.00    +0.030 A 
ATOM     14  C   LIG    1        1.033   6.021  -3.093  0.00  0.00    +0.030 A 
ENDBRANCH   5   9
BRANCH   3  15
ATOM     15  N   LIG    1       -0.118   0.948  -1.324  0.00  0.00    -1.010 N 
ATOM     16  H   LIG    1        0.057   0.251  -0.672  0.00  0.00    +0.420 HD
BRANCH  15  17
ATOM     17  S   LIG    1       -0.861   0.574  -2.756  0.00  0.00    +2.680 S 
ATOM     18  O   LIG    1       -1.901   1.527  -2.930  0.00  0.00    -0.890 OA
ATOM     19  O   LIG    1       -1.087  -0.829  -2.736  0.00  0.00    -0.950 OA
BRANCH  17  20
ATOM     20  C   LIG    1        0.306   0.871  -4.043  0.00  0.00    -0.700 A 
ATOM     21  C   LIG    1        1.511   0.189  -4.056  0.00  0.00    +0.230 A 
ATOM     22  C   LIG    1        2.427   0.422  -5.066  0.00  0.00    -0.050 A 
ATOM     23  C   LIG    1        2.139   1.337  -6.064  0.00  0.00    +0.190 A 
ATOM     24  C   LIG    1        0.934   2.019  -6.049  0.00  0.00    -0.010 A 
ATOM     25  F   LIG    1        3.033   1.566  -7.050  0.00  0.00    -0.120 F 
ATOM     26  F   LIG    1        1.792  -0.704  -3.082  0.00  0.00    -0.110 F 
ATOM     27  C   LIG    1        0.016   1.782  -5.042  0.00  0.00    +0.080 A 
ATOM     28 BR   LIG    1       -1.632   2.708  -5.028  0.00  0.00    +0.080 Br
ENDBRANCH  17  20
ENDBRANCH  15  17
ENDBRANCH   3  15
TORSDOF 4
