REMARK  Name = ZINCvU0000000FMv.0
REMARK                            x       y       z     vdW  Elec       q    Type
REMARK                         _______ _______ _______ _____ _____    ______ ____
ROOT
ATOM      1  C   LIG    1        1.262   6.419   1.835  0.00  0.00    +0.570 C 
ATOM      2  N   LIG    1        1.172   6.149   0.517  0.00  0.00    -0.590 N 
ATOM      3  C   LIG    1        2.347   6.301  -0.344  0.00  0.00    +0.290 C 
ATOM      4  O   LIG    1        0.318   6.194   2.568  0.00  0.00    -0.520 OA
ENDROOT
BRANCH   1  11
ATOM      5  C   LIG    1        3.022   6.504   3.599  0.00  0.00    +0.210 A 
ATOM      6  C   LIG    1        4.192   7.039   4.109  0.00  0.00    -0.060 A 
ATOM      7  C   LIG    1        4.845   8.057   3.428  0.00  0.00    +0.200 A 
ATOM      8  C   LIG    1        4.330   8.541   2.228  0.00  0.00    -0.090 A 
ATOM      9  C   LIG    1        3.170   8.012   1.708  0.00  0.00    +0.140 A 
ATOM     10 CL   LIG    1        5.154   9.814   1.384  0.00  0.00    -0.040 Cl
ATOM     11  C   LIG    1        2.505   6.987   2.387  0.00  0.00    -0.150 A 
BRANCH   7  12
ATOM     12  N   LIG    1        6.024   8.599   3.949  0.00  0.00    -0.410 N 
ATOM     13  C   LIG    1        6.198   9.046   5.229  0.00  0.00    +0.150 A 
ATOM     14  C   LIG    1        7.465   9.490   5.350  0.00  0.00    -0.040 A 
ATOM     15  C   LIG    1        8.095   9.321   4.100  0.00  0.00    -0.050 A 
ATOM     16  C   LIG    1        7.192   8.774   3.262  0.00  0.00    +0.160 A 
ENDBRANCH   7  12
BRANCH   5  18
ATOM     17  C   LIG    1        2.964   5.071   5.493  0.00  0.00    +0.250 C 
ATOM     18  O   LIG    1        2.379   5.513   4.266  0.00  0.00    -0.290 OA
ENDBRANCH   5  18
ENDBRANCH   1  11
BRANCH   2  19
ATOM     19  C   LIG    1       -0.102   5.703  -0.053  0.00  0.00    +0.360 C 
BRANCH  19  20
ATOM     20  C   LIG    1        0.043   4.293  -0.565  0.00  0.00    +0.120 A 
ATOM     21  C   LIG    1       -1.072   3.483  -0.662  0.00  0.00    -0.020 A 
ATOM     22  C   LIG    1       -0.928   2.189  -1.139  0.00  0.00    +0.070 A 
ATOM     23  C   LIG    1        0.339   1.753  -1.492  0.00  0.00    -0.030 A 
ATOM     24  C   LIG    1        1.409   2.620  -1.367  0.00  0.00    +0.260 A 
ATOM     25  N   LIG    1        1.234   3.846  -0.915  0.00  0.00    -0.470 NA
ENDBRANCH  19  20
BRANCH  19  26
ATOM     26  C   LIG    1       -0.489   6.613  -1.190  0.00  0.00    -0.100 A 
ATOM     27  C   LIG    1        0.355   6.759  -2.276  0.00  0.00    +0.020 A 
ATOM     28  C   LIG    1       -0.002   7.590  -3.321  0.00  0.00    +0.000 A 
ATOM     29  C   LIG    1       -1.198   8.282  -3.277  0.00  0.00    +0.010 A 
ATOM     30  C   LIG    1       -2.039   8.140  -2.189  0.00  0.00    +0.010 A 
ATOM     31  C   LIG    1       -1.684   7.305  -1.146  0.00  0.00    +0.030 A 
ENDBRANCH  19  26
ENDBRANCH   2  19
TORSDOF 6
