REMARK  Name = ZINCpk000000o4AX.1
REMARK                            x       y       z     vdW  Elec       q    Type
REMARK                         _______ _______ _______ _____ _____    ______ ____
ROOT
ATOM      1  C   LIG    1       -1.806  -0.663   0.005  0.00  0.00    +0.580 C 
ATOM      2  N   LIG    1       -2.843   0.198   0.015  0.00  0.00    -0.650 N 
ATOM      3  H   LIG    1       -2.681   1.151   0.093  0.00  0.00    +0.430 HD
ATOM      4  O   LIG    1       -2.010  -1.861   0.000  0.00  0.00    -0.460 OA
ENDROOT
BRANCH   1   7
ATOM      5  C   LIG    1        0.757  -2.414  -0.026  0.00  0.00    +0.180 C 
ATOM      6  C   LIG    1        0.694  -0.909  -0.014  0.00  0.00    +0.030 C 
ATOM      7  C   LIG    1       -0.421  -0.150   0.000  0.00  0.00    -0.280 C 
ATOM      8  C   LIG    1       -0.037   1.271   0.006  0.00  0.00    +0.520 C 
ATOM      9  O   LIG    1        1.304   1.383   0.005  0.00  0.00    -0.310 OA
ATOM     10  O   LIG    1       -0.815   2.203   0.015  0.00  0.00    -0.460 OA
ATOM     11  C   LIG    1        1.867   0.043  -0.007  0.00  0.00    +0.110 C 
ATOM     12  C   LIG    1        2.718  -0.181   1.245  0.00  0.00    +0.100 C 
ATOM     13  C   LIG    1        2.716  -0.160  -1.264  0.00  0.00    +0.100 C 
ENDBRANCH   1   7
BRANCH   2  14
ATOM     14  C   LIG    1       -4.149  -0.282  -0.088  0.00  0.00    +0.330 A 
ATOM     15  C   LIG    1       -5.206   0.616  -0.183  0.00  0.00    -0.030 A 
ATOM     16  C   LIG    1       -6.497   0.130  -0.285  0.00  0.00    +0.070 A 
ATOM     17  C   LIG    1       -6.688  -1.250  -0.289  0.00  0.00    +0.030 A 
ATOM     18  C   LIG    1       -5.585  -2.086  -0.190  0.00  0.00    +0.250 A 
ATOM     19  N   LIG    1       -4.367  -1.587  -0.099  0.00  0.00    -0.450 NA
BRANCH  17  20
ATOM     20  N   LIG    1       -7.977  -1.787  -0.390  0.00  0.00    -0.480 N 
ATOM     21  C   LIG    1       -8.846  -1.274   0.678  0.00  0.00    +0.200 C 
ATOM     22  C   LIG    1      -10.262  -1.821   0.487  0.00  0.00    +0.190 C 
ATOM     23  N   LIG    1      -10.224  -3.289   0.503  0.00  0.00    -0.550 NA
ATOM     24  C   LIG    1       -9.355  -3.803  -0.565  0.00  0.00    +0.200 C 
ATOM     25  C   LIG    1      -11.577  -3.853   0.397  0.00  0.00    +0.190 C 
ATOM     26  C   LIG    1       -7.938  -3.256  -0.373  0.00  0.00    +0.200 C 
ENDBRANCH  17  20
ENDBRANCH   2  14
TORSDOF 3
