REMARK  Name = ZINCrD000000AqWI.0
REMARK                            x       y       z     vdW  Elec       q    Type
REMARK                         _______ _______ _______ _____ _____    ______ ____
ROOT
ATOM      1  O   LIG    1        2.809   3.584  -1.618  0.00  0.00    -0.300 OA
ENDROOT
BRANCH   1   2
ATOM      2  C   LIG    1        1.514   3.643  -1.209  0.00  0.00    +0.090 A 
ATOM      3  C   LIG    1        0.670   2.561  -1.419  0.00  0.00    +0.030 A 
ATOM      4  C   LIG    1       -0.647   2.622  -1.009  0.00  0.00    +0.000 A 
ATOM      5  C   LIG    1       -1.124   3.762  -0.375  0.00  0.00    +0.150 A 
ATOM      6  C   LIG    1       -0.280   4.844  -0.166  0.00  0.00    +0.010 A 
ATOM      7  C   LIG    1        1.036   4.784  -0.582  0.00  0.00    -0.040 A 
BRANCH   5   8
ATOM      8  N   LIG    1       -2.457   3.822   0.046  0.00  0.00    -0.690 N 
ATOM      9  H   LIG    1       -3.139   3.321  -0.428  0.00  0.00    +0.410 HD
BRANCH   8  10
ATOM     10  C   LIG    1       -2.806   4.604   1.151  0.00  0.00    +0.180 A 
ATOM     11  C   LIG    1       -1.902   4.783   2.190  0.00  0.00    -0.040 A 
ATOM     12  C   LIG    1       -2.248   5.560   3.278  0.00  0.00    +0.030 A 
ATOM     13  C   LIG    1       -3.497   6.151   3.338  0.00  0.00    -0.030 A 
ATOM     14  C   LIG    1       -4.401   5.971   2.308  0.00  0.00    +0.030 A 
ATOM     15  C   LIG    1       -4.060   5.199   1.214  0.00  0.00    -0.050 A 
ENDBRANCH   8  10
ENDBRANCH   5   8
ENDBRANCH   1   2
BRANCH   1  16
ATOM     16  C   LIG    1        3.621   4.733  -1.370  0.00  0.00    +0.290 C 
BRANCH  16  18
ATOM     17  O   LIG    1        5.284   3.434  -2.417  0.00  0.00    -0.480 OA
ATOM     18  C   LIG    1        5.014   4.486  -1.889  0.00  0.00    +0.470 C 
BRANCH  18  19
ATOM     19  O   LIG    1        5.955   5.436  -1.764  0.00  0.00    -0.330 OA
BRANCH  19  20
ATOM     20  C   LIG    1        7.274   5.129  -2.286  0.00  0.00    +0.270 C 
BRANCH  20  21
ATOM     21  C   LIG    1        8.190   6.303  -2.058  0.00  0.00    +0.520 C 
ATOM     22  N   LIG    1        9.474   6.245  -2.464  0.00  0.00    -0.610 N 
ATOM     23  C   LIG    1        9.997   5.041  -3.124  0.00  0.00    +0.260 C 
ATOM     24  C   LIG    1       10.635   5.454  -4.459  0.00  0.00    +0.010 C 
ATOM     25  C   LIG    1       11.687   6.536  -4.202  0.00  0.00    +0.020 C 
ATOM     26  C   LIG    1       11.015   7.767  -3.588  0.00  0.00    +0.010 C 
ATOM     27  C   LIG    1       10.380   7.382  -2.249  0.00  0.00    +0.280 C 
ATOM     28  O   LIG    1        7.772   7.301  -1.510  0.00  0.00    -0.520 OA
ENDBRANCH  20  21
ENDBRANCH  19  20
ENDBRANCH  18  19
ENDBRANCH  16  18
ENDBRANCH   1  16
TORSDOF 8
