REMARK  Name = ZINCvU00000009FU.0
REMARK                            x       y       z     vdW  Elec       q    Type
REMARK                         _______ _______ _______ _____ _____    ______ ____
ROOT
ATOM      1  C   LIG    1        5.679   6.941   0.528  0.00  0.00    +0.010 C 
ATOM      2  C   LIG    1        6.303   7.303  -0.822  0.00  0.00    +0.080 C 
ENDROOT
BRANCH   1   3
ATOM      3  C   LIG    1        4.520   6.003   0.310  0.00  0.00    +0.410 C 
ATOM      4  O   LIG    1        4.686   4.802   0.391  0.00  0.00    -0.460 OA
BRANCH   3   5
ATOM      5  C   LIG    1        3.249   6.516   0.013  0.00  0.00    -0.220 C 
ATOM      6  C   LIG    1        2.184   5.682  -0.072  0.00  0.00    +0.270 C 
ATOM      7  N   LIG    1        0.891   6.040  -0.295  0.00  0.00    -0.530 N 
ATOM      8  C   LIG    1        0.042   4.935  -0.324  0.00  0.00    +0.140 A 
ATOM      9  C   LIG    1       -1.336   4.853  -0.521  0.00  0.00    -0.020 A 
ATOM     10  C   LIG    1       -1.964   3.625  -0.513  0.00  0.00    +0.040 A 
ATOM     11  C   LIG    1       -1.237   2.469  -0.297  0.00  0.00    -0.010 A 
ATOM     12  C   LIG    1        0.131   2.542  -0.100  0.00  0.00    +0.070 A 
ATOM     13  C   LIG    1        0.762   3.766  -0.114  0.00  0.00    -0.130 A 
ATOM     14  C   LIG    1        0.444   7.422  -0.484  0.00  0.00    +0.330 C 
ATOM     15  C   LIG    1        2.206   4.175   0.065  0.00  0.00    +0.010 C 
ATOM     16  C   LIG    1        3.078   3.551  -1.027  0.00  0.00    +0.080 C 
ATOM     17  C   LIG    1        2.710   3.770   1.451  0.00  0.00    +0.080 C 
ENDBRANCH   3   5
ENDBRANCH   1   3
BRANCH   1  18
ATOM     18  S   LIG    1        6.921   6.133   1.568  0.00  0.00    +0.010 S 
BRANCH  18  23
ATOM     19  C   LIG    1        9.209  10.862   1.274  0.00  0.00    +0.150 C 
ATOM     20  C   LIG    1        8.979   9.420   1.647  0.00  0.00    +0.000 A 
ATOM     21  C   LIG    1        9.790   8.665   2.408  0.00  0.00    +0.000 A 
ATOM     22  N   LIG    1        9.210   7.420   2.499  0.00  0.00    -0.440 N 
ATOM     23  C   LIG    1        8.054   7.465   1.782  0.00  0.00    +0.180 A 
ATOM     24  C   LIG    1       11.087   9.099   3.039  0.00  0.00    +0.150 C 
ATOM     25  N   LIG    1        7.930   8.668   1.272  0.00  0.00    -0.480 NA
BRANCH  22  26
ATOM     26  C   LIG    1        9.738   6.264   3.230  0.00  0.00    +0.320 C 
BRANCH  26  27
ATOM     27  C   LIG    1       10.636   5.442   2.304  0.00  0.00    +0.140 C 
ATOM     28  C   LIG    1       11.135   4.172   3.028  0.00  0.00    +0.010 C 
ATOM     29  C   LIG    1       12.586   3.998   2.524  0.00  0.00    +0.010 C 
ATOM     30  C   LIG    1       12.792   5.185   1.556  0.00  0.00    +0.190 C 
ATOM     31  O   LIG    1       11.835   6.181   1.981  0.00  0.00    -0.360 OA
ENDBRANCH  26  27
ENDBRANCH  22  26
ENDBRANCH  18  23
ENDBRANCH   1  18
TORSDOF 6
