REMARK  Name = ZINCkj00000xJUGK.0
REMARK                            x       y       z     vdW  Elec       q    Type
REMARK                         _______ _______ _______ _____ _____    ______ ____
ROOT
ATOM      1  N   LIG    1        2.731   3.915  -0.481  0.00  0.00    -0.390 N 
ATOM      2  C   LIG    1        2.897   3.031  -1.655  0.00  0.00    +0.250 C 
ATOM      3  C   LIG    1        2.076   1.757  -1.380  0.00  0.00    +0.080 C 
ATOM      4  C   LIG    1        1.418   1.990  -0.001  0.00  0.00    +0.000 C 
ATOM      5  C   LIG    1        1.434   3.534   0.134  0.00  0.00    +0.280 C 
ATOM      6  H   LIG    1        3.483   3.767   0.175  0.00  0.00    +0.430 HD
ENDROOT
BRANCH   1   7
ATOM      7  C   LIG    1        2.697   5.321  -0.905  0.00  0.00    +0.290 C 
BRANCH   7   8
ATOM      8  C   LIG    1        4.078   5.732  -1.420  0.00  0.00    +0.070 C 
BRANCH   8  11
ATOM      9  N   LIG    1        5.154   7.757  -2.348  0.00  0.00    -0.720 N 
ATOM     10  H   LIG    1        5.976   7.248  -2.422  0.00  0.00    +0.410 HD
ATOM     11  C   LIG    1        4.043   7.174  -1.855  0.00  0.00    +0.520 C 
ATOM     12  O   LIG    1        3.015   7.811  -1.762  0.00  0.00    -0.530 OA
BRANCH   9  14
ATOM     13  C   LIG    1        6.501   9.570  -3.286  0.00  0.00    +0.030 C 
ATOM     14  C   LIG    1        5.120   9.159  -2.771  0.00  0.00    +0.250 C 
ENDBRANCH   9  14
ENDBRANCH   8  11
ENDBRANCH   7   8
ENDBRANCH   1   7
BRANCH   4  15
ATOM     15  C   LIG    1       -0.018   1.461   0.010  0.00  0.00    +0.290 C 
BRANCH  15  16
ATOM     16  N   LIG    1        0.002  -0.004   0.002  0.00  0.00    -0.730 N 
ATOM     17  H   LIG    1        0.849  -0.478  -0.009  0.00  0.00    +0.410 HD
BRANCH  16  18
ATOM     18  C   LIG    1       -1.192  -0.715   0.010  0.00  0.00    +0.390 A 
ATOM     19  C   LIG    1       -2.402  -0.030   0.025  0.00  0.00    -0.110 A 
ATOM     20  C   LIG    1       -3.583  -0.751   0.032  0.00  0.00    +0.110 A 
ATOM     21  C   LIG    1       -3.514  -2.137   0.023  0.00  0.00    -0.080 A 
ATOM     22  C   LIG    1       -2.278  -2.752   0.008  0.00  0.00    +0.310 A 
ATOM     23  N   LIG    1       -1.167  -2.039  -0.003  0.00  0.00    -0.540 NA
ENDBRANCH  16  18
ENDBRANCH  15  16
ENDBRANCH   4  15
TORSDOF 7
