REMARK  Name = ZINCkj00000xJUGK.1
REMARK                            x       y       z     vdW  Elec       q    Type
REMARK                         _______ _______ _______ _____ _____    ______ ____
ROOT
ATOM      1  N   LIG    1        1.762   1.958  -1.405  0.00  0.00    -0.390 N 
ATOM      2  C   LIG    1        0.613   1.586  -2.258  0.00  0.00    +0.260 C 
ATOM      3  C   LIG    1       -0.614   1.633  -1.313  0.00  0.00    +0.080 C 
ATOM      4  C   LIG    1       -0.013   1.086   0.008  0.00  0.00    +0.000 C 
ATOM      5  C   LIG    1        1.423   1.651  -0.003  0.00  0.00    +0.280 C 
ATOM      6  H   LIG    1        1.948   2.945  -1.501  0.00  0.00    +0.430 HD
ENDROOT
BRANCH   1   7
ATOM      7  C   LIG    1        2.946   1.188  -1.807  0.00  0.00    +0.290 C 
BRANCH   7   8
ATOM      8  C   LIG    1        3.367   1.601  -3.219  0.00  0.00    +0.070 C 
BRANCH   8  11
ATOM      9  N   LIG    1        5.134   1.008  -4.846  0.00  0.00    -0.720 N 
ATOM     10  H   LIG    1        4.749   1.659  -5.453  0.00  0.00    +0.410 HD
ATOM     11  C   LIG    1        4.582   0.811  -3.632  0.00  0.00    +0.520 C 
ATOM     12  O   LIG    1        5.064  -0.002  -2.872  0.00  0.00    -0.530 OA
BRANCH   9  14
ATOM     13  C   LIG    1        6.737   0.654  -6.659  0.00  0.00    +0.030 C 
ATOM     14  C   LIG    1        6.315   0.241  -5.247  0.00  0.00    +0.250 C 
ENDBRANCH   9  14
ENDBRANCH   8  11
ENDBRANCH   7   8
ENDBRANCH   1   7
BRANCH   4  15
ATOM     15  C   LIG    1       -0.790   1.608   1.218  0.00  0.00    +0.290 C 
BRANCH  15  16
ATOM     16  N   LIG    1       -2.127   1.007   1.235  0.00  0.00    -0.730 N 
ATOM     17  H   LIG    1       -2.387   0.383   0.540  0.00  0.00    +0.410 HD
BRANCH  16  18
ATOM     18  C   LIG    1       -3.022   1.332   2.248  0.00  0.00    +0.390 A 
ATOM     19  C   LIG    1       -2.642   2.228   3.242  0.00  0.00    -0.110 A 
ATOM     20  C   LIG    1       -3.542   2.543   4.244  0.00  0.00    +0.110 A 
ATOM     21  C   LIG    1       -4.797   1.949   4.218  0.00  0.00    -0.080 A 
ATOM     22  C   LIG    1       -5.107   1.068   3.201  0.00  0.00    +0.310 A 
ATOM     23  N   LIG    1       -4.230   0.790   2.255  0.00  0.00    -0.540 NA
ENDBRANCH  16  18
ENDBRANCH  15  16
ENDBRANCH   4  15
TORSDOF 7
