REMARK  Name = ZINCpk00000y6uXF.0
REMARK                            x       y       z     vdW  Elec       q    Type
REMARK                         _______ _______ _______ _____ _____    ______ ____
ROOT
ATOM      1  N   LIG    1       -0.977  -0.989   0.006  0.00  0.00    -0.390 N 
ATOM      2  C   LIG    1       -0.328  -2.185  -0.006  0.00  0.00    +0.270 A 
ATOM      3  N   LIG    1        0.974  -1.976  -0.018  0.00  0.00    -0.490 NA
ATOM      4  C   LIG    1        1.225  -0.667  -0.013  0.00  0.00    +0.340 A 
ATOM      5  N   LIG    1        2.390   0.083  -0.021  0.00  0.00    -0.510 N 
ATOM      6  C   LIG    1        3.692  -0.588  -0.037  0.00  0.00    +0.350 C 
ATOM      7  C   LIG    1        2.327   1.428  -0.014  0.00  0.00    +0.710 A 
ATOM      8  O   LIG    1        3.359   2.071  -0.021  0.00  0.00    -0.530 OA
ATOM      9  N   LIG    1        1.150   2.078   0.002  0.00  0.00    -0.650 N 
ATOM     10  H   LIG    1        1.140   3.048   0.007  0.00  0.00    +0.440 HD
ATOM     11  C   LIG    1       -0.017   1.401   0.010  0.00  0.00    +0.600 A 
ATOM     12  O   LIG    1       -1.077   2.003   0.018  0.00  0.00    -0.510 OA
ATOM     13  C   LIG    1        0.002  -0.004   0.002  0.00  0.00    -0.150 A 
ENDROOT
BRANCH   1  14
ATOM     14  C   LIG    1       -2.427  -0.781   0.022  0.00  0.00    +0.330 C 
BRANCH  14  15
ATOM     15  C   LIG    1       -2.946  -0.700  -1.415  0.00  0.00    +0.170 C 
BRANCH  15  17
ATOM     16  C   LIG    1       -4.949  -0.407  -2.699  0.00  0.00    +0.210 C 
ATOM     17  O   LIG    1       -4.360  -0.497  -1.400  0.00  0.00    -0.380 OA
ENDBRANCH  15  17
ENDBRANCH  14  15
ENDBRANCH   1  14
BRANCH   2  18
ATOM     18  S   LIG    1       -1.106  -3.766  -0.009  0.00  0.00    +0.020 S 
BRANCH  18  19
ATOM     19  C   LIG    1        0.354  -4.835  -0.028  0.00  0.00    +0.100 C 
BRANCH  19  20
ATOM     20  C   LIG    1       -0.087  -6.300  -0.033  0.00  0.00    +0.110 C 
BRANCH  20  21
ATOM     21  C   LIG    1        1.129  -7.190  -0.049  0.00  0.00    -0.080 A 
ATOM     22  C   LIG    1        1.673  -7.596  -1.254  0.00  0.00    +0.010 A 
ATOM     23  C   LIG    1        2.791  -8.409  -1.269  0.00  0.00    +0.000 A 
ATOM     24  C   LIG    1        3.360  -8.824  -0.079  0.00  0.00    +0.000 A 
ATOM     25  C   LIG    1        2.813  -8.422   1.125  0.00  0.00    +0.000 A 
ATOM     26  C   LIG    1        1.698  -7.606   1.141  0.00  0.00    +0.010 A 
ENDBRANCH  20  21
ENDBRANCH  19  20
ENDBRANCH  18  19
ENDBRANCH   2  18
TORSDOF 7
