REMARK  Name = ZINCnE000001Tzp4.0
REMARK                            x       y       z     vdW  Elec       q    Type
REMARK                         _______ _______ _______ _____ _____    ______ ____
ROOT
ATOM      1  C   LIG    1        0.608   3.593   0.878  0.00  0.00    +0.070 C 
ATOM      2  C   LIG    1        1.030   2.161   0.512  0.00  0.00    +0.300 C 
ATOM      3  N   LIG    1       -0.223   1.437   0.283  0.00  0.00    -0.550 N 
ATOM      4  C   LIG    1       -1.312   2.293   0.471  0.00  0.00    +0.140 A 
ATOM      5  C   LIG    1       -2.678   2.027   0.354  0.00  0.00    +0.000 A 
ATOM      6  C   LIG    1       -3.603   3.023   0.585  0.00  0.00    +0.010 A 
ATOM      7  C   LIG    1       -3.184   4.293   0.935  0.00  0.00    -0.020 A 
ATOM      8  C   LIG    1       -1.834   4.563   1.061  0.00  0.00    +0.040 A 
ATOM      9  C   LIG    1       -0.312   0.137  -0.063  0.00  0.00    +0.530 C 
ATOM     10  O   LIG    1       -1.399  -0.393  -0.153  0.00  0.00    -0.530 OA
ATOM     11  C   LIG    1       -0.903   3.569   0.826  0.00  0.00    -0.120 A 
ENDROOT
BRANCH   9  12
ATOM     12  C   LIG    1        0.938  -0.656  -0.340  0.00  0.00    +0.000 C 
ATOM     13  C   LIG    1        1.579  -0.163  -1.638  0.00  0.00    +0.050 C 
ATOM     14  C   LIG    1        2.849  -0.969  -1.919  0.00  0.00    +0.030 C 
ATOM     15  C   LIG    1        2.493  -2.450  -2.057  0.00  0.00    +0.290 C 
ATOM     16  C   LIG    1        1.852  -2.944  -0.758  0.00  0.00    +0.030 C 
ATOM     17  F   LIG    1        1.592  -2.617  -3.114  0.00  0.00    -0.200 F 
ATOM     18  F   LIG    1        3.654  -3.188  -2.313  0.00  0.00    -0.200 F 
ATOM     19  C   LIG    1        0.582  -2.138  -0.478  0.00  0.00    +0.060 C 
ENDBRANCH   9  12
BRANCH   1  20
ATOM     20  C   LIG    1        1.161   4.590  -0.142  0.00  0.00    -0.040 C 
BRANCH  20  22
ATOM     21  O   LIG    1        3.237   3.978   0.812  0.00  0.00    -0.690 OA
ATOM     22  C   LIG    1        2.665   4.611  -0.059  0.00  0.00    +0.490 C 
ATOM     23  O   LIG    1        3.311   5.262  -0.862  0.00  0.00    -0.700 OA
ENDBRANCH  20  22
ENDBRANCH   1  20
TORSDOF 3
