REMARK  Name = ZINCtV00001bB3ll.0
REMARK                            x       y       z     vdW  Elec       q    Type
REMARK                         _______ _______ _______ _____ _____    ______ ____
ROOT
ATOM      1  C   LIG    1        6.682  -0.117  -1.767  0.00  0.00    +0.160 A 
ATOM      2  C   LIG    1        6.255   0.999  -2.370  0.00  0.00    -0.050 A 
ATOM      3  S   LIG    1        4.519   1.096  -2.027  0.00  0.00    -0.000 S 
ATOM      4  C   LIG    1        4.476  -0.400  -1.077  0.00  0.00    +0.400 A 
ATOM      5  N   LIG    1        3.429  -0.947  -0.490  0.00  0.00    -0.530 NA
ATOM      6  N   LIG    1        5.762  -0.861  -1.079  0.00  0.00    -0.490 N 
ENDROOT
BRANCH   1  10
ATOM      7  C   LIG    1       10.757  -1.301  -1.969  0.00  0.00    -0.060 A 
ATOM      8  C   LIG    1       10.073  -0.984  -3.130  0.00  0.00    +0.020 A 
ATOM      9  C   LIG    1        8.750  -0.599  -3.071  0.00  0.00    +0.050 A 
ATOM     10  C   LIG    1        8.101  -0.529  -1.838  0.00  0.00    -0.050 A 
ATOM     11  C   LIG    1        8.797  -0.845  -0.670  0.00  0.00    +0.030 A 
ATOM     12  C   LIG    1       10.119  -1.233  -0.743  0.00  0.00    +0.010 A 
BRANCH   7  14
ATOM     13  C   LIG    1       13.098  -0.485  -1.929  0.00  0.00    +0.030 C 
ATOM     14  C   LIG    1       12.203  -1.720  -2.041  0.00  0.00    +0.050 C 
ENDBRANCH   7  14
ENDBRANCH   1  10
BRANCH   5  15
ATOM     15  C   LIG    1        2.201  -0.347  -0.583  0.00  0.00    +0.140 A 
ATOM     16  C   LIG    1        1.068  -1.113  -0.867  0.00  0.00    +0.030 A 
ATOM     17  C   LIG    1       -0.166  -0.505  -0.960  0.00  0.00    +0.060 A 
ATOM     18  C   LIG    1       -0.284   0.867  -0.770  0.00  0.00    -0.110 A 
ATOM     19  C   LIG    1        0.842   1.631  -0.487  0.00  0.00    +0.040 A 
ATOM     20  C   LIG    1        2.079   1.031  -0.393  0.00  0.00    -0.020 A 
BRANCH  18  21
ATOM     21  S   LIG    1       -1.862   1.639  -0.896  0.00  0.00    -0.100 S 
BRANCH  21  22
ATOM     22  C   LIG    1       -1.489   3.385  -0.575  0.00  0.00    +0.430 C 
ATOM     23  F   LIG    1       -0.584   3.853  -1.533  0.00  0.00    -0.180 F 
ATOM     24  F   LIG    1       -0.928   3.514   0.700  0.00  0.00    -0.180 F 
ENDBRANCH  21  22
ENDBRANCH  18  21
ENDBRANCH   5  15
BRANCH   6  25
ATOM     25  C   LIG    1        6.137  -2.094  -0.382  0.00  0.00    +0.250 C 
ATOM     26  C   LIG    1        5.913  -1.918   1.121  0.00  0.00    +0.060 C 
BRANCH  25  27
ATOM     27  C   LIG    1        5.276  -3.251  -0.894  0.00  0.00    +0.190 C 
BRANCH  27  28
ATOM     28  O   LIG    1        5.572  -3.490  -2.272  0.00  0.00    -0.390 OA
ATOM     29  C   LIG    1        4.818  -4.558  -2.850  0.00  0.00    +0.200 C 
ENDBRANCH  27  28
ENDBRANCH  25  27
ENDBRANCH   6  25
TORSDOF 8
