REMARK  Name = ZINCkj000005eDAU.0
REMARK                            x       y       z     vdW  Elec       q    Type
REMARK                         _______ _______ _______ _____ _____    ______ ____
ROOT
ATOM      1  N   LIG    1        1.261   2.031   0.051  0.00  0.00    -0.380 N 
ATOM      2  H   LIG    1        1.695   1.762  -0.820  0.00  0.00    +0.420 HD
ENDROOT
BRANCH   1   3
ATOM      3  C   LIG    1        2.077   1.551   1.174  0.00  0.00    +0.300 C 
BRANCH   3   5
ATOM      4  C   LIG    1        3.523  -0.410   1.016  0.00  0.00    +0.130 C 
ATOM      5  C   LIG    1        2.303   0.068   1.032  0.00  0.00    -0.100 C 
ENDBRANCH   3   5
ENDBRANCH   1   3
BRANCH   1   6
ATOM      6  C   LIG    1        1.155   3.495   0.113  0.00  0.00    +0.330 C 
BRANCH   6   7
ATOM      7  C   LIG    1        2.518   4.106  -0.093  0.00  0.00    -0.190 A 
ATOM      8  C   LIG    1        3.250   4.546   0.993  0.00  0.00    +0.070 A 
ATOM      9  C   LIG    1        4.502   5.101   0.805  0.00  0.00    +0.030 A 
ATOM     10  C   LIG    1        5.018   5.228  -0.471  0.00  0.00    +0.100 A 
ATOM     11  C   LIG    1        4.285   4.794  -1.560  0.00  0.00    +0.010 A 
ATOM     12  C   LIG    1        3.034   4.233  -1.372  0.00  0.00    +0.120 A 
ATOM     13  F   LIG    1        2.316   3.808  -2.435  0.00  0.00    -0.130 F 
ENDBRANCH   6   7
ENDBRANCH   1   6
BRANCH   1  14
ATOM     14  C   LIG    1       -0.081   1.440   0.132  0.00  0.00    +0.290 C 
BRANCH  14  15
ATOM     15  C   LIG    1       -0.884   1.824  -1.113  0.00  0.00    +0.070 C 
BRANCH  15  16
ATOM     16  C   LIG    1       -2.212   1.112  -1.093  0.00  0.00    +0.530 C 
ATOM     17  N   LIG    1       -3.092   1.299  -2.096  0.00  0.00    -0.690 N 
ATOM     18  H   LIG    1       -2.870   1.892  -2.832  0.00  0.00    +0.410 HD
ATOM     19  C   LIG    1       -4.280   0.663  -2.079  0.00  0.00    +0.700 C 
ATOM     20  O   LIG    1       -4.558  -0.079  -1.158  0.00  0.00    -0.530 OA
ATOM     21  N   LIG    1       -5.160   0.850  -3.083  0.00  0.00    -0.850 N 
ATOM     22  H   LIG    1       -6.015   0.393  -3.070  0.00  0.00    +0.430 HD
ATOM     23  H   LIG    1       -4.938   1.443  -3.818  0.00  0.00    +0.400 HD
ATOM     24  O   LIG    1       -2.490   0.371  -0.174  0.00  0.00    -0.460 OA
ENDBRANCH  15  16
ENDBRANCH  14  15
ENDBRANCH   1  14
TORSDOF 7
