REMARK  Name = ZINCkj000005eDAU.1
REMARK                            x       y       z     vdW  Elec       q    Type
REMARK                         _______ _______ _______ _____ _____    ______ ____
ROOT
ATOM      1  N   LIG    1        2.881   3.931  -1.309  0.00  0.00    -0.380 N 
ATOM      2  H   LIG    1        2.184   4.414  -1.855  0.00  0.00    +0.420 HD
ENDROOT
BRANCH   1   3
ATOM      3  C   LIG    1        3.106   2.594  -1.873  0.00  0.00    +0.290 C 
BRANCH   3   5
ATOM      4  C   LIG    1        1.397   1.380  -3.126  0.00  0.00    +0.130 C 
ATOM      5  C   LIG    1        1.791   1.863  -1.974  0.00  0.00    -0.110 C 
ENDBRANCH   3   5
ENDBRANCH   1   3
BRANCH   1   6
ATOM      6  C   LIG    1        2.415   3.805   0.079  0.00  0.00    +0.330 C 
BRANCH   6   7
ATOM      7  C   LIG    1        2.054   5.167   0.613  0.00  0.00    -0.190 A 
ATOM      8  C   LIG    1        2.891   5.802   1.511  0.00  0.00    +0.090 A 
ATOM      9  C   LIG    1        2.560   7.052   2.001  0.00  0.00    +0.030 A 
ATOM     10  C   LIG    1        1.395   7.670   1.589  0.00  0.00    +0.090 A 
ATOM     11  C   LIG    1        0.553   7.035   0.695  0.00  0.00    +0.000 A 
ATOM     12  C   LIG    1        0.883   5.784   0.204  0.00  0.00    +0.110 A 
ATOM     13  F   LIG    1        0.064   5.164  -0.674  0.00  0.00    -0.130 F 
ENDBRANCH   6   7
ENDBRANCH   1   6
BRANCH   1  14
ATOM     14  C   LIG    1        4.138   4.691  -1.336  0.00  0.00    +0.280 C 
BRANCH  14  15
ATOM     15  C   LIG    1        4.558   4.930  -2.787  0.00  0.00    +0.070 C 
BRANCH  15  16
ATOM     16  C   LIG    1        5.847   5.710  -2.815  0.00  0.00    +0.530 C 
ATOM     17  N   LIG    1        6.411   6.038  -3.995  0.00  0.00    -0.690 N 
ATOM     18  H   LIG    1        5.987   5.773  -4.825  0.00  0.00    +0.410 HD
ATOM     19  C   LIG    1        7.564   6.736  -4.019  0.00  0.00    +0.700 C 
ATOM     20  O   LIG    1        8.095   7.069  -2.978  0.00  0.00    -0.530 OA
ATOM     21  N   LIG    1        8.127   7.064  -5.199  0.00  0.00    -0.850 N 
ATOM     22  H   LIG    1        8.957   7.567  -5.217  0.00  0.00    +0.430 HD
ATOM     23  H   LIG    1        7.703   6.799  -6.030  0.00  0.00    +0.400 HD
ATOM     24  O   LIG    1        6.377   6.042  -1.777  0.00  0.00    -0.460 OA
ENDBRANCH  15  16
ENDBRANCH  14  15
ENDBRANCH   1  14
TORSDOF 7
