REMARK  Name = ZINCrD000000fO4Z.0
REMARK                            x       y       z     vdW  Elec       q    Type
REMARK                         _______ _______ _______ _____ _____    ______ ____
ROOT
ATOM      1  C   LIG    1       -2.889  -0.219   0.051  0.00  0.00    -0.020 C 
ATOM      2  C   LIG    1       -2.667  -0.836   1.433  0.00  0.00    +0.080 C 
ENDROOT
BRANCH   1   3
ATOM      3  C   LIG    1       -2.695   1.274   0.131  0.00  0.00    +0.440 C 
ATOM      4  O   LIG    1       -3.653   2.003   0.290  0.00  0.00    -0.430 OA
BRANCH   3   9
ATOM      5  C   LIG    1        0.322   3.260  -0.084  0.00  0.00    -0.260 A 
ATOM      6  C   LIG    1        0.805   1.968  -0.230  0.00  0.00    +0.130 A 
ATOM      7  N   LIG    1       -0.227   1.115  -0.163  0.00  0.00    -0.520 N 
ATOM      8  H   LIG    1       -0.162   0.150  -0.237  0.00  0.00    +0.420 HD
ATOM      9  C   LIG    1       -1.396   1.826   0.020  0.00  0.00    -0.100 A 
ATOM     10  C   LIG    1        2.249   1.587  -0.429  0.00  0.00    +0.160 C 
ATOM     11  C   LIG    1       -1.079   3.165   0.079  0.00  0.00    -0.010 A 
ATOM     12  C   LIG    1       -2.041   4.308   0.273  0.00  0.00    +0.140 C 
BRANCH   5  14
ATOM     13  C   LIG    1        1.274   5.275  -1.375  0.00  0.00    +0.070 C 
ATOM     14  C   LIG    1        1.115   4.494  -0.096  0.00  0.00    +0.440 C 
ATOM     15  O   LIG    1        1.645   4.885   0.923  0.00  0.00    -0.450 OA
ENDBRANCH   5  14
ENDBRANCH   3   9
ENDBRANCH   1   3
BRANCH   1  16
ATOM     16  S   LIG    1       -4.572  -0.579  -0.508  0.00  0.00    +0.070 S 
BRANCH  16  17
ATOM     17  C   LIG    1       -4.477  -2.333  -0.655  0.00  0.00    +0.150 A 
ATOM     18  N   LIG    1       -3.425  -3.081  -0.402  0.00  0.00    -0.290 NA
ATOM     19  N   LIG    1       -3.702  -4.318  -0.613  0.00  0.00    -0.250 NA
ATOM     20  C   LIG    1       -4.947  -4.436  -1.012  0.00  0.00    +0.220 A 
ATOM     21  N   LIG    1       -5.483  -3.168  -1.045  0.00  0.00    -0.450 N 
ATOM     22  C   LIG    1       -6.848  -2.794  -1.424  0.00  0.00    +0.350 C 
BRANCH  20  23
ATOM     23  C   LIG    1       -5.644  -5.693  -1.355  0.00  0.00    +0.030 A 
ATOM     24  C   LIG    1       -5.138  -6.932  -0.943  0.00  0.00    +0.020 A 
ATOM     25  C   LIG    1       -5.824  -8.079  -1.281  0.00  0.00    +0.280 A 
ATOM     26  N   LIG    1       -6.935  -8.021  -1.989  0.00  0.00    -0.480 NA
ATOM     27  C   LIG    1       -7.444  -6.875  -2.402  0.00  0.00    +0.270 A 
ATOM     28  C   LIG    1       -6.827  -5.679  -2.105  0.00  0.00    -0.030 A 
ENDBRANCH  20  23
ENDBRANCH  16  17
ENDBRANCH   1  16
TORSDOF 6
