REMARK  Name = ZINCrH000004tXcT.0
REMARK                            x       y       z     vdW  Elec       q    Type
REMARK                         _______ _______ _______ _____ _____    ______ ____
ROOT
ATOM      1  C   LIG    1       -0.014   1.209   0.009  0.00  0.00    +0.520 C 
ATOM      2  N   LIG    1       -1.191   1.867   0.018  0.00  0.00    -0.730 N 
ATOM      3  H   LIG    1       -1.204   2.837   0.023  0.00  0.00    +0.400 HD
ATOM      4  O   LIG    1        0.002  -0.004   0.002  0.00  0.00    -0.520 OA
ENDROOT
BRANCH   1   5
ATOM      5  C   LIG    1        1.280   1.980   0.001  0.00  0.00    +0.050 C 
BRANCH   5   6
ATOM      6  C   LIG    1        2.457   1.002  -0.016  0.00  0.00    +0.290 C 
BRANCH   6   9
ATOM      7  O   LIG    1        4.908  -0.119  -0.045  0.00  0.00    -0.520 OA
ATOM      8  C   LIG    1        4.891   1.093  -0.039  0.00  0.00    +0.510 C 
ATOM      9  N   LIG    1        3.715   1.751  -0.024  0.00  0.00    -0.740 N 
ATOM     10  H   LIG    1        3.702   2.721  -0.019  0.00  0.00    +0.400 HD
BRANCH   8  11
ATOM     11  C   LIG    1        6.186   1.865  -0.047  0.00  0.00    +0.100 C 
BRANCH  11  12
ATOM     12  C   LIG    1        7.345   0.901  -0.063  0.00  0.00    -0.070 A 
ATOM     13  C   LIG    1        7.891   0.457   1.126  0.00  0.00    +0.010 A 
ATOM     14  C   LIG    1        8.951  -0.431   1.111  0.00  0.00    +0.000 A 
ATOM     15  C   LIG    1        9.471  -0.866  -0.093  0.00  0.00    +0.000 A 
ATOM     16  C   LIG    1        8.928  -0.418  -1.283  0.00  0.00    +0.000 A 
ATOM     17  C   LIG    1        7.865   0.465  -1.268  0.00  0.00    +0.010 A 
ENDBRANCH  11  12
ENDBRANCH   8  11
ENDBRANCH   6   9
ENDBRANCH   5   6
ENDBRANCH   1   5
BRANCH   2  18
ATOM     18  C   LIG    1       -2.449   1.117   0.020  0.00  0.00    +0.370 C 
BRANCH  18  19
ATOM     19  C   LIG    1       -3.537   1.963   0.630  0.00  0.00    -0.090 A 
ATOM     20  C   LIG    1       -3.600   3.315   0.349  0.00  0.00    +0.010 A 
ATOM     21  C   LIG    1       -4.600   4.090   0.906  0.00  0.00    +0.020 A 
ATOM     22  C   LIG    1       -5.532   3.515   1.750  0.00  0.00    +0.020 A 
ATOM     23  C   LIG    1       -5.465   2.164   2.035  0.00  0.00    +0.020 A 
ATOM     24  C   LIG    1       -4.468   1.388   1.475  0.00  0.00    +0.030 A 
ENDBRANCH  18  19
BRANCH  18  25
ATOM     25  C   LIG    1       -2.824   0.761  -1.396  0.00  0.00    -0.190 A 
ATOM     26  C   LIG    1       -3.341  -0.406  -1.784  0.00  0.00    +0.020 A 
ATOM     27  C   LIG    1       -3.609  -0.503  -3.139  0.00  0.00    +0.010 A 
ATOM     28  C   LIG    1       -3.301   0.582  -3.852  0.00  0.00    -0.050 A 
ATOM     29  S   LIG    1       -2.641   1.818  -2.789  0.00  0.00    +0.100 S 
ENDBRANCH  18  25
ENDBRANCH   2  18
TORSDOF 8
