REMARK  Name = ZINCpe000000YZtE.0
REMARK                            x       y       z     vdW  Elec       q    Type
REMARK                         _______ _______ _______ _____ _____    ______ ____
ROOT
ATOM      1  O   LIG    1        1.135   3.726   2.780  0.00  0.00    -0.510 OA
ATOM      2  C   LIG    1        1.462   2.719   3.371  0.00  0.00    +0.520 C 
ATOM      3  N   LIG    1        2.627   2.683   4.049  0.00  0.00    -0.620 N 
ATOM      4  C   LIG    1        3.191   1.553   4.824  0.00  0.00    +0.280 C 
ATOM      5  C   LIG    1        3.829   2.212   6.070  0.00  0.00    +0.000 C 
ATOM      6  C   LIG    1        4.115   3.653   5.637  0.00  0.00    -0.140 C 
ATOM      7  C   LIG    1        5.531   4.163   5.908  0.00  0.00    +0.240 C 
ATOM      8  O   LIG    1        4.882   5.394   6.292  0.00  0.00    -0.370 OA
ATOM      9  C   LIG    1        3.627   4.745   6.589  0.00  0.00    +0.240 C 
ATOM     10  C   LIG    1        3.634   3.765   4.182  0.00  0.00    +0.300 C 
ENDROOT
BRANCH   5  11
ATOM     11  C   LIG    1        5.128   1.496   6.446  0.00  0.00    +0.190 C 
BRANCH  11  12
ATOM     12  O   LIG    1        4.832   0.168   6.880  0.00  0.00    -0.570 OA
ATOM     13  H   LIG    1        5.611  -0.346   7.135  0.00  0.00    +0.390 HD
ENDBRANCH  11  12
ENDBRANCH   5  11
BRANCH   2  14
ATOM     14  C   LIG    1        0.567   1.507   3.347  0.00  0.00    +0.380 C 
BRANCH  14  15
ATOM     15  N   LIG    1       -0.627   1.797   2.549  0.00  0.00    -0.320 N 
ATOM     16  N   LIG    1       -1.828   2.333   3.029  0.00  0.00    -0.220 NA
ATOM     17  C   LIG    1       -2.659   2.449   2.018  0.00  0.00    +0.010 A 
ATOM     18  C   LIG    1       -2.009   1.989   0.864  0.00  0.00    -0.210 A 
ATOM     19  C   LIG    1       -2.221   1.786  -0.621  0.00  0.00    +0.110 C 
ATOM     20  C   LIG    1       -0.802   1.619  -1.208  0.00  0.00    +0.060 C 
ATOM     21  C   LIG    1       -0.013   1.086   0.008  0.00  0.00    +0.120 C 
ATOM     22  C   LIG    1       -0.763   1.595   1.219  0.00  0.00    +0.070 A 
BRANCH  17  23
ATOM     23  C   LIG    1       -4.066   2.984   2.086  0.00  0.00    +0.560 C 
ATOM     24  F   LIG    1       -4.394   3.588   0.868  0.00  0.00    -0.160 F 
ATOM     25  F   LIG    1       -4.157   3.927   3.115  0.00  0.00    -0.170 F 
ATOM     26  F   LIG    1       -4.953   1.931   2.338  0.00  0.00    -0.170 F 
ENDBRANCH  17  23
ENDBRANCH  14  15
ENDBRANCH   2  14
TORSDOF 5
