REMARK  Name = ZINCpe00000gLGZp.0
REMARK                            x       y       z     vdW  Elec       q    Type
REMARK                         _______ _______ _______ _____ _____    ______ ____
ROOT
ATOM      1  C   LIG    1       -6.247   2.864   4.059  0.00  0.00    +0.540 C 
ATOM      2  N   LIG    1       -5.148   3.252   3.383  0.00  0.00    -0.610 N 
ATOM      3  C   LIG    1       -5.004   4.635   2.904  0.00  0.00    +0.300 C 
ATOM      4  C   LIG    1       -4.643   4.601   1.415  0.00  0.00    +0.170 C 
ATOM      5  N   LIG    1       -3.461   3.750   1.221  0.00  0.00    -0.530 NA
ATOM      6  C   LIG    1       -3.736   2.359   1.606  0.00  0.00    +0.170 C 
ATOM      7  C   LIG    1       -4.060   2.302   3.103  0.00  0.00    +0.270 C 
ATOM      8  O   LIG    1       -7.177   3.631   4.194  0.00  0.00    -0.520 OA
ENDROOT
BRANCH   1  16
ATOM      9  C   LIG    1       -9.407   0.577   2.545  0.00  0.00    +0.100 C 
ATOM     10  C   LIG    1       -8.158   1.266   3.031  0.00  0.00    +0.510 C 
ATOM     11  N   LIG    1       -7.471   0.759   4.074  0.00  0.00    -0.610 N 
ATOM     12  C   LIG    1       -7.849  -0.530   4.675  0.00  0.00    +0.250 C 
ATOM     13  C   LIG    1       -7.968  -0.341   6.191  0.00  0.00    +0.210 C 
ATOM     14  O   LIG    1       -6.770   0.264   6.685  0.00  0.00    -0.370 OA
ATOM     15  C   LIG    1       -6.515   1.570   6.163  0.00  0.00    +0.240 C 
ATOM     16  C   LIG    1       -6.322   1.478   4.645  0.00  0.00    +0.190 C 
ATOM     17  O   LIG    1       -7.771   2.277   2.484  0.00  0.00    -0.510 OA
ENDBRANCH   1  16
BRANCH   5  18
ATOM     18  C   LIG    1       -2.980   3.827  -0.165  0.00  0.00    +0.230 C 
BRANCH  18  19
ATOM     19  C   LIG    1       -1.674   3.084  -0.285  0.00  0.00    -0.080 A 
ATOM     20  C   LIG    1       -1.649   1.817  -0.837  0.00  0.00    +0.010 A 
ATOM     21  C   LIG    1       -0.451   1.135  -0.946  0.00  0.00    -0.010 A 
ATOM     22  C   LIG    1        0.721   1.720  -0.505  0.00  0.00    +0.010 A 
ATOM     23  C   LIG    1        0.695   2.988   0.046  0.00  0.00    +0.000 A 
ATOM     24  C   LIG    1       -0.503   3.668   0.160  0.00  0.00    -0.060 A 
ATOM     25  C   LIG    1       -0.532   5.047   0.766  0.00  0.00    +0.100 C 
ENDBRANCH  18  19
ENDBRANCH   5  18
TORSDOF 3
