REMARK  Name = ZINCtV000002xCaY.0
REMARK                            x       y       z     vdW  Elec       q    Type
REMARK                         _______ _______ _______ _____ _____    ______ ____
ROOT
ATOM      1  C   LIG    1       -3.046   1.540   0.542  0.00  0.00    +0.320 C 
ENDROOT
BRANCH   1   2
ATOM      2  C   LIG    1       -4.318   0.736   0.621  0.00  0.00    +0.020 A 
ATOM      3  C   LIG    1       -5.333   0.954   1.480  0.00  0.00    -0.040 A 
ATOM      4  C   LIG    1       -6.317  -0.020   1.212  0.00  0.00    +0.000 A 
ATOM      5  C   LIG    1       -5.839  -0.791   0.199  0.00  0.00    -0.000 A 
ATOM      6  O   LIG    1       -4.626  -0.321  -0.149  0.00  0.00    -0.150 OA
BRANCH   5   7
ATOM      7  C   LIG    1       -6.530  -1.944  -0.413  0.00  0.00    +0.050 A 
ATOM      8  C   LIG    1       -6.654  -2.032  -1.800  0.00  0.00    +0.080 A 
ATOM      9  C   LIG    1       -7.301  -3.112  -2.365  0.00  0.00    +0.120 A 
ATOM     10  C   LIG    1       -7.826  -4.107  -1.561  0.00  0.00    -0.030 A 
ATOM     11  C   LIG    1       -7.707  -4.027  -0.184  0.00  0.00    +0.130 A 
ATOM     12  C   LIG    1       -7.058  -2.955   0.394  0.00  0.00    -0.020 A 
ATOM     13 CL   LIG    1       -6.904  -2.860   2.121  0.00  0.00    -0.020 Cl
BRANCH  10  14
ATOM     14  N   LIG    1       -8.518  -5.263  -2.175  0.00  0.00    +0.020 N 
ATOM     15  O   LIG    1       -8.981  -6.141  -1.469  0.00  0.00    -0.150 OA
ATOM     16  O   LIG    1       -8.624  -5.336  -3.386  0.00  0.00    -0.150 OA
ENDBRANCH  10  14
ENDBRANCH   5   7
ENDBRANCH   1   2
BRANCH   1  17
ATOM     17  N   LIG    1       -2.041   0.956   1.440  0.00  0.00    -0.680 NA
ATOM     18  H   LIG    1       -2.358   0.972   2.398  0.00  0.00    +0.350 HD
BRANCH  17  19
ATOM     19  C   LIG    1       -0.749   1.641   1.301  0.00  0.00    +0.250 C 
BRANCH  19  20
ATOM     20  C   LIG    1        0.032   1.506   2.582  0.00  0.00    +0.040 A 
ATOM     21  N   LIG    1        0.671   2.465   3.162  0.00  0.00    -0.440 NA
ATOM     22  C   LIG    1        1.301   2.176   4.283  0.00  0.00    -0.020 A 
ATOM     23  C   LIG    1        1.195   0.900   4.665  0.00  0.00    -0.010 A 
ATOM     24  S   LIG    1        0.205   0.058   3.475  0.00  0.00    +0.230 S 
BRANCH  22  25
ATOM     25  C   LIG    1        2.083   3.200   5.066  0.00  0.00    +0.550 C 
ATOM     26  F   LIG    1        1.210   4.175   5.559  0.00  0.00    -0.170 F 
ATOM     27  F   LIG    1        3.031   3.801   4.232  0.00  0.00    -0.170 F 
ATOM     28  F   LIG    1        2.732   2.572   6.135  0.00  0.00    -0.170 F 
ENDBRANCH  22  25
ENDBRANCH  19  20
BRANCH  19  30
ATOM     29  C   LIG    1        1.327   1.807  -0.079  0.00  0.00    +0.020 C 
ATOM     30  C   LIG    1        0.042   1.010   0.153  0.00  0.00    +0.040 C 
ENDBRANCH  19  30
ENDBRANCH  17  19
ENDBRANCH   1  17
TORSDOF 8
