REMARK  Name = ZINCrD000006V4l6.0
REMARK                            x       y       z     vdW  Elec       q    Type
REMARK                         _______ _______ _______ _____ _____    ______ ____
ROOT
ATOM      1  C   LIG    1        4.844   3.201   0.373  0.00  0.00    -0.060 A 
ATOM      2  C   LIG    1        5.790   2.672   1.255  0.00  0.00    +0.060 A 
ATOM      3  C   LIG    1        5.475   1.583   2.036  0.00  0.00    +0.110 A 
ATOM      4  C   LIG    1        4.207   1.002   1.950  0.00  0.00    -0.130 A 
ATOM      5  C   LIG    1        3.255   1.531   1.066  0.00  0.00    +0.210 A 
ATOM      6  C   LIG    1        3.579   2.625   0.277  0.00  0.00    +0.090 A 
ENDROOT
BRANCH   5   7
ATOM      7  N   LIG    1        1.990   0.955   0.976  0.00  0.00    -0.660 N 
ATOM      8  H   LIG    1        1.567   0.587   1.768  0.00  0.00    +0.430 HD
ATOM      9  C   LIG    1        1.353   0.909  -0.210  0.00  0.00    +0.510 C 
ATOM     10  O   LIG    1        1.920   1.276  -1.218  0.00  0.00    -0.480 OA
BRANCH   9  11
ATOM     11  C   LIG    1       -0.065   0.402  -0.286  0.00  0.00    +0.180 C 
ATOM     12  C   LIG    1       -0.987   1.350   0.483  0.00  0.00    +0.070 C 
BRANCH  11  13
ATOM     13  O   LIG    1       -0.476   0.341  -1.653  0.00  0.00    -0.270 OA
BRANCH  13  14
ATOM     14  C   LIG    1       -1.323  -0.665  -1.998  0.00  0.00    +0.140 A 
ATOM     15  C   LIG    1       -1.847  -1.498  -1.021  0.00  0.00    -0.060 A 
ATOM     16  C   LIG    1       -2.713  -2.516  -1.373  0.00  0.00    +0.060 A 
ATOM     17  C   LIG    1       -3.048  -2.712  -2.700  0.00  0.00    +0.000 A 
ATOM     18  C   LIG    1       -2.524  -1.886  -3.677  0.00  0.00    +0.070 A 
ATOM     19  C   LIG    1       -1.662  -0.863  -3.330  0.00  0.00    -0.070 A 
ATOM     20 CL   LIG    1       -1.004   0.174  -4.557  0.00  0.00    -0.050 Cl
ENDBRANCH  13  14
ENDBRANCH  11  13
ENDBRANCH   9  11
ENDBRANCH   5   7
BRANCH   1  21
ATOM     21  C   LIG    1        5.188   4.371  -0.464  0.00  0.00    +0.500 C 
ATOM     22  O   LIG    1        4.367   4.832  -1.231  0.00  0.00    -0.490 OA
BRANCH  21  24
ATOM     23  C   LIG    1        6.679   6.072  -1.226  0.00  0.00    +0.290 C 
ATOM     24  O   LIG    1        6.412   4.926  -0.375  0.00  0.00    -0.350 OA
ENDBRANCH  21  24
ENDBRANCH   1  21
BRANCH   4  25
ATOM     25  C   LIG    1        3.870  -0.165   2.788  0.00  0.00    +0.520 C 
ATOM     26  O   LIG    1        2.742  -0.614   2.778  0.00  0.00    -0.510 OA
BRANCH  25  27
ATOM     27  O   LIG    1        4.815  -0.733   3.563  0.00  0.00    -0.350 OA
ATOM     28  C   LIG    1        4.412  -1.878   4.361  0.00  0.00    +0.290 C 
ENDBRANCH  25  27
ENDBRANCH   4  25
TORSDOF 8
