REMARK  Name = ZINCpe00000yuU3T.1
REMARK                            x       y       z     vdW  Elec       q    Type
REMARK                         _______ _______ _______ _____ _____    ______ ____
ROOT
ATOM      1  N   LIG    1       -3.406   3.170   0.033  0.00  0.00    -0.730 N 
ATOM      2  H   LIG    1       -3.075   4.082   0.036  0.00  0.00    +0.400 HD
ATOM      3  C   LIG    1       -2.539   2.138   0.024  0.00  0.00    +0.590 C 
ATOM      4  O   LIG    1       -2.955   0.995   0.019  0.00  0.00    -0.530 OA
ENDROOT
BRANCH   3   5
ATOM      5  C   LIG    1       -1.092   2.394   0.019  0.00  0.00    -0.220 A 
ATOM      6  C   LIG    1       -0.478   3.611   0.026  0.00  0.00    +0.290 A 
ATOM      7  N   LIG    1        0.867   3.447   0.012  0.00  0.00    -0.570 N 
ATOM      8  H   LIG    1        1.512   4.171   0.010  0.00  0.00    +0.430 HD
ATOM      9  C   LIG    1        1.189   2.108   0.002  0.00  0.00    +0.110 A 
ATOM     10  C   LIG    1        2.402   1.423  -0.014  0.00  0.00    +0.010 A 
ATOM     11  C   LIG    1        2.421   0.059  -0.021  0.00  0.00    +0.090 A 
ATOM     12  C   LIG    1        1.225  -0.672  -0.013  0.00  0.00    -0.050 A 
ATOM     13  C   LIG    1        0.002  -0.004   0.002  0.00  0.00    +0.150 A 
ATOM     14  C   LIG    1       -0.017   1.385   0.010  0.00  0.00    -0.070 A 
BRANCH  12  15
ATOM     15  C   LIG    1        1.260  -2.103  -0.022  0.00  0.00    +0.260 C 
ATOM     16  N   LIG    1        1.287  -3.239  -0.029  0.00  0.00    -0.420 NA
ENDBRANCH  12  15
ENDBRANCH   3   5
BRANCH   1  17
ATOM     17  C   LIG    1       -4.848   2.915   0.037  0.00  0.00    +0.310 C 
BRANCH  17  20
ATOM     18  C   LIG    1       -7.126   4.195   0.170  0.00  0.00    +0.240 C 
ATOM     19  C   LIG    1       -6.477   4.573  -1.164  0.00  0.00    +0.030 C 
ATOM     20  C   LIG    1       -5.602   4.247   0.048  0.00  0.00    -0.070 C 
BRANCH  18  22
ATOM     21  C   LIG    1       -8.982   5.045   1.501  0.00  0.00    +0.520 C 
ATOM     22  N   LIG    1       -7.780   5.263   0.929  0.00  0.00    -0.710 N 
ATOM     23  H   LIG    1       -7.349   6.127   1.022  0.00  0.00    +0.400 HD
ATOM     24  O   LIG    1       -9.521   3.965   1.386  0.00  0.00    -0.510 OA
BRANCH  21  25
ATOM     25  C   LIG    1       -9.655   6.144   2.283  0.00  0.00    +0.220 C 
BRANCH  25  27
ATOM     26  C   LIG    1      -10.742   4.595   3.792  0.00  0.00    +0.200 C 
ATOM     27  N   LIG    1      -10.941   5.660   2.800  0.00  0.00    -0.530 NA
ATOM     28  C   LIG    1      -11.732   6.763   3.361  0.00  0.00    +0.190 C 
ENDBRANCH  25  27
ENDBRANCH  21  25
ENDBRANCH  18  22
ENDBRANCH  17  20
ENDBRANCH   1  17
TORSDOF 7
