REMARK  Name = ZINCvU00000005EB.0
REMARK                            x       y       z     vdW  Elec       q    Type
REMARK                         _______ _______ _______ _____ _____    ______ ____
ROOT
ATOM      1  C   LIG    1        5.787   1.766  -0.131  0.00  0.00    +0.140 A 
ATOM      2  N   LIG    1        5.598   0.479   0.058  0.00  0.00    -0.290 NA
ATOM      3  N   LIG    1        4.341   0.212   0.056  0.00  0.00    -0.240 NA
ATOM      4  C   LIG    1        3.650   1.312  -0.133  0.00  0.00    +0.220 A 
ATOM      5  N   LIG    1        4.554   2.340  -0.264  0.00  0.00    -0.450 N 
ENDROOT
BRANCH   4   6
ATOM      6  C   LIG    1        2.177   1.423  -0.200  0.00  0.00    -0.010 A 
ATOM      7  C   LIG    1        1.585   2.514  -0.837  0.00  0.00    +0.030 A 
ATOM      8  C   LIG    1        0.210   2.612  -0.896  0.00  0.00    +0.030 A 
ATOM      9  C   LIG    1       -0.582   1.632  -0.325  0.00  0.00    +0.050 A 
ATOM     10  C   LIG    1       -0.003   0.545   0.304  0.00  0.00    +0.030 A 
ATOM     11  C   LIG    1        1.372   0.437   0.375  0.00  0.00    -0.000 A 
ATOM     12 CL   LIG    1        2.098  -0.925   1.170  0.00  0.00    -0.030 Cl
ENDBRANCH   4   6
BRANCH   1  13
ATOM     13  S   LIG    1        7.339   2.595  -0.204  0.00  0.00    +0.090 S 
BRANCH  13  14
ATOM     14  C   LIG    1        8.457   1.193   0.046  0.00  0.00    +0.110 C 
BRANCH  14  17
ATOM     15  C   LIG    1       10.613  -0.632   0.291  0.00  0.00    +0.300 C 
ATOM     16  N   LIG    1       10.895   0.802   0.187  0.00  0.00    -0.570 N 
ATOM     17  C   LIG    1        9.883   1.677   0.020  0.00  0.00    +0.540 C 
ATOM     18  O   LIG    1       10.122   2.854  -0.150  0.00  0.00    -0.510 OA
BRANCH  16  19
ATOM     19  C   LIG    1       12.214   1.263   0.260  0.00  0.00    +0.140 A 
ATOM     20  C   LIG    1       13.115   0.959  -0.752  0.00  0.00    +0.010 A 
ATOM     21  C   LIG    1       14.415   1.420  -0.679  0.00  0.00    +0.020 A 
ATOM     22  C   LIG    1       14.822   2.174   0.406  0.00  0.00    +0.010 A 
ATOM     23  C   LIG    1       13.929   2.474   1.418  0.00  0.00    +0.020 A 
ATOM     24  C   LIG    1       12.627   2.020   1.349  0.00  0.00    +0.010 A 
ENDBRANCH  16  19
ENDBRANCH  14  17
ENDBRANCH  13  14
ENDBRANCH   1  13
BRANCH   5  25
ATOM     25  C   LIG    1        4.258   3.756  -0.494  0.00  0.00    +0.370 C 
BRANCH  25  26
ATOM     26  C   LIG    1        4.364   4.058  -1.967  0.00  0.00    -0.130 A 
ATOM     27  C   LIG    1        5.571   3.891  -2.621  0.00  0.00    +0.040 A 
ATOM     28  C   LIG    1        5.667   4.163  -3.973  0.00  0.00    +0.020 A 
ATOM     29  C   LIG    1        4.560   4.613  -4.668  0.00  0.00    +0.020 A 
ATOM     30  C   LIG    1        3.355   4.786  -4.012  0.00  0.00    +0.010 A 
ATOM     31  C   LIG    1        3.258   4.508  -2.662  0.00  0.00    +0.020 A 
ENDBRANCH  25  26
ENDBRANCH   5  25
TORSDOF 7
