REMARK  Name = ZINCqH0000007iAX.0
REMARK                            x       y       z     vdW  Elec       q    Type
REMARK                         _______ _______ _______ _____ _____    ______ ____
ROOT
ATOM      1  C   LIG    1        4.028  -4.520  -0.376  0.00  0.00    -0.220 A 
ATOM      2  C   LIG    1        4.867  -4.786   0.652  0.00  0.00    +0.110 A 
ATOM      3  N   LIG    1        6.023  -5.253   0.129  0.00  0.00    -0.330 N 
ATOM      4  N   LIG    1        5.888  -5.274  -1.265  0.00  0.00    -0.290 NA
ATOM      5  C   LIG    1        4.567  -4.595   2.116  0.00  0.00    +0.150 C 
ATOM      6  C   LIG    1        4.690  -4.840  -1.566  0.00  0.00    +0.100 A 
ATOM      7  C   LIG    1        4.123  -4.704  -2.956  0.00  0.00    +0.160 C 
ENDROOT
BRANCH   3   8
ATOM      8  C   LIG    1        7.157  -5.646   0.854  0.00  0.00    +0.160 A 
ATOM      9  C   LIG    1        8.424  -5.291   0.410  0.00  0.00    +0.050 A 
ATOM     10  C   LIG    1        9.539  -5.675   1.128  0.00  0.00    +0.050 A 
ATOM     11  C   LIG    1        9.395  -6.423   2.284  0.00  0.00    -0.040 A 
ATOM     12  C   LIG    1        8.134  -6.783   2.725  0.00  0.00    +0.060 A 
ATOM     13 CL   LIG    1       10.799  -6.910   3.181  0.00  0.00    -0.060 Cl
ATOM     14  C   LIG    1        7.016  -6.397   2.013  0.00  0.00    +0.030 A 
ENDBRANCH   3   8
BRANCH   1  15
ATOM     15  C   LIG    1        2.625  -3.981  -0.259  0.00  0.00    +0.150 C 
BRANCH  15  18
ATOM     16  N   LIG    1        1.516  -1.771  -0.197  0.00  0.00    -0.670 N 
ATOM     17  H   LIG    1        0.677  -2.229  -0.037  0.00  0.00    +0.410 HD
ATOM     18  C   LIG    1        2.662  -2.475  -0.288  0.00  0.00    +0.510 C 
ATOM     19  O   LIG    1        3.723  -1.896  -0.394  0.00  0.00    -0.510 OA
BRANCH  16  23
ATOM     20  C   LIG    1        1.519   2.340  -0.543  0.00  0.00    +0.310 A 
ATOM     21  C   LIG    1        2.442   1.615  -1.286  0.00  0.00    -0.020 A 
ATOM     22  C   LIG    1        2.457   0.236  -1.183  0.00  0.00    +0.110 A 
ATOM     23  C   LIG    1        1.538  -0.376  -0.333  0.00  0.00    +0.060 A 
ATOM     24  C   LIG    1        0.646   0.413   0.378  0.00  0.00    +0.280 A 
ATOM     25  N   LIG    1        0.661   1.726   0.254  0.00  0.00    -0.520 NA
BRANCH  20  27
ATOM     26  C   LIG    1        0.525   4.383   0.152  0.00  0.00    +0.260 C 
ATOM     27  O   LIG    1        1.497   3.694  -0.637  0.00  0.00    -0.310 OA
ENDBRANCH  20  27
ENDBRANCH  16  23
ENDBRANCH  15  18
ENDBRANCH   1  15
TORSDOF 5
