REMARK  Name = ZINCvU0000000EtC.0
REMARK                            x       y       z     vdW  Elec       q    Type
REMARK                         _______ _______ _______ _____ _____    ______ ____
ROOT
ATOM      1  O   LIG    1        2.130   5.362   0.092  0.00  0.00    -0.560 OA
ATOM      2  C   LIG    1        1.065   5.947   0.098  0.00  0.00    +0.710 C 
ATOM      3  N   LIG    1        1.034   7.290   0.212  0.00  0.00    -0.730 N 
ATOM      4  H   LIG    1        0.184   7.757   0.217  0.00  0.00    +0.400 HD
ATOM      5  N   LIG    1       -0.086   5.254  -0.010  0.00  0.00    -0.680 N 
ATOM      6  H   LIG    1       -0.932   5.724  -0.069  0.00  0.00    +0.410 HD
ENDROOT
BRANCH   5   7
ATOM      7  C   LIG    1       -0.059   3.854  -0.036  0.00  0.00    +0.180 A 
ATOM      8  C   LIG    1        0.993   3.192  -0.649  0.00  0.00    +0.060 A 
ATOM      9  C   LIG    1        1.014   1.799  -0.673  0.00  0.00    -0.020 A 
ATOM     10  C   LIG    1       -0.021   1.079  -0.082  0.00  0.00    +0.030 A 
ATOM     11  C   LIG    1       -1.069   1.745   0.522  0.00  0.00    +0.050 A 
ATOM     12  C   LIG    1       -1.089   3.127   0.551  0.00  0.00    -0.070 A 
ATOM     13 CL   LIG    1       -2.407   3.958   1.319  0.00  0.00    -0.060 Cl
BRANCH   9  14
ATOM     14  C   LIG    1        2.138   1.085  -1.328  0.00  0.00    -0.050 A 
ATOM     15  C   LIG    1        3.171   1.804  -1.925  0.00  0.00    +0.030 A 
ATOM     16  C   LIG    1        4.217   1.134  -2.527  0.00  0.00    +0.010 A 
ATOM     17  C   LIG    1        4.235  -0.249  -2.549  0.00  0.00    +0.010 A 
ATOM     18  C   LIG    1        3.208  -0.968  -1.964  0.00  0.00    +0.010 A 
ATOM     19  C   LIG    1        2.161  -0.308  -1.353  0.00  0.00    +0.020 A 
ENDBRANCH   9  14
ENDBRANCH   5   7
BRANCH   3  20
ATOM     20  C   LIG    1        2.284   8.044   0.330  0.00  0.00    +0.290 C 
ATOM     21  C   LIG    1        2.783   8.508  -1.058  0.00  0.00    +0.080 C 
ATOM     22  C   LIG    1        2.207   9.899  -1.213  0.00  0.00    +0.520 C 
ATOM     23  N   LIG    1        1.802  10.367  -0.019  0.00  0.00    -0.560 N 
ATOM     24  O   LIG    1        2.125  10.504  -2.260  0.00  0.00    -0.500 OA
ATOM     25  C   LIG    1        2.052   9.391   1.048  0.00  0.00    +0.290 C 
BRANCH  23  26
ATOM     26  C   LIG    1        1.216  11.622   0.179  0.00  0.00    +0.200 A 
ATOM     27  C   LIG    1        0.919  12.431  -0.910  0.00  0.00    +0.010 A 
ATOM     28  C   LIG    1        0.336  13.668  -0.713  0.00  0.00    +0.100 A 
ATOM     29  C   LIG    1        0.057  14.107   0.569  0.00  0.00    -0.100 A 
ATOM     30  C   LIG    1        0.358  13.304   1.659  0.00  0.00    +0.140 A 
ATOM     31  F   LIG    1        0.085  13.735   2.910  0.00  0.00    -0.120 F 
ATOM     32 CL   LIG    1       -0.670  15.664   0.813  0.00  0.00    -0.050 Cl
ATOM     33  C   LIG    1        0.936  12.063   1.466  0.00  0.00    -0.040 A 
ENDBRANCH  23  26
ENDBRANCH   3  20
TORSDOF 4
