REMARK  Name = ZINCkj000005f5JU.0
REMARK                            x       y       z     vdW  Elec       q    Type
REMARK                         _______ _______ _______ _____ _____    ______ ____
ROOT
ATOM      1  C   LIG    1        1.636   1.337  -4.380  0.00  0.00    +0.480 C 
ATOM      2  O   LIG    1        2.461   2.164  -4.043  0.00  0.00    -0.610 OA
ENDROOT
BRANCH   1   8
ATOM      3  C   LIG    1        4.209   0.923  -8.073  0.00  0.00    +0.200 A 
ATOM      4  C   LIG    1        3.071   0.382  -7.586  0.00  0.00    -0.080 A 
ATOM      5  C   LIG    1        2.802   0.972  -6.335  0.00  0.00    +0.480 A 
ATOM      6  N   LIG    1        3.801   1.881  -6.089  0.00  0.00    -0.480 N 
ATOM      7  H   LIG    1        3.885   2.446  -5.305  0.00  0.00    +0.460 HD
ATOM      8  N   LIG    1        1.766   0.702  -5.540  0.00  0.00    -0.650 NA
ATOM      9  N   LIG    1        4.680   1.839  -7.180  0.00  0.00    -0.480 N 
ATOM     10  H   LIG    1        5.484   2.372  -7.283  0.00  0.00    +0.450 HD
BRANCH   3  11
ATOM     11  C   LIG    1        4.854   0.572  -9.390  0.00  0.00    +0.130 C 
BRANCH  11  13
ATOM     12  C   LIG    1        5.145   1.284 -11.767  0.00  0.00    +0.030 C 
ATOM     13  C   LIG    1        4.397   1.564 -10.461  0.00  0.00    -0.020 C 
ATOM     14  C   LIG    1        2.893   1.408 -10.693  0.00  0.00    +0.020 C 
ENDBRANCH  11  13
ENDBRANCH   3  11
ENDBRANCH   1   8
BRANCH   1  15
ATOM     15  C   LIG    1        0.465   1.032  -3.481  0.00  0.00    +0.080 C 
BRANCH  15  16
ATOM     16  C   LIG    1        0.552   1.893  -2.220  0.00  0.00    -0.010 C 
ATOM     17  C   LIG    1        1.778   1.488  -1.371  0.00  0.00    +0.240 C 
ATOM     18  O   LIG    1        1.334   1.607  -0.002  0.00  0.00    -0.390 OA
ATOM     19  C   LIG    1       -0.013   1.086   0.008  0.00  0.00    +0.130 C 
ATOM     20  C   LIG    1       -0.653   1.622  -1.292  0.00  0.00    +0.050 C 
BRANCH  19  21
ATOM     21  C   LIG    1       -0.774   1.600   1.232  0.00  0.00    +0.290 C 
BRANCH  21  22
ATOM     22  N   LIG    1       -0.124   1.109   2.454  0.00  0.00    -0.640 N 
ATOM     23  H   LIG    1       -0.129   0.101   2.455  0.00  0.00    +0.430 HD
ATOM     24  H   LIG    1       -0.626   1.449   3.261  0.00  0.00    +0.440 HD
ATOM     25  H   LIG    1        0.828   1.442   2.486  0.00  0.00    +0.440 HD
ENDBRANCH  21  22
ENDBRANCH  19  21
ENDBRANCH  15  16
ENDBRANCH   1  15
TORSDOF 7
