REMARK  Name = ZINCqH0000037xug.0
REMARK                            x       y       z     vdW  Elec       q    Type
REMARK                         _______ _______ _______ _____ _____    ______ ____
ROOT
ATOM      1  C   LIG    1        2.789   0.998   2.186  0.00  0.00    +0.040 C 
ATOM      2  C   LIG    1        2.952   0.344   0.812  0.00  0.00    -0.000 C 
ATOM      3  C   LIG    1        2.523   1.232  -0.296  0.00  0.00    +0.020 C 
ATOM      4  C   LIG    1        1.337   2.164   0.008  0.00  0.00    +0.020 C 
ATOM      5  C   LIG    1       -0.011   1.410   0.006  0.00  0.00    +0.240 C 
ATOM      6  N   LIG    1        0.004  -0.005   0.003  0.00  0.00    -0.590 N 
ATOM      7  C   LIG    1        0.714  -0.829   1.022  0.00  0.00    +0.300 C 
ATOM      8  C   LIG    1       -0.679  -0.655  -0.986  0.00  0.00    +0.560 C 
ATOM      9  O   LIG    1       -0.605  -1.865  -1.083  0.00  0.00    -0.510 OA
ATOM     10  C   LIG    1        2.118  -0.927   0.719  0.00  0.00    +0.010 C 
ENDROOT
BRANCH   8  11
ATOM     11  C   LIG    1       -1.507   0.112  -1.938  0.00  0.00    -0.090 A 
ATOM     12  C   LIG    1       -2.502   0.972  -1.469  0.00  0.00    +0.070 A 
ATOM     13  C   LIG    1       -3.272   1.691  -2.360  0.00  0.00    +0.050 A 
ATOM     14  C   LIG    1       -3.073   1.560  -3.723  0.00  0.00    +0.060 A 
ATOM     15  C   LIG    1       -2.092   0.706  -4.204  0.00  0.00    +0.070 A 
ATOM     16  N   LIG    1       -1.664   0.368  -5.488  0.00  0.00    -0.650 N 
ATOM     17  H   LIG    1       -2.022   0.712  -6.321  0.00  0.00    +0.450 HD
ATOM     18  C   LIG    1       -0.663  -0.525  -5.358  0.00  0.00    +0.640 A 
ATOM     19  O   LIG    1       -0.054  -1.036  -6.278  0.00  0.00    -0.480 OA
ATOM     20  O   LIG    1       -0.443  -0.763  -4.055  0.00  0.00    -0.230 OA
ATOM     21  C   LIG    1       -1.303  -0.024  -3.316  0.00  0.00    +0.080 A 
ENDBRANCH   8  11
BRANCH   2  22
ATOM     22  C   LIG    1        4.403  -0.017   0.631  0.00  0.00    -0.070 A 
ATOM     23  C   LIG    1        4.842  -0.531  -0.574  0.00  0.00    +0.000 A 
ATOM     24  C   LIG    1        6.175  -0.859  -0.742  0.00  0.00    +0.000 A 
ATOM     25  C   LIG    1        7.067  -0.680   0.299  0.00  0.00    +0.000 A 
ATOM     26  C   LIG    1        6.627  -0.170   1.506  0.00  0.00    +0.000 A 
ATOM     27  C   LIG    1        5.295   0.161   1.672  0.00  0.00    +0.010 A 
ENDBRANCH   2  22
TORSDOF 2
