REMARK  Name = ZINCrH000004o1Gm.0
REMARK                            x       y       z     vdW  Elec       q    Type
REMARK                         _______ _______ _______ _____ _____    ______ ____
ROOT
ATOM      1  C   LIG    1        0.549  -2.423   3.741  0.00  0.00    +0.520 C 
ATOM      2  N   LIG    1        1.057  -3.117   4.779  0.00  0.00    -0.670 N 
ATOM      3  H   LIG    1        1.470  -2.647   5.521  0.00  0.00    +0.410 HD
ATOM      4  O   LIG    1       -0.045  -3.003   2.857  0.00  0.00    -0.500 OA
ENDROOT
BRANCH   2   5
ATOM      5  C   LIG    1        0.989  -4.516   4.787  0.00  0.00    +0.100 A 
ATOM      6  C   LIG    1       -0.118  -5.161   4.252  0.00  0.00    +0.060 A 
ATOM      7  C   LIG    1       -0.182  -6.540   4.255  0.00  0.00    -0.060 A 
ATOM      8  C   LIG    1        0.855  -7.281   4.803  0.00  0.00    +0.120 A 
ATOM      9  C   LIG    1        1.959  -6.638   5.343  0.00  0.00    +0.010 A 
ATOM     10  C   LIG    1        2.027  -5.259   5.335  0.00  0.00    +0.030 A 
BRANCH   8  11
ATOM     11  O   LIG    1        0.789  -8.639   4.810  0.00  0.00    -0.310 OA
BRANCH  11  12
ATOM     12  C   LIG    1       -0.377  -9.236   4.238  0.00  0.00    +0.240 C 
BRANCH  12  13
ATOM     13  C   LIG    1       -0.273 -10.736   4.335  0.00  0.00    -0.100 A 
ATOM     14  C   LIG    1        0.310 -11.457   3.310  0.00  0.00    +0.020 A 
ATOM     15  C   LIG    1        0.409 -12.832   3.402  0.00  0.00    +0.010 A 
ATOM     16  C   LIG    1       -0.084 -13.488   4.514  0.00  0.00    +0.010 A 
ATOM     17  C   LIG    1       -0.672 -12.768   5.537  0.00  0.00    +0.010 A 
ATOM     18  C   LIG    1       -0.767 -11.392   5.448  0.00  0.00    +0.020 A 
ENDBRANCH  12  13
ENDBRANCH  11  12
ENDBRANCH   8  11
ENDBRANCH   2   5
BRANCH   1  20
ATOM     19  C   LIG    1       -0.397  -0.253   4.478  0.00  0.00    +0.070 C 
ATOM     20  C   LIG    1        0.720  -0.927   3.679  0.00  0.00    +0.130 C 
BRANCH  20  21
ATOM     21  N   LIG    1        0.656  -0.485   2.279  0.00  0.00    -0.510 NA
ATOM     22  C   LIG    1        1.752  -1.068   1.492  0.00  0.00    +0.150 C 
ATOM     23  C   LIG    1        1.614  -0.630   0.032  0.00  0.00    +0.200 C 
ATOM     24  O   LIG    1        1.601   0.799  -0.033  0.00  0.00    -0.380 OA
ATOM     25  C   LIG    1        0.545   1.400   0.722  0.00  0.00    +0.160 C 
ATOM     26  C   LIG    1        0.642   2.923   0.613  0.00  0.00    +0.050 C 
ATOM     27  C   LIG    1        0.307  -1.179  -0.545  0.00  0.00    +0.030 C 
ATOM     28  C   LIG    1        0.673   0.983   2.189  0.00  0.00    +0.150 C 
ENDBRANCH  20  21
ENDBRANCH   1  20
TORSDOF 6
