REMARK  Name = ZINCrH000004tPTQ.0
REMARK                            x       y       z     vdW  Elec       q    Type
REMARK                         _______ _______ _______ _____ _____    ______ ____
ROOT
ATOM      1  O   LIG    1       -1.907   5.102   5.320  0.00  0.00    -0.510 OA
ATOM      2  C   LIG    1       -0.970   4.380   5.590  0.00  0.00    +0.520 C 
ATOM      3  N   LIG    1       -0.146   3.952   4.613  0.00  0.00    -0.730 N 
ATOM      4  H   LIG    1        0.602   3.374   4.829  0.00  0.00    +0.400 HD
ENDROOT
BRANCH   3   5
ATOM      5  C   LIG    1       -0.381   4.359   3.225  0.00  0.00    +0.260 C 
BRANCH   5   6
ATOM      6  C   LIG    1        0.689   3.739   2.324  0.00  0.00    +0.020 C 
BRANCH   6   7
ATOM      7  C   LIG    1        0.444   4.164   0.875  0.00  0.00    +0.190 C 
BRANCH   7   8
ATOM      8  N   LIG    1        1.541   3.676   0.029  0.00  0.00    -0.470 N 
ATOM      9  C   LIG    1        1.713   2.214   0.176  0.00  0.00    +0.200 C 
ATOM     10  C   LIG    1        2.232   1.793  -1.218  0.00  0.00    +0.080 C 
ATOM     11  C   LIG    1        1.689   2.881  -2.123  0.00  0.00    -0.140 A 
ATOM     12  C   LIG    1        1.545   2.944  -3.493  0.00  0.00    +0.040 A 
ATOM     13  C   LIG    1        0.997   4.069  -4.081  0.00  0.00    -0.010 A 
ATOM     14  C   LIG    1        0.593   5.131  -3.293  0.00  0.00    +0.040 A 
ATOM     15  C   LIG    1        0.736   5.074  -1.923  0.00  0.00    -0.020 A 
ATOM     16  C   LIG    1        1.290   3.945  -1.323  0.00  0.00    +0.090 A 
ENDBRANCH   7   8
ENDBRANCH   6   7
ENDBRANCH   5   6
ENDBRANCH   3   5
BRANCH   2  17
ATOM     17  C   LIG    1       -0.729   3.962   7.017  0.00  0.00    +0.220 C 
BRANCH  17  18
ATOM     18  O   LIG    1       -1.728   4.540   7.859  0.00  0.00    -0.290 OA
BRANCH  18  19
ATOM     19  C   LIG    1       -1.654   4.260   9.186  0.00  0.00    +0.130 A 
ATOM     20  C   LIG    1       -2.580   4.789  10.039  0.00  0.00    -0.010 A 
ATOM     21  C   LIG    1       -2.507   4.497  11.411  0.00  0.00    -0.010 A 
ATOM     22  C   LIG    1       -3.444   5.020  12.319  0.00  0.00    +0.020 A 
ATOM     23  C   LIG    1       -3.340   4.721  13.642  0.00  0.00    +0.020 A 
ATOM     24  C   LIG    1       -2.317   3.901  14.114  0.00  0.00    -0.010 A 
ATOM     25  C   LIG    1       -1.391   3.376  13.264  0.00  0.00    +0.030 A 
ATOM     26  C   LIG    1       -1.466   3.663  11.891  0.00  0.00    -0.080 A 
ATOM     27  C   LIG    1       -0.527   3.139  10.985  0.00  0.00    +0.070 A 
ATOM     28  C   LIG    1       -0.628   3.437   9.662  0.00  0.00    -0.060 A 
ENDBRANCH  18  19
ENDBRANCH  17  18
ENDBRANCH   2  17
TORSDOF 7
