REMARK  Name = ZINCrH000004nCxf.0
REMARK                            x       y       z     vdW  Elec       q    Type
REMARK                         _______ _______ _______ _____ _____    ______ ____
ROOT
ATOM      1  C   LIG    1       -0.354  -4.910   0.687  0.00  0.00    +0.510 C 
ATOM      2  N   LIG    1       -0.487  -6.217   0.991  0.00  0.00    -0.610 N 
ATOM      3  C   LIG    1       -0.101  -7.253   0.023  0.00  0.00    +0.280 C 
ATOM      4  C   LIG    1        0.880  -8.218   0.705  0.00  0.00    +0.010 C 
ATOM      5  C   LIG    1        0.245  -8.761   1.987  0.00  0.00    +0.170 C 
ATOM      6  C   LIG    1       -0.039  -7.604   2.948  0.00  0.00    +0.040 C 
ATOM      7  C   LIG    1       -1.026  -6.632   2.293  0.00  0.00    +0.290 C 
ATOM      8  O   LIG    1       -0.680  -4.064   1.493  0.00  0.00    -0.530 OA
ENDROOT
BRANCH   1   9
ATOM      9  C   LIG    1        0.200  -4.500  -0.653  0.00  0.00    +0.290 C 
BRANCH   9  10
ATOM     10  N   LIG    1        0.244  -3.039  -0.737  0.00  0.00    -0.730 N 
ATOM     11  H   LIG    1       -0.060  -2.501   0.011  0.00  0.00    +0.420 HD
BRANCH  10  17
ATOM     12  C   LIG    1        0.767  -1.028  -1.978  0.00  0.00    +0.060 A 
ATOM     13  C   LIG    1        1.249  -0.420  -3.125  0.00  0.00    -0.030 A 
ATOM     14  C   LIG    1        1.681  -1.192  -4.188  0.00  0.00    -0.020 A 
ATOM     15  C   LIG    1        1.634  -2.571  -4.110  0.00  0.00    +0.010 A 
ATOM     16  C   LIG    1        1.155  -3.186  -2.968  0.00  0.00    -0.040 A 
ATOM     17  C   LIG    1        0.725  -2.418  -1.896  0.00  0.00    +0.190 A 
BRANCH  12  19
ATOM     18  C   LIG    1        0.420   1.149  -1.084  0.00  0.00    +0.230 C 
ATOM     19  O   LIG    1        0.342  -0.270  -0.931  0.00  0.00    -0.320 OA
ENDBRANCH  12  19
ENDBRANCH  10  17
ENDBRANCH   9  10
ENDBRANCH   1   9
BRANCH   5  20
ATOM     20  O   LIG    1        1.140  -9.686   2.607  0.00  0.00    -0.300 OA
BRANCH  20  21
ATOM     21  C   LIG    1        1.102 -10.971   2.167  0.00  0.00    +0.130 A 
ATOM     22  C   LIG    1        0.304 -11.311   1.084  0.00  0.00    -0.080 A 
ATOM     23  C   LIG    1        0.267 -12.618   0.639  0.00  0.00    -0.050 A 
ATOM     24  C   LIG    1        1.025 -13.587   1.270  0.00  0.00    -0.030 A 
ATOM     25  C   LIG    1        1.821 -13.250   2.349  0.00  0.00    +0.050 A 
ATOM     26  C   LIG    1       -0.599 -12.989  -0.537  0.00  0.00    +0.090 C 
ATOM     27  C   LIG    1        1.866 -11.944   2.795  0.00  0.00    -0.120 A 
ATOM     28  C   LIG    1        2.739 -11.577   3.967  0.00  0.00    +0.090 C 
ENDBRANCH  20  21
ENDBRANCH   5  20
TORSDOF 6
