REMARK  Name = ZINCrD000000fmWi.0
REMARK                            x       y       z     vdW  Elec       q    Type
REMARK                         _______ _______ _______ _____ _____    ______ ____
ROOT
ATOM      1  N   LIG    1        2.323   0.998  -0.015  0.00  0.00    -0.620 N 
ATOM      2  C   LIG    1        1.147   1.655   0.000  0.00  0.00    +0.710 C 
ATOM      3  N   LIG    1       -0.011   0.966   0.007  0.00  0.00    -0.740 N 
ATOM      4  H   LIG    1        0.002  -0.004   0.002  0.00  0.00    +0.400 HD
ATOM      5  O   LIG    1        1.130   2.871   0.007  0.00  0.00    -0.580 OA
ENDROOT
BRANCH   1   6
ATOM      6  C   LIG    1        2.343  -0.467  -0.023  0.00  0.00    +0.310 C 
BRANCH   6   8
ATOM      7  C   LIG    1        3.273  -1.779  -1.860  0.00  0.00    +0.030 C 
ATOM      8  C   LIG    1        2.336  -0.962  -1.446  0.00  0.00    -0.070 C 
ENDBRANCH   6   8
ENDBRANCH   1   6
BRANCH   3   9
ATOM      9  C   LIG    1       -1.290   1.681   0.017  0.00  0.00    +0.350 C 
BRANCH   9  10
ATOM     10  C   LIG    1       -2.422   0.686   0.017  0.00  0.00    -0.160 A 
ATOM     11  C   LIG    1       -2.949   0.242  -1.184  0.00  0.00    +0.120 A 
ATOM     12  C   LIG    1       -3.983  -0.674  -1.198  0.00  0.00    -0.080 A 
ATOM     13  C   LIG    1       -4.508  -1.147  -0.005  0.00  0.00    +0.200 A 
ATOM     14  C   LIG    1       -3.981  -0.695   1.214  0.00  0.00    -0.170 A 
ATOM     15  C   LIG    1       -2.931   0.227   1.212  0.00  0.00    +0.150 A 
BRANCH  14  16
ATOM     16  C   LIG    1       -4.530  -1.191   2.489  0.00  0.00    +0.510 C 
ATOM     17  O   LIG    1       -5.443  -1.993   2.486  0.00  0.00    -0.490 OA
BRANCH  16  18
ATOM     18  O   LIG    1       -4.021  -0.755   3.657  0.00  0.00    -0.360 OA
ATOM     19  C   LIG    1       -4.611  -1.286   4.873  0.00  0.00    +0.260 C 
ENDBRANCH  16  18
ENDBRANCH  14  16
BRANCH  13  20
ATOM     20  O   LIG    1       -5.527  -2.042  -0.016  0.00  0.00    -0.280 OA
ATOM     21  C   LIG    1       -6.012  -2.456  -1.295  0.00  0.00    +0.250 C 
ENDBRANCH  13  20
ENDBRANCH   9  10
ENDBRANCH   3   9
BRANCH   1  22
ATOM     22  C   LIG    1        3.582   1.747  -0.023  0.00  0.00    +0.350 C 
BRANCH  22  23
ATOM     23  C   LIG    1        4.027   1.997   1.395  0.00  0.00    -0.110 A 
ATOM     24  C   LIG    1        3.623   3.142   2.055  0.00  0.00    +0.040 A 
ATOM     25  C   LIG    1        4.027   3.369   3.357  0.00  0.00    +0.000 A 
ATOM     26  C   LIG    1        4.844   2.455   3.996  0.00  0.00    +0.000 A 
ATOM     27  C   LIG    1        5.252   1.312   3.335  0.00  0.00    -0.010 A 
ATOM     28  C   LIG    1        4.843   1.083   2.034  0.00  0.00    +0.010 A 
ENDBRANCH  22  23
ENDBRANCH   1  22
TORSDOF 9
