REMARK  Name = ZINCrD000000AMy2.0
REMARK                            x       y       z     vdW  Elec       q    Type
REMARK                         _______ _______ _______ _____ _____    ______ ____
ROOT
ATOM      1  C   LIG    1        6.089   7.477  -0.783  0.00  0.00    +0.240 C 
ATOM      2  C   LIG    1        4.735   8.185  -0.876  0.00  0.00    +0.030 C 
ATOM      3  C   LIG    1        3.807   7.649   0.219  0.00  0.00    +0.300 C 
ATOM      4  N   LIG    1        3.733   6.186   0.101  0.00  0.00    -0.610 N 
ATOM      5  C   LIG    1        4.982   5.414   0.093  0.00  0.00    +0.280 C 
ATOM      6  C   LIG    1        2.540   5.565   0.007  0.00  0.00    +0.570 C 
ATOM      7  O   LIG    1        1.520   6.219  -0.087  0.00  0.00    -0.530 OA
ATOM      8  C   LIG    1        5.897   5.975  -1.006  0.00  0.00    +0.000 C 
ENDROOT
BRANCH   6   9
ATOM      9  C   LIG    1        2.474   4.088   0.019  0.00  0.00    -0.100 A 
ATOM     10  C   LIG    1        1.612   3.419  -0.852  0.00  0.00    +0.050 A 
ATOM     11  C   LIG    1        1.552   2.040  -0.837  0.00  0.00    +0.060 A 
ATOM     12  C   LIG    1        2.347   1.318   0.034  0.00  0.00    -0.030 A 
ATOM     13  C   LIG    1        3.202   1.976   0.908  0.00  0.00    +0.100 A 
ATOM     14  C   LIG    1        3.271   3.358   0.902  0.00  0.00    +0.030 A 
BRANCH  13  15
ATOM     15  O   LIG    1        3.977   1.261   1.766  0.00  0.00    -0.320 OA
BRANCH  15  16
ATOM     16  C   LIG    1        3.856  -0.162   1.718  0.00  0.00    +0.600 C 
ATOM     17  F   LIG    1        4.194  -0.616   0.439  0.00  0.00    -0.200 F 
ATOM     18  F   LIG    1        2.537  -0.528   2.009  0.00  0.00    -0.200 F 
ENDBRANCH  15  16
ENDBRANCH  13  15
ENDBRANCH   6   9
BRANCH   1  21
ATOM     19  O   LIG    1        8.781   7.442  -0.624  0.00  0.00    -0.530 OA
ATOM     20  C   LIG    1        8.325   7.945  -1.632  0.00  0.00    +0.560 C 
ATOM     21  N   LIG    1        6.990   8.011  -1.808  0.00  0.00    -0.720 N 
ATOM     22  H   LIG    1        6.626   8.413  -2.612  0.00  0.00    +0.400 HD
BRANCH  20  23
ATOM     23  C   LIG    1        9.234   8.484  -2.666  0.00  0.00    -0.140 A 
ATOM     24  C   LIG    1        8.713   9.057  -3.827  0.00  0.00    +0.030 A 
ATOM     25  C   LIG    1        9.567   9.563  -4.786  0.00  0.00    +0.000 A 
ATOM     26  C   LIG    1       10.937   9.493  -4.603  0.00  0.00    +0.040 A 
ATOM     27  C   LIG    1       11.459   8.921  -3.456  0.00  0.00    +0.000 A 
ATOM     28  C   LIG    1       10.616   8.416  -2.488  0.00  0.00    +0.080 A 
ENDBRANCH  20  23
ENDBRANCH   1  21
TORSDOF 5
