REMARK  Name = ZINCrH000004nA1O.0
REMARK                            x       y       z     vdW  Elec       q    Type
REMARK                         _______ _______ _______ _____ _____    ______ ____
ROOT
ATOM      1  C   LIG    1        2.696  -3.093   2.752  0.00  0.00    +0.190 C 
ENDROOT
BRANCH   1   2
ATOM      2  N   LIG    1        3.763  -4.102   2.795  0.00  0.00    -0.490 NA
ATOM      3  C   LIG    1        3.261  -5.423   2.358  0.00  0.00    +0.190 C 
ATOM      4  C   LIG    1        4.055  -6.448   3.205  0.00  0.00    +0.030 C 
ATOM      5  C   LIG    1        4.157  -5.715   4.569  0.00  0.00    +0.020 C 
ATOM      6  C   LIG    1        4.309  -4.236   4.158  0.00  0.00    +0.260 C 
BRANCH   6   7
ATOM      7  C   LIG    1        3.538  -3.355   5.108  0.00  0.00    +0.080 A 
ATOM      8  N   LIG    1        4.026  -2.326   5.692  0.00  0.00    -0.450 NA
ATOM      9  C   LIG    1        3.220  -1.631   6.516  0.00  0.00    +0.080 A 
ATOM     10  C   LIG    1        3.491  -0.475   7.276  0.00  0.00    +0.080 A 
ATOM     11  C   LIG    1        2.523   0.080   8.057  0.00  0.00    +0.030 A 
ATOM     12  C   LIG    1        1.254  -0.478   8.120  0.00  0.00    +0.040 A 
ATOM     13  C   LIG    1        0.961  -1.608   7.388  0.00  0.00    +0.060 A 
ATOM     14  C   LIG    1        1.938  -2.189   6.585  0.00  0.00    -0.180 A 
ATOM     15  S   LIG    1        1.904  -3.601   5.533  0.00  0.00    +0.090 S 
ENDBRANCH   6   7
ENDBRANCH   1   2
BRANCH   1  18
ATOM     16  N   LIG    1        1.474  -1.798   1.035  0.00  0.00    -0.730 N 
ATOM     17  H   LIG    1        0.970  -1.383   1.752  0.00  0.00    +0.400 HD
ATOM     18  C   LIG    1        2.421  -2.714   1.320  0.00  0.00    +0.520 C 
ATOM     19  O   LIG    1        3.052  -3.233   0.423  0.00  0.00    -0.520 OA
BRANCH  16  20
ATOM     20  C   LIG    1        1.207  -1.429  -0.357  0.00  0.00    +0.340 C 
BRANCH  20  26
ATOM     21  C   LIG    1        0.405   0.937  -0.142  0.00  0.00    +0.140 A 
ATOM     22  C   LIG    1       -0.603   1.889  -0.190  0.00  0.00    -0.080 A 
ATOM     23  C   LIG    1       -1.897   1.508  -0.490  0.00  0.00    +0.060 A 
ATOM     24  C   LIG    1       -2.187   0.180  -0.743  0.00  0.00    -0.030 A 
ATOM     25  C   LIG    1       -1.183  -0.770  -0.696  0.00  0.00    +0.070 A 
ATOM     26  C   LIG    1        0.113  -0.394  -0.402  0.00  0.00    -0.140 A 
BRANCH  21  28
ATOM     27  C   LIG    1        1.907   2.697   0.404  0.00  0.00    +0.250 C 
ATOM     28  O   LIG    1        1.678   1.309   0.153  0.00  0.00    -0.310 OA
ENDBRANCH  21  28
ENDBRANCH  20  26
ENDBRANCH  16  20
ENDBRANCH   1  18
TORSDOF 6
