REMARK  Name = ZINCrm000000Isy0.1
REMARK                            x       y       z     vdW  Elec       q    Type
REMARK                         _______ _______ _______ _____ _____    ______ ____
ROOT
ATOM      1  N   LIG    1       -1.082   3.615   0.027  0.00  0.00    -0.660 N 
ATOM      2  H   LIG    1       -1.095   2.777  -0.461  0.00  0.00    +0.420 HD
ATOM      3  C   LIG    1        0.058   4.039   0.609  0.00  0.00    +0.610 C 
ATOM      4  O   LIG    1        0.097   5.127   1.149  0.00  0.00    -0.500 OA
ENDROOT
BRANCH   3   5
ATOM      5  C   LIG    1        1.259   3.180   0.591  0.00  0.00    -0.010 A 
ATOM      6  N   LIG    1        1.358   1.981   0.050  0.00  0.00    -0.220 NA
ATOM      7  N   LIG    1        2.542   1.514   0.221  0.00  0.00    -0.250 N 
ATOM      8  C   LIG    1        3.039   0.208  -0.238  0.00  0.00    +0.330 C 
ATOM      9  C   LIG    1        4.317  -0.134   0.532  0.00  0.00    +0.090 C 
ATOM     10  C   LIG    1        5.295   1.042   0.455  0.00  0.00    +0.070 C 
ATOM     11  C   LIG    1        4.740   2.209   1.283  0.00  0.00    +0.280 C 
ATOM     12  C   LIG    1        3.295   2.413   0.900  0.00  0.00    -0.050 A 
ATOM     13  C   LIG    1        2.522   3.485   1.156  0.00  0.00    +0.030 A 
BRANCH  11  14
ATOM     14  N   LIG    1        5.505   3.429   0.993  0.00  0.00    -0.630 N 
ATOM     15  H   LIG    1        5.447   3.637   0.007  0.00  0.00    +0.440 HD
ATOM     16  H   LIG    1        6.471   3.289   1.250  0.00  0.00    +0.450 HD
ATOM     17  H   LIG    1        5.125   4.199   1.522  0.00  0.00    +0.440 HD
ENDBRANCH  11  14
ENDBRANCH   3   5
BRANCH   1  21
ATOM     18  C   LIG    1       -4.548   5.907   0.325  0.00  0.00    -0.170 A 
ATOM     19  C   LIG    1       -3.316   6.528   0.227  0.00  0.00    +0.070 A 
ATOM     20  C   LIG    1       -2.165   5.771   0.129  0.00  0.00    +0.030 A 
ATOM     21  C   LIG    1       -2.245   4.385   0.127  0.00  0.00    +0.180 A 
ATOM     22  C   LIG    1       -3.484   3.764   0.220  0.00  0.00    +0.000 A 
ATOM     23  C   LIG    1       -4.631   4.526   0.324  0.00  0.00    +0.070 A 
BRANCH  18  24
ATOM     24  C   LIG    1       -5.802   6.735   0.431  0.00  0.00    +0.330 C 
BRANCH  24  29
ATOM     25  C   LIG    1       -7.714   9.134  -4.295  0.00  0.00    +0.230 C 
ATOM     26  N   LIG    1       -7.195   8.803  -2.961  0.00  0.00    -0.540 NA
ATOM     27  C   LIG    1       -8.159   7.988  -2.208  0.00  0.00    +0.210 C 
ATOM     28  C   LIG    1       -7.607   7.716  -0.807  0.00  0.00    +0.280 C 
ATOM     29  N   LIG    1       -6.322   7.012  -0.914  0.00  0.00    -0.390 N 
ATOM     30  C   LIG    1       -5.363   7.849  -1.647  0.00  0.00    +0.260 C 
ATOM     31  H   LIG    1       -6.455   6.143  -1.408  0.00  0.00    +0.420 HD
ATOM     32  C   LIG    1       -5.896   8.122  -3.055  0.00  0.00    +0.210 C 
ENDBRANCH  24  29
ENDBRANCH  18  24
ENDBRANCH   1  21
TORSDOF 5
