REMARK  Name = ZINCrm000000Isy0.0
REMARK                            x       y       z     vdW  Elec       q    Type
REMARK                         _______ _______ _______ _____ _____    ______ ____
ROOT
ATOM      1  N   LIG    1       -1.002  -2.235  -0.000  0.00  0.00    -0.660 N 
ATOM      2  H   LIG    1       -1.031  -1.398   0.488  0.00  0.00    +0.420 HD
ATOM      3  C   LIG    1        0.140  -2.627  -0.599  0.00  0.00    +0.610 C 
ATOM      4  O   LIG    1        0.201  -3.715  -1.139  0.00  0.00    -0.500 OA
ENDROOT
BRANCH   3   5
ATOM      5  C   LIG    1        1.317  -1.736  -0.598  0.00  0.00    -0.010 A 
ATOM      6  N   LIG    1        1.393  -0.537  -0.054  0.00  0.00    -0.220 NA
ATOM      7  N   LIG    1        2.563  -0.040  -0.239  0.00  0.00    -0.250 N 
ATOM      8  C   LIG    1        3.032   1.277   0.218  0.00  0.00    +0.340 C 
ATOM      9  C   LIG    1        4.291   1.655  -0.569  0.00  0.00    +0.080 C 
ATOM     10  C   LIG    1        5.299   0.503  -0.509  0.00  0.00    +0.070 C 
ATOM     11  C   LIG    1        4.763  -0.675  -1.333  0.00  0.00    +0.290 C 
ATOM     12  C   LIG    1        3.329  -0.916  -0.932  0.00  0.00    -0.050 A 
ATOM     13  C   LIG    1        2.579  -2.007  -1.182  0.00  0.00    +0.020 A 
BRANCH  11  14
ATOM     14  N   LIG    1        5.562  -1.877  -1.058  0.00  0.00    -0.630 N 
ATOM     15  H   LIG    1        6.525  -1.704  -1.308  0.00  0.00    +0.450 HD
ATOM     16  H   LIG    1        5.207  -2.649  -1.601  0.00  0.00    +0.440 HD
ATOM     17  H   LIG    1        5.505  -2.102  -0.076  0.00  0.00    +0.440 HD
ENDBRANCH  11  14
ENDBRANCH   3   5
BRANCH   1  21
ATOM     18  C   LIG    1       -4.409  -4.620  -0.247  0.00  0.00    -0.100 A 
ATOM     19  C   LIG    1       -3.159  -5.208  -0.168  0.00  0.00    +0.020 A 
ATOM     20  C   LIG    1       -2.028  -4.420  -0.086  0.00  0.00    +0.020 A 
ATOM     21  C   LIG    1       -2.146  -3.036  -0.083  0.00  0.00    +0.150 A 
ATOM     22  C   LIG    1       -3.402  -2.449  -0.158  0.00  0.00    -0.010 A 
ATOM     23  C   LIG    1       -4.530  -3.242  -0.244  0.00  0.00    +0.060 A 
BRANCH  18  24
ATOM     24  C   LIG    1       -5.641  -5.483  -0.335  0.00  0.00    +0.260 C 
BRANCH  24  29
ATOM     25  C   LIG    1       -7.503  -7.735   4.482  0.00  0.00    +0.320 C 
ATOM     26  N   LIG    1       -7.011  -7.499   3.118  0.00  0.00    -0.390 N 
ATOM     27  C   LIG    1       -7.960  -6.639   2.399  0.00  0.00    +0.280 C 
ATOM     28  C   LIG    1       -7.458  -6.408   0.972  0.00  0.00    +0.210 C 
ATOM     29  N   LIG    1       -6.134  -5.773   1.018  0.00  0.00    -0.530 NA
ATOM     30  C   LIG    1       -5.179  -6.611   1.757  0.00  0.00    +0.200 C 
ATOM     31  C   LIG    1       -5.700  -6.840   3.178  0.00  0.00    +0.270 C 
ATOM     32  H   LIG    1       -6.924  -8.380   2.636  0.00  0.00    +0.420 HD
ENDBRANCH  24  29
ENDBRANCH  18  24
ENDBRANCH   1  21
TORSDOF 5
