REMARK  Name = ZINCvU0000000GwW.0
REMARK                            x       y       z     vdW  Elec       q    Type
REMARK                         _______ _______ _______ _____ _____    ______ ____
ROOT
ATOM      1  O   LIG    1       -3.683  -6.723  -1.670  0.00  0.00    -0.490 OA
ATOM      2  C   LIG    1       -3.076  -6.130  -0.803  0.00  0.00    +0.480 C 
ATOM      3  N   LIG    1       -1.817  -5.707  -1.031  0.00  0.00    -0.670 N 
ATOM      4  H   LIG    1       -1.357  -5.171  -0.366  0.00  0.00    +0.410 HD
ENDROOT
BRANCH   3   5
ATOM      5  C   LIG    1       -1.172  -6.043  -2.226  0.00  0.00    +0.160 A 
ATOM      6  C   LIG    1       -1.431  -7.262  -2.838  0.00  0.00    +0.020 A 
ATOM      7  C   LIG    1       -0.794  -7.593  -4.019  0.00  0.00    +0.060 A 
ATOM      8  C   LIG    1        0.102  -6.713  -4.594  0.00  0.00    -0.020 A 
ATOM      9  C   LIG    1        0.365  -5.492  -3.987  0.00  0.00    +0.100 A 
ATOM     10  C   LIG    1       -0.269  -5.158  -2.800  0.00  0.00    -0.020 A 
BRANCH   9  11
ATOM     11  O   LIG    1        1.246  -4.627  -4.553  0.00  0.00    -0.260 OA
BRANCH  11  12
ATOM     12  C   LIG    1        0.826  -3.892  -5.616  0.00  0.00    +0.120 A 
ATOM     13  C   LIG    1       -0.441  -4.096  -6.145  0.00  0.00    -0.060 A 
ATOM     14  C   LIG    1       -0.868  -3.344  -7.222  0.00  0.00    +0.050 A 
ATOM     15  C   LIG    1       -0.031  -2.396  -7.780  0.00  0.00    -0.020 A 
ATOM     16  C   LIG    1        1.234  -2.194  -7.258  0.00  0.00    +0.050 A 
ATOM     17  C   LIG    1        1.664  -2.939  -6.178  0.00  0.00    -0.020 A 
ENDBRANCH  11  12
ENDBRANCH   9  11
ENDBRANCH   3   5
BRANCH   2  18
ATOM     18  C   LIG    1       -3.730  -5.867   0.529  0.00  0.00    +0.270 C 
BRANCH  18  19
ATOM     19  N   LIG    1       -5.065  -6.480   0.549  0.00  0.00    -0.470 N 
ATOM     20  C   LIG    1       -4.972  -7.944   0.520  0.00  0.00    +0.210 C 
ATOM     21  C   LIG    1       -6.391  -8.513   0.394  0.00  0.00    +0.200 C 
ATOM     22  N   LIG    1       -6.919  -8.143  -0.924  0.00  0.00    -0.480 N 
ATOM     23  C   LIG    1       -6.754  -6.779  -1.194  0.00  0.00    +0.100 A 
ATOM     24  C   LIG    1       -7.522  -6.218  -2.210  0.00  0.00    -0.010 A 
ATOM     25  C   LIG    1       -7.396  -4.879  -2.523  0.00  0.00    +0.000 A 
ATOM     26  C   LIG    1       -6.504  -4.087  -1.825  0.00  0.00    +0.000 A 
ATOM     27  C   LIG    1       -5.740  -4.633  -0.813  0.00  0.00    -0.010 A 
ATOM     28  C   LIG    1       -5.861  -5.981  -0.489  0.00  0.00    +0.090 A 
BRANCH  22  29
ATOM     29  C   LIG    1       -8.327  -8.539  -1.057  0.00  0.00    +0.220 C 
BRANCH  29  30
ATOM     30  C   LIG    1       -8.435 -10.064  -1.005  0.00  0.00    -0.040 C 
ATOM     31  C   LIG    1       -8.928 -10.781  -2.263  0.00  0.00    +0.010 C 
ATOM     32  C   LIG    1       -9.837 -10.675  -1.037  0.00  0.00    +0.010 C 
ENDBRANCH  29  30
ENDBRANCH  22  29
ENDBRANCH  18  19
ENDBRANCH   2  18
TORSDOF 7
