REMARK  Name = ZINCqH0000035DaW.0
REMARK                            x       y       z     vdW  Elec       q    Type
REMARK                         _______ _______ _______ _____ _____    ______ ____
ROOT
ATOM      1  C   LIG    1       -1.066  -1.726  -2.299  0.00  0.00    +0.580 C 
ATOM      2  N   LIG    1       -0.829  -1.952  -0.992  0.00  0.00    -0.610 N 
ATOM      3  C   LIG    1       -0.890  -3.265  -0.317  0.00  0.00    +0.250 C 
ATOM      4  C   LIG    1       -1.165  -2.933   1.171  0.00  0.00    +0.040 C 
ATOM      5  C   LIG    1       -0.323  -1.644   1.364  0.00  0.00    +0.050 C 
ATOM      6  C   LIG    1       -0.465  -0.932   0.003  0.00  0.00    +0.270 C 
ATOM      7  O   LIG    1       -1.480  -2.623  -3.006  0.00  0.00    -0.530 OA
ENDROOT
BRANCH   6   8
ATOM      8  C   LIG    1        0.843  -0.289  -0.378  0.00  0.00    -0.090 A 
ATOM      9  C   LIG    1        1.816  -1.031  -1.020  0.00  0.00    +0.030 A 
ATOM     10  C   LIG    1        3.018  -0.445  -1.371  0.00  0.00    +0.020 A 
ATOM     11  C   LIG    1        3.251   0.890  -1.079  0.00  0.00    +0.060 A 
ATOM     12  O   LIG    1        4.440   1.453  -1.426  0.00  0.00    -0.310 OA
ATOM     13  C   LIG    1        4.492   2.884  -1.454  0.00  0.00    +0.220 C 
ATOM     14  C   LIG    1        3.831   3.414  -0.175  0.00  0.00    +0.220 C 
ATOM     15  O   LIG    1        2.476   2.952  -0.146  0.00  0.00    -0.310 OA
ATOM     16  C   LIG    1        2.271   1.638  -0.435  0.00  0.00    +0.060 A 
ATOM     17  C   LIG    1        1.069   1.043  -0.085  0.00  0.00    +0.030 A 
ENDBRANCH   6   8
BRANCH   1  20
ATOM     18  C   LIG    1       -0.526   1.040  -4.787  0.00  0.00    +0.110 A 
ATOM     19  C   LIG    1       -0.755  -0.218  -4.257  0.00  0.00    -0.010 A 
ATOM     20  C   LIG    1       -0.821  -0.385  -2.873  0.00  0.00    -0.100 A 
ATOM     21  C   LIG    1       -0.662   0.718  -2.033  0.00  0.00    +0.020 A 
ATOM     22  C   LIG    1       -0.429   1.967  -2.573  0.00  0.00    +0.040 A 
ATOM     23  C   LIG    1       -0.363   2.131  -3.944  0.00  0.00    -0.090 A 
ATOM     24  C   LIG    1       -0.115   3.499  -4.525  0.00  0.00    +0.100 C 
BRANCH  18  26
ATOM     25  C   LIG    1       -0.637   0.043  -6.942  0.00  0.00    +0.240 C 
ATOM     26  O   LIG    1       -0.461   1.208  -6.135  0.00  0.00    -0.310 OA
ENDBRANCH  18  26
ENDBRANCH   1  20
TORSDOF 3
