REMARK  Name = ZINCpk000000oXsQ.0
REMARK                            x       y       z     vdW  Elec       q    Type
REMARK                         _______ _______ _______ _____ _____    ______ ____
ROOT
ATOM      1  N   LIG    1       -2.100   3.980   3.389  0.00  0.00    -0.620 N 
ATOM      2  H   LIG    1       -1.993   4.867   3.012  0.00  0.00    +0.420 HD
ATOM      3  C   LIG    1       -2.712   3.823   4.579  0.00  0.00    +0.610 C 
ATOM      4  O   LIG    1       -2.846   2.711   5.052  0.00  0.00    -0.470 OA
ENDROOT
BRANCH   3   5
ATOM      5  C   LIG    1       -3.220   5.000   5.308  0.00  0.00    -0.290 A 
ATOM      6  C   LIG    1       -2.528   5.754   6.226  0.00  0.00    +0.140 A 
ATOM      7  C   LIG    1       -1.109   5.561   6.697  0.00  0.00    +0.120 C 
ATOM      8  C   LIG    1       -0.659   6.847   7.402  0.00  0.00    +0.030 C 
ATOM      9  C   LIG    1       -1.737   7.274   8.403  0.00  0.00    +0.040 C 
ATOM     10  C   LIG    1       -2.981   7.748   7.645  0.00  0.00    +0.260 C 
ATOM     11  C   LIG    1       -4.136   7.947   8.628  0.00  0.00    +0.050 C 
ATOM     12  N   LIG    1       -3.349   6.730   6.654  0.00  0.00    -0.350 N 
ATOM     13  N   LIG    1       -4.575   6.593   5.999  0.00  0.00    -0.290 NA
ATOM     14  C   LIG    1       -4.509   5.570   5.190  0.00  0.00    +0.120 A 
ATOM     15  C   LIG    1       -5.615   5.081   4.291  0.00  0.00    +0.160 C 
ENDBRANCH   3   5
BRANCH   1  19
ATOM     16  N   LIG    1       -0.698   1.558   1.213  0.00  0.00    -0.380 N 
ATOM     17  C   LIG    1       -1.155   0.803   2.227  0.00  0.00    +0.510 A 
ATOM     18  N   LIG    1       -1.705   1.596   3.111  0.00  0.00    -0.510 NA
ATOM     19  C   LIG    1       -1.618   2.864   2.698  0.00  0.00    +0.450 A 
ATOM     20  N   LIG    1       -1.002   2.890   1.540  0.00  0.00    -0.320 NA
BRANCH  16  21
ATOM     21  C   LIG    1       -0.013   1.086   0.008  0.00  0.00    +0.430 C 
BRANCH  21  22
ATOM     22  C   LIG    1       -0.742   1.585  -1.213  0.00  0.00    +0.450 C 
ATOM     23  O   LIG    1       -1.732   2.266  -1.089  0.00  0.00    -0.480 OA
BRANCH  22  24
ATOM     24  O   LIG    1       -0.290   1.274  -2.438  0.00  0.00    -0.360 OA
BRANCH  24  26
ATOM     25  C   LIG    1       -0.382   1.333  -4.871  0.00  0.00    +0.070 C 
ATOM     26  C   LIG    1       -1.042   1.789  -3.568  0.00  0.00    +0.200 C 
ENDBRANCH  24  26
ENDBRANCH  22  24
ENDBRANCH  21  22
ENDBRANCH  16  21
ENDBRANCH   1  19
TORSDOF 6
