REMARK  Name = ZINCpk000000nqYb.0
REMARK                            x       y       z     vdW  Elec       q    Type
REMARK                         _______ _______ _______ _____ _____    ______ ____
ROOT
ATOM      1  C   LIG    1        1.304  -0.720   2.294  0.00  0.00    +0.510 C 
ATOM      2  N   LIG    1        2.507  -0.495   2.859  0.00  0.00    -0.700 N 
ATOM      3  H   LIG    1        2.903   0.389   2.820  0.00  0.00    +0.420 HD
ATOM      4  O   LIG    1        0.808  -1.827   2.343  0.00  0.00    -0.510 OA
ENDROOT
BRANCH   1   7
ATOM      5  N   LIG    1       -0.622   0.168   1.043  0.00  0.00    -0.690 N 
ATOM      6  H   LIG    1       -1.018  -0.716   1.082  0.00  0.00    +0.410 HD
ATOM      7  C   LIG    1        0.581   0.393   1.608  0.00  0.00    +0.510 C 
ATOM      8  O   LIG    1        1.077   1.500   1.559  0.00  0.00    -0.520 OA
BRANCH   5   9
ATOM      9  C   LIG    1       -1.328   1.258   0.364  0.00  0.00    +0.310 C 
BRANCH   9  10
ATOM     10  C   LIG    1       -2.695   0.763  -0.111  0.00  0.00    -0.140 C 
ATOM     11  C   LIG    1       -3.930   1.523   0.376  0.00  0.00    +0.040 C 
ATOM     12  C   LIG    1       -3.619   0.132   0.933  0.00  0.00    +0.030 C 
BRANCH  10  14
ATOM     13  C   LIG    1       -2.360   1.279  -2.532  0.00  0.00    +0.030 C 
ATOM     14  C   LIG    1       -2.732   0.186  -1.527  0.00  0.00    +0.020 C 
ATOM     15  C   LIG    1       -1.734  -0.968  -1.635  0.00  0.00    +0.030 C 
ENDBRANCH  10  14
ENDBRANCH   9  10
ENDBRANCH   5   9
ENDBRANCH   1   7
BRANCH   2  16
ATOM     16  C   LIG    1        3.215  -1.587   3.533  0.00  0.00    +0.340 C 
BRANCH  16  17
ATOM     17  C   LIG    1        4.526  -1.076   4.074  0.00  0.00    -0.040 A 
ATOM     18  C   LIG    1        4.607  -0.550   5.356  0.00  0.00    -0.020 A 
ATOM     19  C   LIG    1        5.824  -0.091   5.822  0.00  0.00    +0.310 A 
ATOM     20  N   LIG    1        6.903  -0.147   5.065  0.00  0.00    -0.500 NA
ATOM     21  C   LIG    1        6.865  -0.642   3.838  0.00  0.00    +0.370 A 
ATOM     22  C   LIG    1        5.677  -1.126   3.307  0.00  0.00    +0.000 A 
BRANCH  21  23
ATOM     23  N   LIG    1        8.034  -0.682   3.072  0.00  0.00    -0.330 N 
ATOM     24  C   LIG    1        9.261  -0.245   3.459  0.00  0.00    +0.260 A 
ATOM     25  C   LIG    1       10.116  -0.464   2.434  0.00  0.00    -0.100 A 
ATOM     26  C   LIG    1        9.392  -1.042   1.385  0.00  0.00    +0.270 A 
ATOM     27  N   LIG    1        8.148  -1.173   1.765  0.00  0.00    -0.290 NA
ENDBRANCH  21  23
ENDBRANCH  16  17
ENDBRANCH   2  16
TORSDOF 7
