REMARK  Name = ZINCqH00000050gS.0
REMARK                            x       y       z     vdW  Elec       q    Type
REMARK                         _______ _______ _______ _____ _____    ______ ____
ROOT
ATOM      1  N   LIG    1       -0.011   0.966   0.007  0.00  0.00    -0.710 N 
ATOM      2  H   LIG    1        0.002  -0.004   0.002  0.00  0.00    +0.390 HD
ATOM      3  C   LIG    1       -1.187   1.624   0.017  0.00  0.00    +0.590 C 
ATOM      4  O   LIG    1       -1.204   2.840   0.023  0.00  0.00    -0.490 OA
ENDROOT
BRANCH   3   5
ATOM      5  C   LIG    1       -2.449   0.872   0.018  0.00  0.00    +0.040 A 
ATOM      6  C   LIG    1       -3.694   1.424   0.033  0.00  0.00    -0.040 A 
ATOM      7  C   LIG    1       -4.648   0.318   0.027  0.00  0.00    -0.110 A 
ATOM      8  C   LIG    1       -6.045   0.246   0.033  0.00  0.00    +0.080 A 
ATOM      9  C   LIG    1       -6.661  -0.972   0.030  0.00  0.00    -0.010 A 
ATOM     10  C   LIG    1       -5.913  -2.142   0.020  0.00  0.00    +0.050 A 
ATOM     11  C   LIG    1       -4.537  -2.096   0.013  0.00  0.00    -0.010 A 
ATOM     12  C   LIG    1       -3.885  -0.866   0.016  0.00  0.00    +0.130 A 
ATOM     13 CL   LIG    1       -4.074   3.117   0.053  0.00  0.00    -0.010 Cl
ATOM     14  N   LIG    1       -2.559  -0.505   0.011  0.00  0.00    -0.580 N 
ATOM     15  H   LIG    1       -1.812  -1.125   0.004  0.00  0.00    +0.420 HD
ENDBRANCH   3   5
BRANCH   1  16
ATOM     16  C   LIG    1        1.248   1.716  -0.001  0.00  0.00    +0.320 C 
BRANCH  16  17
ATOM     17  C   LIG    1        1.602   2.087  -1.417  0.00  0.00    -0.100 A 
ATOM     18  C   LIG    1        1.402   1.179  -2.441  0.00  0.00    +0.000 A 
ATOM     19  C   LIG    1        1.724   1.520  -3.741  0.00  0.00    +0.000 A 
ATOM     20  C   LIG    1        2.253   2.767  -4.017  0.00  0.00    +0.000 A 
ATOM     21  C   LIG    1        2.458   3.673  -2.993  0.00  0.00    +0.000 A 
ATOM     22  C   LIG    1        2.133   3.333  -1.694  0.00  0.00    +0.020 A 
ENDBRANCH  16  17
BRANCH  16  23
ATOM     23  C   LIG    1        2.361   0.850   0.594  0.00  0.00    +0.070 C 
BRANCH  23  26
ATOM     24  C   LIG    1        2.629  -0.427   4.193  0.00  0.00    +0.290 C 
ATOM     25  N   LIG    1        2.915  -0.166   2.780  0.00  0.00    -0.620 N 
ATOM     26  C   LIG    1        2.066   0.581   2.047  0.00  0.00    +0.510 C 
ATOM     27  O   LIG    1        1.064   1.037   2.557  0.00  0.00    -0.520 OA
ATOM     28  C   LIG    1        4.125  -0.716   2.164  0.00  0.00    +0.280 C 
ENDBRANCH  23  26
ENDBRANCH  16  23
ENDBRANCH   1  16
TORSDOF 5
