REMARK  Name = ZINCrD00000hQ4nv.0
REMARK                            x       y       z     vdW  Elec       q    Type
REMARK                         _______ _______ _______ _____ _____    ______ ____
ROOT
ATOM      1  C   LIG    1        4.359   4.689   0.693  0.00  0.00    -0.310 A 
ATOM      2  C   LIG    1        3.274   3.877   1.011  0.00  0.00    +0.500 A 
ATOM      3  N   LIG    1        2.360   3.889   0.001  0.00  0.00    -0.430 N 
ATOM      4  C   LIG    1        2.779   4.709  -1.029  0.00  0.00    +0.290 A 
ATOM      5  N   LIG    1        2.259   5.045  -2.190  0.00  0.00    -0.430 NA
ATOM      6  C   LIG    1        2.917   5.886  -2.998  0.00  0.00    +0.100 A 
ATOM      7  C   LIG    1        2.367   6.252  -4.240  0.00  0.00    +0.060 A 
ATOM      8  C   LIG    1        3.043   7.106  -5.055  0.00  0.00    +0.040 A 
ATOM      9  C   LIG    1        4.279   7.629  -4.678  0.00  0.00    +0.040 A 
ATOM     10  C   LIG    1        4.842   7.299  -3.485  0.00  0.00    +0.060 A 
ATOM     11  C   LIG    1        4.173   6.418  -2.615  0.00  0.00    +0.090 A 
ATOM     12  N   LIG    1        4.718   6.087  -1.438  0.00  0.00    -0.420 NA
ATOM     13  C   LIG    1        4.078   5.261  -0.635  0.00  0.00    +0.180 A 
ENDROOT
BRANCH   3  14
ATOM     14  C   LIG    1        1.155   3.170   0.008  0.00  0.00    +0.060 A 
ATOM     15  C   LIG    1        1.174   1.782   0.000  0.00  0.00    +0.070 A 
ATOM     16  C   LIG    1       -0.013   1.076   0.008  0.00  0.00    +0.000 A 
ATOM     17  C   LIG    1       -1.223   1.753   0.017  0.00  0.00    +0.150 A 
ATOM     18  C   LIG    1       -1.243   3.140   0.031  0.00  0.00    -0.050 A 
ATOM     19  C   LIG    1       -0.057   3.848   0.023  0.00  0.00    +0.080 A 
BRANCH  17  20
ATOM     20  O   LIG    1       -2.391   1.057   0.019  0.00  0.00    -0.310 OA
ATOM     21  C   LIG    1       -3.600   1.818   0.029  0.00  0.00    +0.250 C 
ENDBRANCH  17  20
ENDBRANCH   3  14
BRANCH   2  22
ATOM     22  N   LIG    1        3.145   3.164   2.174  0.00  0.00    -0.820 N 
ATOM     23  H   LIG    1        3.841   3.207   2.848  0.00  0.00    +0.430 HD
ATOM     24  H   LIG    1        2.358   2.617   2.322  0.00  0.00    +0.410 HD
ENDBRANCH   2  22
BRANCH   1  25
ATOM     25  C   LIG    1        5.504   4.925   1.492  0.00  0.00    +0.570 C 
ATOM     26  O   LIG    1        5.510   5.844   2.290  0.00  0.00    -0.490 OA
BRANCH  25  27
ATOM     27  O   LIG    1        6.588   4.131   1.369  0.00  0.00    -0.350 OA
BRANCH  27  29
ATOM     28  C   LIG    1        8.831   3.427   1.928  0.00  0.00    +0.070 C 
ATOM     29  C   LIG    1        7.707   4.426   2.207  0.00  0.00    +0.200 C 
ENDBRANCH  27  29
ENDBRANCH  25  27
ENDBRANCH   1  25
TORSDOF 6
