REMARK  Name = ZINCrH000004tPmw.0
REMARK                            x       y       z     vdW  Elec       q    Type
REMARK                         _______ _______ _______ _____ _____    ______ ____
ROOT
ATOM      1  O   LIG    1       -0.206  12.061   0.067  0.00  0.00    -0.510 OA
ATOM      2  C   LIG    1        0.920  11.613   0.054  0.00  0.00    +0.520 C 
ATOM      3  N   LIG    1        1.978  12.448   0.049  0.00  0.00    -0.730 N 
ATOM      4  H   LIG    1        2.879  12.090   0.038  0.00  0.00    +0.400 HD
ENDROOT
BRANCH   3   5
ATOM      5  C   LIG    1        1.766  13.898   0.058  0.00  0.00    +0.340 C 
BRANCH   5   6
ATOM      6  C   LIG    1        3.100  14.601   0.050  0.00  0.00    -0.100 A 
ATOM      7  C   LIG    1        3.718  14.920   1.244  0.00  0.00    +0.050 A 
ATOM      8  C   LIG    1        4.944  15.560   1.241  0.00  0.00    +0.040 A 
ATOM      9  C   LIG    1        5.550  15.892   0.041  0.00  0.00    +0.040 A 
ATOM     10  O   LIG    1        6.732  16.517  -0.234  0.00  0.00    -0.310 OA
ATOM     11  C   LIG    1        6.631  16.945  -1.605  0.00  0.00    +0.440 C 
ATOM     12  O   LIG    1        5.714  16.001  -2.191  0.00  0.00    -0.310 OA
ATOM     13  C   LIG    1        4.924  15.574  -1.163  0.00  0.00    +0.030 A 
ATOM     14  C   LIG    1        3.699  14.928  -1.152  0.00  0.00    +0.060 A 
ENDBRANCH   5   6
ENDBRANCH   3   5
BRANCH   2  15
ATOM     15  C   LIG    1        1.138  10.122   0.044  0.00  0.00    +0.240 C 
BRANCH  15  16
ATOM     16  O   LIG    1       -0.126   9.456   0.052  0.00  0.00    -0.290 OA
BRANCH  16  17
ATOM     17  C   LIG    1       -0.108   8.097   0.044  0.00  0.00    +0.130 A 
ATOM     18  C   LIG    1       -1.301   7.388   0.051  0.00  0.00    +0.000 A 
ATOM     19  C   LIG    1       -1.286   6.009   0.044  0.00  0.00    +0.060 A 
ATOM     20  C   LIG    1       -0.070   5.327   0.029  0.00  0.00    -0.080 A 
ATOM     21  C   LIG    1        1.126   6.042   0.027  0.00  0.00    +0.060 A 
ATOM     22  C   LIG    1        1.105   7.421   0.030  0.00  0.00    -0.080 A 
BRANCH  20  23
ATOM     23  C   LIG    1       -0.050   3.844   0.022  0.00  0.00    -0.040 A 
ATOM     24  C   LIG    1        1.165   3.161   0.007  0.00  0.00    +0.000 A 
ATOM     25  C   LIG    1        1.177   1.781   0.000  0.00  0.00    +0.000 A 
ATOM     26  C   LIG    1       -0.013   1.076   0.008  0.00  0.00    +0.000 A 
ATOM     27  C   LIG    1       -1.221   1.748   0.017  0.00  0.00    +0.000 A 
ATOM     28  C   LIG    1       -1.246   3.128   0.030  0.00  0.00    +0.020 A 
ENDBRANCH  20  23
ENDBRANCH  16  17
ENDBRANCH  15  16
ENDBRANCH   2  15
TORSDOF 6
