REMARK  Name = ZINCnE000001GLOU.0
REMARK                            x       y       z     vdW  Elec       q    Type
REMARK                         _______ _______ _______ _____ _____    ______ ____
ROOT
ATOM      1  C   LIG    1        0.002  -0.004   0.002  0.00  0.00    +0.180 A 
ATOM      2  C   LIG    1        1.192  -0.676  -0.013  0.00  0.00    -0.120 A 
ATOM      3  C   LIG    1        1.228  -2.068  -0.020  0.00  0.00    +0.160 A 
ATOM      4  C   LIG    1        0.080  -2.800  -0.013  0.00  0.00    -0.640 A 
ATOM      5  C   LIG    1       -1.165  -2.147   0.002  0.00  0.00    +0.060 A 
ATOM      6  C   LIG    1       -2.368  -2.872   0.009  0.00  0.00    +0.040 A 
ATOM      7  C   LIG    1       -3.555  -2.205   0.022  0.00  0.00    +0.030 A 
ATOM      8  C   LIG    1       -3.596  -0.813   0.029  0.00  0.00    -0.010 A 
ATOM      9  C   LIG    1       -2.449  -0.078   0.023  0.00  0.00    +0.040 A 
ATOM     10  C   LIG    1       -1.206  -0.731   0.016  0.00  0.00    -0.090 A 
ENDROOT
BRANCH   4  11
ATOM     11  S   LIG    1        0.155  -4.560  -0.022  0.00  0.00    +2.610 S 
ATOM     12  O   LIG    1        1.533  -4.904  -0.001  0.00  0.00    -1.030 OA
ATOM     13  O   LIG    1       -0.740  -4.995  -1.037  0.00  0.00    -1.020 OA
BRANCH  11  14
ATOM     14  N   LIG    1       -0.479  -5.085   1.415  0.00  0.00    -1.080 NA
BRANCH  14  15
ATOM     15  C   LIG    1       -0.550  -6.453   1.690  0.00  0.00    +0.240 A 
ATOM     16  C   LIG    1       -1.076  -6.906   2.897  0.00  0.00    -0.030 A 
ATOM     17  C   LIG    1       -1.129  -8.272   3.121  0.00  0.00    -0.010 A 
ATOM     18  C   LIG    1       -0.652  -9.134   2.152  0.00  0.00    +0.110 A 
ATOM     19  N   LIG    1       -0.155  -8.674   1.020  0.00  0.00    -0.450 NA
ATOM     20  C   LIG    1       -0.091  -7.382   0.764  0.00  0.00    +0.070 A 
ENDBRANCH  14  15
ENDBRANCH  11  14
ENDBRANCH   4  11
BRANCH   1  21
ATOM     21  O   LIG    1       -0.016   1.354   0.009  0.00  0.00    -0.310 OA
BRANCH  21  23
ATOM     22  C   LIG    1        1.027   3.534   0.011  0.00  0.00    +0.070 C 
ATOM     23  C   LIG    1        1.248   2.020   0.001  0.00  0.00    +0.190 C 
ENDBRANCH  21  23
ENDBRANCH   1  21
TORSDOF 5
