REMARK  Name = ZINCrD00000F5Lrr.2
REMARK                            x       y       z     vdW  Elec       q    Type
REMARK                         _______ _______ _______ _____ _____    ______ ____
ROOT
ATOM      1  N   LIG    1       -1.592   6.171   4.474  0.00  0.00    -0.520 NA
ENDROOT
BRANCH   1   2
ATOM      2  C   LIG    1       -1.986   6.873   3.245  0.00  0.00    +0.220 C 
BRANCH   2   4
ATOM      3  C   LIG    1        0.109   8.120   2.702  0.00  0.00    +0.030 C 
ATOM      4  C   LIG    1       -1.327   8.253   3.213  0.00  0.00    -0.100 C 
ATOM      5  C   LIG    1       -1.314   8.846   4.623  0.00  0.00    +0.030 C 
ATOM      6  C   LIG    1       -2.117   9.174   2.280  0.00  0.00    +0.040 C 
ENDBRANCH   2   4
ENDBRANCH   1   2
BRANCH   1   7
ATOM      7  C   LIG    1       -0.158   6.342   4.742  0.00  0.00    +0.290 C 
BRANCH   7   8
ATOM      8  C   LIG    1        0.627   5.349   3.924  0.00  0.00    +0.060 A 
ATOM      9  C   LIG    1        0.996   5.504   2.640  0.00  0.00    -0.070 A 
ATOM     10  C   LIG    1        1.711   4.340   2.276  0.00  0.00    +0.090 A 
ATOM     11  C   LIG    1        1.737   3.544   3.359  0.00  0.00    -0.590 A 
ATOM     12  O   LIG    1        1.074   4.157   4.353  0.00  0.00    -0.110 OA
BRANCH  11  13
ATOM     13  S   LIG    1        2.504   1.960   3.456  0.00  0.00    +2.740 S 
ATOM     14  O   LIG    1        1.852   1.262   4.508  0.00  0.00    -0.950 OA
ATOM     15  O   LIG    1        2.577   1.468   2.125  0.00  0.00    -0.940 OA
BRANCH  13  16
ATOM     16  N   LIG    1        4.065   2.201   3.952  0.00  0.00    -1.240 NA
ATOM     17  H   LIG    1        4.527   3.022   3.719  0.00  0.00    +0.420 HD
ATOM     18  H   LIG    1        4.520   1.520   4.472  0.00  0.00    +0.430 HD
ENDBRANCH  13  16
ENDBRANCH  11  13
ENDBRANCH   7   8
ENDBRANCH   1   7
BRANCH   1  19
ATOM     19  C   LIG    1       -2.398   6.619   5.618  0.00  0.00    +0.230 C 
BRANCH  19  20
ATOM     20  C   LIG    1       -3.767   5.994   5.543  0.00  0.00    -0.040 A 
ATOM     21  C   LIG    1       -4.000   4.766   6.133  0.00  0.00    -0.010 A 
ATOM     22  C   LIG    1       -5.255   4.193   6.063  0.00  0.00    +0.040 A 
ATOM     23  C   LIG    1       -6.285   4.843   5.404  0.00  0.00    -0.160 A 
ATOM     24  C   LIG    1       -7.639   4.184   5.344  0.00  0.00    +0.080 C 
ATOM     25  C   LIG    1       -8.703   5.223   4.981  0.00  0.00    +0.010 C 
ATOM     26  C   LIG    1       -8.202   6.023   3.771  0.00  0.00    +0.230 C 
ATOM     27  O   LIG    1       -7.037   6.751   4.164  0.00  0.00    -0.320 OA
ATOM     28  C   LIG    1       -6.055   6.075   4.815  0.00  0.00    +0.130 A 
ATOM     29  C   LIG    1       -4.791   6.650   4.890  0.00  0.00    -0.010 A 
ENDBRANCH  19  20
ENDBRANCH   1  19
TORSDOF 8
