REMARK  Name = ZINCqH0000009Bjz.0
REMARK                            x       y       z     vdW  Elec       q    Type
REMARK                         _______ _______ _______ _____ _____    ______ ____
ROOT
ATOM      1  C   LIG    1       -0.013   1.086   0.008  0.00  0.00    +0.260 C 
ENDROOT
BRANCH   1  12
ATOM      2  C   LIG    1       -0.917   3.224  -3.799  0.00  0.00    +0.050 C 
ATOM      3  C   LIG    1       -0.910   1.698  -3.700  0.00  0.00    +0.230 C 
ATOM      4  C   LIG    1       -0.031   1.094  -4.808  0.00  0.00    +0.100 C 
ATOM      5  C   LIG    1        1.056   0.348  -4.068  0.00  0.00    -0.130 A 
ATOM      6  C   LIG    1        2.128  -0.388  -4.535  0.00  0.00    +0.060 A 
ATOM      7  C   LIG    1        3.008  -0.974  -3.643  0.00  0.00    -0.010 A 
ATOM      8  C   LIG    1        2.806  -0.832  -2.283  0.00  0.00    +0.050 A 
ATOM      9  C   LIG    1        1.735  -0.102  -1.813  0.00  0.00    -0.030 A 
ATOM     10  C   LIG    1        0.847   0.500  -2.707  0.00  0.00    +0.140 A 
ATOM     11  N   LIG    1       -0.288   1.272  -2.443  0.00  0.00    -0.550 N 
ATOM     12  C   LIG    1       -0.742   1.585  -1.213  0.00  0.00    +0.530 C 
ATOM     13  O   LIG    1       -1.736   2.268  -1.088  0.00  0.00    -0.490 OA
ENDBRANCH   1  12
BRANCH   1  14
ATOM     14  O   LIG    1       -0.692   1.554   1.203  0.00  0.00    -0.330 OA
BRANCH  14  15
ATOM     15  C   LIG    1       -0.166   1.194   2.384  0.00  0.00    +0.470 C 
ATOM     16  O   LIG    1        0.829   0.510   2.418  0.00  0.00    -0.500 OA
BRANCH  15  17
ATOM     17  C   LIG    1       -0.817   1.643   3.667  0.00  0.00    -0.040 C 
ATOM     18  C   LIG    1       -0.836   3.171   3.721  0.00  0.00    +0.050 C 
ATOM     19  C   LIG    1       -1.497   3.627   5.024  0.00  0.00    +0.000 C 
ATOM     20  C   LIG    1       -2.931   3.096   5.081  0.00  0.00    +0.030 C 
ATOM     21  C   LIG    1       -2.912   1.568   5.027  0.00  0.00    +0.000 C 
ATOM     22  C   LIG    1       -2.119   1.025   6.217  0.00  0.00    +0.020 C 
ATOM     23  C   LIG    1       -0.685   1.555   6.160  0.00  0.00    -0.010 C 
ATOM     24  C   LIG    1       -0.705   3.084   6.215  0.00  0.00    +0.020 C 
ATOM     25  C   LIG    1       -2.251   1.112   3.724  0.00  0.00    +0.050 C 
ATOM     26  C   LIG    1       -0.025   1.100   4.858  0.00  0.00    +0.050 C 
ENDBRANCH  15  17
ENDBRANCH  14  15
ENDBRANCH   1  14
TORSDOF 4
