REMARK  Name = ZINCpe000000Wkkq.0
REMARK                            x       y       z     vdW  Elec       q    Type
REMARK                         _______ _______ _______ _____ _____    ______ ____
ROOT
ATOM      1  C   LIG    1       -2.368  -0.051   0.127  0.00  0.00    +0.570 C 
ATOM      2  N   LIG    1       -1.200  -0.711  -0.007  0.00  0.00    -0.650 N 
ATOM      3  H   LIG    1       -1.197  -1.676  -0.104  0.00  0.00    +0.420 HD
ATOM      4  O   LIG    1       -2.381   1.165   0.148  0.00  0.00    -0.470 OA
ENDROOT
BRANCH   1  12
ATOM      5  C   LIG    1       -3.619  -2.265   0.356  0.00  0.00    +0.240 A 
ATOM      6  C   LIG    1       -4.830  -2.919   0.465  0.00  0.00    -0.190 A 
ATOM      7  C   LIG    1       -6.014  -2.171   0.468  0.00  0.00    +0.540 A 
ATOM      8  N   LIG    1       -5.992  -0.833   0.366  0.00  0.00    -0.610 N 
ATOM      9  H   LIG    1       -6.832  -0.347   0.371  0.00  0.00    +0.420 HD
ATOM     10  C   LIG    1       -4.841  -0.144   0.263  0.00  0.00    +0.440 A 
ATOM     11  O   LIG    1       -7.085  -2.747   0.565  0.00  0.00    -0.540 OA
ATOM     12  C   LIG    1       -3.629  -0.803   0.246  0.00  0.00    -0.260 A 
BRANCH   5  14
ATOM     13  C   LIG    1       -2.543  -4.377   0.461  0.00  0.00    +0.270 C 
ATOM     14  O   LIG    1       -2.455  -2.955   0.349  0.00  0.00    -0.310 OA
ENDBRANCH   5  14
ENDBRANCH   1  12
BRANCH   2  15
ATOM     15  C   LIG    1        0.002  -0.006  -0.004  0.00  0.00    +0.370 A 
ATOM     16  C   LIG    1        1.206  -0.700  -0.035  0.00  0.00    -0.070 A 
ATOM     17  C   LIG    1        2.393   0.012  -0.031  0.00  0.00    +0.100 A 
ATOM     18  C   LIG    1        2.334   1.399   0.004  0.00  0.00    -0.070 A 
ATOM     19  C   LIG    1        1.102   2.022   0.034  0.00  0.00    +0.170 A 
ATOM     20  N   LIG    1       -0.013   1.317   0.029  0.00  0.00    -0.460 NA
BRANCH  19  21
ATOM     21  C   LIG    1        1.030   3.527   0.072  0.00  0.00    +0.260 C 
BRANCH  21  22
ATOM     22  N   LIG    1        0.870   4.044  -1.294  0.00  0.00    -0.530 NA
ATOM     23  C   LIG    1        2.070   3.777  -2.102  0.00  0.00    +0.140 C 
ATOM     24  C   LIG    1        1.838   4.278  -3.530  0.00  0.00    +0.220 C 
ATOM     25  O   LIG    1        1.507   5.669  -3.494  0.00  0.00    -0.390 OA
ATOM     26  C   LIG    1        0.344   5.964  -2.717  0.00  0.00    +0.220 C 
ATOM     27  C   LIG    1        0.560   5.481  -1.280  0.00  0.00    +0.150 C 
ENDBRANCH  21  22
ENDBRANCH  19  21
ENDBRANCH   2  15
TORSDOF 5
