REMARK  Name = ZINCrD000000AT8h.0
REMARK                            x       y       z     vdW  Elec       q    Type
REMARK                         _______ _______ _______ _____ _____    ______ ____
ROOT
ATOM      1  C   LIG    1        1.836   2.739  -1.043  0.00  0.00    +0.530 C 
ATOM      2  N   LIG    1        1.365   2.028  -0.000  0.00  0.00    -0.610 N 
ATOM      3  C   LIG    1       -0.019   1.528   0.010  0.00  0.00    +0.290 C 
ATOM      4  C   LIG    1        0.002  -0.004   0.002  0.00  0.00    +0.100 C 
ATOM      5  C   LIG    1        1.015  -0.488   1.013  0.00  0.00    +0.080 A 
ATOM      6  C   LIG    1        2.001   0.280   1.524  0.00  0.00    -0.180 A 
ATOM      7  C   LIG    1        2.753  -0.544   2.446  0.00  0.00    -0.090 A 
ATOM      8  C   LIG    1        3.866  -0.292   3.253  0.00  0.00    +0.080 A 
ATOM      9  C   LIG    1        4.327  -1.344   4.027  0.00  0.00    -0.060 A 
ATOM     10  C   LIG    1        3.719  -2.589   4.006  0.00  0.00    +0.040 A 
ATOM     11  C   LIG    1        2.617  -2.860   3.214  0.00  0.00    +0.020 A 
ATOM     12 CL   LIG    1        5.705  -1.095   5.052  0.00  0.00    -0.070 Cl
ATOM     13  C   LIG    1        2.131  -1.819   2.426  0.00  0.00    +0.100 A 
ATOM     14  N   LIG    1        1.085  -1.747   1.550  0.00  0.00    -0.580 N 
ATOM     15  H   LIG    1        0.483  -2.478   1.341  0.00  0.00    +0.420 HD
ATOM     16  C   LIG    1        2.221   1.728   1.161  0.00  0.00    +0.370 C 
ATOM     17  O   LIG    1        2.980   3.143  -1.034  0.00  0.00    -0.530 OA
ENDROOT
BRANCH   1  18
ATOM     18  C   LIG    1        0.943   3.033  -2.221  0.00  0.00    +0.060 C 
BRANCH  18  19
ATOM     19  C   LIG    1        1.717   3.849  -3.258  0.00  0.00    +0.320 C 
BRANCH  19  22
ATOM     20  O   LIG    1        2.466   5.250  -5.437  0.00  0.00    -0.560 OA
ATOM     21  C   LIG    1        1.320   4.845  -5.446  0.00  0.00    +0.660 C 
ATOM     22  N   LIG    1        0.849   4.134  -4.402  0.00  0.00    -0.710 N 
ATOM     23  H   LIG    1       -0.066   3.811  -4.410  0.00  0.00    +0.410 HD
BRANCH  21  24
ATOM     24  O   LIG    1        0.522   5.107  -6.498  0.00  0.00    -0.360 OA
BRANCH  24  25
ATOM     25  C   LIG    1        1.097   5.878  -7.585  0.00  0.00    +0.280 C 
BRANCH  25  26
ATOM     26  C   LIG    1        0.048   6.074  -8.682  0.00  0.00    +0.470 C 
ATOM     27  F   LIG    1       -0.364   4.826  -9.162  0.00  0.00    -0.170 F 
ATOM     28  F   LIG    1        0.602   6.817  -9.730  0.00  0.00    -0.170 F 
ATOM     29  F   LIG    1       -1.054   6.758  -8.156  0.00  0.00    -0.170 F 
ENDBRANCH  25  26
ENDBRANCH  24  25
ENDBRANCH  21  24
ENDBRANCH  19  22
ENDBRANCH  18  19
ENDBRANCH   1  18
TORSDOF 6
