REMARK  Name = ZINC9l0000002pXE.0
REMARK                            x       y       z     vdW  Elec       q    Type
REMARK                         _______ _______ _______ _____ _____    ______ ____
ROOT
ATOM      1  C   LIG    1       -1.576   1.939  -0.638  0.00  0.00    +0.010 C 
ATOM      2  C   LIG    1       -1.659   2.087   0.882  0.00  0.00    -0.020 C 
ATOM      3  C   LIG    1       -1.311   0.747   1.563  0.00  0.00    -0.010 C 
ATOM      4  C   LIG    1       -0.519   1.158   2.829  0.00  0.00    +0.000 C 
ATOM      5  C   LIG    1        0.325   2.357   2.330  0.00  0.00    +0.020 C 
ATOM      6  C   LIG    1       -0.619   3.111   1.370  0.00  0.00    -0.100 C 
ENDROOT
BRANCH   6   7
ATOM      7  C   LIG    1        0.161   3.652   0.199  0.00  0.00    +0.510 C 
ATOM      8  O   LIG    1        1.087   3.010  -0.266  0.00  0.00    -0.700 OA
ATOM      9  O   LIG    1       -0.135   4.732  -0.283  0.00  0.00    -0.710 OA
ENDBRANCH   6   7
TORSDOF 1
