REMARK  Name = ZINCrg00000SjSvy.0
REMARK                            x       y       z     vdW  Elec       q    Type
REMARK                         _______ _______ _______ _____ _____    ______ ____
ROOT
ATOM      1  N   LIG    1        1.143   1.898   0.001  0.00  0.00    -0.660 N 
ATOM      2  H   LIG    1        1.099   2.798   0.360  0.00  0.00    +0.420 HD
ATOM      3  C   LIG    1        0.056   1.347  -0.572  0.00  0.00    +0.530 C 
ATOM      4  O   LIG    1        0.137   0.263  -1.110  0.00  0.00    -0.500 OA
ENDROOT
BRANCH   1  11
ATOM      5  C   LIG    1        3.588   3.345   0.175  0.00  0.00    +0.100 C 
ATOM      6  C   LIG    1        3.553   1.839   0.165  0.00  0.00    -0.060 A 
ATOM      7  C   LIG    1        4.729   1.119   0.245  0.00  0.00    +0.020 A 
ATOM      8  C   LIG    1        4.698  -0.263   0.230  0.00  0.00    +0.110 A 
ATOM      9  C   LIG    1        3.490  -0.929   0.140  0.00  0.00    -0.660 A 
ATOM     10  C   LIG    1        2.309  -0.216   0.064  0.00  0.00    +0.130 A 
ATOM     11  C   LIG    1        2.337   1.172   0.079  0.00  0.00    +0.120 A 
BRANCH   9  12
ATOM     12  S   LIG    1        3.456  -2.691   0.121  0.00  0.00    +2.690 S 
ATOM     13  O   LIG    1        2.163  -3.072   0.573  0.00  0.00    -0.950 OA
ATOM     14  O   LIG    1        4.656  -3.122   0.747  0.00  0.00    -0.950 OA
BRANCH  12  15
ATOM     15  N   LIG    1        3.557  -3.166  -1.462  0.00  0.00    -1.000 NA
ATOM     16  C   LIG    1        2.336  -3.351  -2.251  0.00  0.00    +0.300 C 
ATOM     17  C   LIG    1        4.867  -3.402  -2.074  0.00  0.00    +0.300 C 
ENDBRANCH  12  15
ENDBRANCH   9  12
ENDBRANCH   1  11
BRANCH   3  18
ATOM     18  C   LIG    1       -1.261   2.080  -0.550  0.00  0.00    +0.020 C 
ATOM     19  C   LIG    1       -1.932   1.883   0.810  0.00  0.00    +0.090 C 
BRANCH  18  20
ATOM     20  S   LIG    1       -2.335   1.430  -1.853  0.00  0.00    +0.090 S 
BRANCH  20  21
ATOM     21  C   LIG    1       -3.700   2.534  -1.704  0.00  0.00    +0.390 A 
ATOM     22  N   LIG    1       -3.667   3.481  -0.789  0.00  0.00    -0.580 NA
ATOM     23  C   LIG    1       -4.681   4.343  -0.648  0.00  0.00    +0.460 A 
ATOM     24  C   LIG    1       -5.795   4.236  -1.469  0.00  0.00    -0.250 A 
ATOM     25  C   LIG    1       -5.825   3.224  -2.434  0.00  0.00    +0.540 A 
ATOM     26  O   LIG    1       -6.789   3.100  -3.173  0.00  0.00    -0.550 OA
ATOM     27  N   LIG    1       -4.771   2.388  -2.534  0.00  0.00    -0.620 N 
ATOM     28  H   LIG    1       -4.776   1.681  -3.198  0.00  0.00    +0.420 HD
BRANCH  23  29
ATOM     29  N   LIG    1       -4.621   5.331   0.314  0.00  0.00    -0.830 N 
ATOM     30  H   LIG    1       -3.841   5.404   0.886  0.00  0.00    +0.410 HD
ATOM     31  H   LIG    1       -5.359   5.952   0.417  0.00  0.00    +0.420 HD
ENDBRANCH  23  29
ENDBRANCH  20  21
ENDBRANCH  18  20
ENDBRANCH   3  18
TORSDOF 7
