REMARK  Name = ZINCrD000000Amyt.2
REMARK                            x       y       z     vdW  Elec       q    Type
REMARK                         _______ _______ _______ _____ _____    ______ ____
ROOT
ATOM      1  O   LIG    1        4.688   5.257  -0.720  0.00  0.00    -0.520 OA
ATOM      2  C   LIG    1        4.008   4.849  -1.638  0.00  0.00    +0.510 C 
ATOM      3  N   LIG    1        2.868   4.175  -1.384  0.00  0.00    -0.730 N 
ATOM      4  H   LIG    1        2.324   3.849  -2.118  0.00  0.00    +0.400 HD
ENDROOT
BRANCH   3   5
ATOM      5  C   LIG    1        2.452   3.934  -0.000  0.00  0.00    +0.320 C 
BRANCH   5   6
ATOM      6  C   LIG    1        1.156   3.166   0.008  0.00  0.00    -0.110 A 
ATOM      7  C   LIG    1        1.173   1.783   0.017  0.00  0.00    +0.030 A 
ATOM      8  C   LIG    1       -0.013   1.076   0.024  0.00  0.00    -0.030 A 
ATOM      9  C   LIG    1       -1.224   1.755   0.017  0.00  0.00    +0.090 A 
ATOM     10  C   LIG    1       -1.239   3.144   0.014  0.00  0.00    +0.030 A 
ATOM     11  C   LIG    1       -0.049   3.845   0.007  0.00  0.00    +0.040 A 
BRANCH   9  12
ATOM     12  N   LIG    1       -2.426   1.042   0.019  0.00  0.00    -0.490 N 
ATOM     13  C   LIG    1       -2.562   0.225  -1.214  0.00  0.00    +0.180 C 
ATOM     14  C   LIG    1       -3.611  -0.844  -0.816  0.00  0.00    +0.040 C 
ATOM     15  C   LIG    1       -3.251  -1.150   0.656  0.00  0.00    +0.020 C 
ATOM     16  C   LIG    1       -2.473   0.085   1.145  0.00  0.00    +0.170 C 
ENDBRANCH   9  12
ENDBRANCH   5   6
ENDBRANCH   3   5
BRANCH   2  17
ATOM     17  C   LIG    1        4.436   5.096  -3.061  0.00  0.00    +0.200 C 
BRANCH  17  18
ATOM     18  N   LIG    1        5.699   5.845  -3.069  0.00  0.00    -0.510 NA
ATOM     19  C   LIG    1        6.814   5.006  -2.593  0.00  0.00    +0.190 C 
ATOM     20  C   LIG    1        7.883   4.992  -3.706  0.00  0.00    +0.010 C 
ATOM     21  C   LIG    1        7.567   6.280  -4.511  0.00  0.00    +0.030 C 
ATOM     22  C   LIG    1        6.021   6.328  -4.429  0.00  0.00    +0.190 C 
BRANCH  21  23
ATOM     23  C   LIG    1        8.028   6.150  -5.940  0.00  0.00    -0.070 A 
ATOM     24  C   LIG    1        7.544   5.126  -6.732  0.00  0.00    +0.000 A 
ATOM     25  C   LIG    1        7.964   5.010  -8.044  0.00  0.00    +0.000 A 
ATOM     26  C   LIG    1        8.875   5.912  -8.561  0.00  0.00    +0.000 A 
ATOM     27  C   LIG    1        9.363   6.933  -7.767  0.00  0.00    +0.000 A 
ATOM     28  C   LIG    1        8.940   7.052  -6.457  0.00  0.00    +0.010 A 
ENDBRANCH  21  23
ENDBRANCH  17  18
ENDBRANCH   2  17
TORSDOF 6
