REMARK  Name = ZINCvU0000000Egk.0
REMARK                            x       y       z     vdW  Elec       q    Type
REMARK                         _______ _______ _______ _____ _____    ______ ____
ROOT
ATOM      1  C   LIG    1       -2.328  -4.290   0.030  0.00  0.00    +0.100 C 
ENDROOT
BRANCH   1   2
ATOM      2  C   LIG    1       -2.553  -2.786  -0.136  0.00  0.00    +0.210 C 
BRANCH   2   3
ATOM      3  O   LIG    1       -1.271  -2.103  -0.148  0.00  0.00    -0.330 OA
BRANCH   3   4
ATOM      4  C   LIG    1       -1.293  -0.764  -0.288  0.00  0.00    +0.530 C 
ATOM      5  O   LIG    1       -2.353  -0.182  -0.397  0.00  0.00    -0.490 OA
BRANCH   4  12
ATOM      6  C   LIG    1        6.104   2.007  -0.060  0.00  0.00    +0.030 C 
ATOM      7  C   LIG    1        4.770   1.301   0.192  0.00  0.00    -0.020 C 
ATOM      8  C   LIG    1        4.767  -0.061  -0.512  0.00  0.00    +0.030 C 
ATOM      9  C   LIG    1        3.539  -0.842  -0.049  0.00  0.00    +0.110 C 
ATOM     10  C   LIG    1        2.293  -0.008  -0.201  0.00  0.00    +0.130 A 
ATOM     11  N   LIG    1        1.130  -0.639  -0.188  0.00  0.00    -0.440 NA
ATOM     12  C   LIG    1       -0.024  -0.001  -0.308  0.00  0.00    +0.090 A 
ATOM     13  C   LIG    1       -0.051   1.385  -0.453  0.00  0.00    +0.040 A 
ATOM     14  C   LIG    1        1.148   2.075  -0.471  0.00  0.00    +0.060 A 
ATOM     15  C   LIG    1        2.337   1.365  -0.345  0.00  0.00    -0.090 A 
ATOM     16  C   LIG    1        3.627   2.139  -0.377  0.00  0.00    +0.090 C 
ENDBRANCH   4  12
ENDBRANCH   3   4
ENDBRANCH   2   3
ENDBRANCH   1   2
BRANCH   1  17
ATOM     17  C   LIG    1       -3.679  -5.000   0.130  0.00  0.00    +0.140 C 
BRANCH  17  18
ATOM     18  C   LIG    1       -4.419  -4.502   1.345  0.00  0.00    -0.080 A 
ATOM     19  C   LIG    1       -5.596  -3.793   1.195  0.00  0.00    +0.010 A 
ATOM     20  C   LIG    1       -6.278  -3.341   2.309  0.00  0.00    +0.020 A 
ATOM     21  C   LIG    1       -5.776  -3.588   3.574  0.00  0.00    +0.020 A 
ATOM     22  C   LIG    1       -4.596  -4.293   3.724  0.00  0.00    +0.020 A 
ATOM     23  C   LIG    1       -3.918  -4.750   2.609  0.00  0.00    +0.040 A 
ENDBRANCH  17  18
BRANCH  17  24
ATOM     24  C   LIG    1       -3.459  -6.486   0.250  0.00  0.00    -0.080 A 
ATOM     25  C   LIG    1       -2.174  -6.990   0.325  0.00  0.00    +0.020 A 
ATOM     26  C   LIG    1       -1.972  -8.353   0.440  0.00  0.00    +0.010 A 
ATOM     27  C   LIG    1       -3.054  -9.212   0.469  0.00  0.00    +0.020 A 
ATOM     28  C   LIG    1       -4.339  -8.708   0.389  0.00  0.00    +0.010 A 
ATOM     29  C   LIG    1       -4.541  -7.345   0.280  0.00  0.00    +0.020 A 
ENDBRANCH  17  24
BRANCH  17  30
ATOM     30  C   LIG    1       -4.472  -4.717  -1.077  0.00  0.00    +0.210 C 
ATOM     31  N   LIG    1       -5.085  -4.499  -2.009  0.00  0.00    -0.410 NA
ENDBRANCH  17  30
ENDBRANCH   1  17
TORSDOF 8
