REMARK  Name = ZINCrD000000DaAJ.0
REMARK                            x       y       z     vdW  Elec       q    Type
REMARK                         _______ _______ _______ _____ _____    ______ ____
ROOT
ATOM      1  C   LIG    1       -3.609  -2.126  -2.616  0.00  0.00    +0.510 A 
ATOM      2  C   LIG    1       -4.813  -2.850  -2.627  0.00  0.00    -0.110 A 
ATOM      3  N   LIG    1       -5.636  -3.344  -1.671  0.00  0.00    -0.460 NA
ATOM      4  C   LIG    1       -6.647  -3.940  -2.234  0.00  0.00    +0.490 A 
ATOM      5  N   LIG    1       -6.538  -3.861  -3.592  0.00  0.00    -0.430 N 
ATOM      6  C   LIG    1       -5.383  -3.170  -3.871  0.00  0.00    +0.310 A 
ATOM      7  N   LIG    1       -4.763  -2.788  -4.983  0.00  0.00    -0.550 NA
ATOM      8  C   LIG    1       -3.634  -2.115  -4.924  0.00  0.00    +0.580 A 
ATOM      9  N   LIG    1       -3.063  -1.788  -3.779  0.00  0.00    -0.590 NA
ENDROOT
BRANCH   5  10
ATOM     10  C   LIG    1       -7.438  -4.386  -4.530  0.00  0.00    +0.120 A 
ATOM     11  C   LIG    1       -7.919  -3.585  -5.557  0.00  0.00    +0.030 A 
ATOM     12  C   LIG    1       -8.802  -4.107  -6.482  0.00  0.00    +0.030 A 
ATOM     13  C   LIG    1       -9.214  -5.423  -6.380  0.00  0.00    +0.020 A 
ATOM     14  C   LIG    1       -8.742  -6.221  -5.355  0.00  0.00    +0.030 A 
ATOM     15  C   LIG    1       -7.855  -5.706  -4.430  0.00  0.00    +0.020 A 
ENDBRANCH   5  10
BRANCH   1  16
ATOM     16  N   LIG    1       -3.003  -1.778  -1.421  0.00  0.00    -0.700 N 
ATOM     17  H   LIG    1       -3.412  -2.031  -0.579  0.00  0.00    +0.420 HD
BRANCH  16  18
ATOM     18  C   LIG    1       -1.745  -1.028  -1.429  0.00  0.00    +0.280 C 
BRANCH  18  19
ATOM     19  C   LIG    1       -1.293  -0.775   0.010  0.00  0.00    +0.080 C 
BRANCH  19  24
ATOM     20  C   LIG    1        1.171   2.085   0.002  0.00  0.00    -0.040 A 
ATOM     21  C   LIG    1        2.377   1.411  -0.014  0.00  0.00    +0.090 A 
ATOM     22  C   LIG    1        2.396   0.028  -0.022  0.00  0.00    +0.040 A 
ATOM     23  C   LIG    1        1.209  -0.679  -0.014  0.00  0.00    +0.080 A 
ATOM     24  C   LIG    1        0.002  -0.004   0.002  0.00  0.00    -0.080 A 
ATOM     25  C   LIG    1       -0.017   1.378   0.010  0.00  0.00    +0.100 A 
BRANCH  20  27
ATOM     26  O   LIG    1        0.088   4.160   0.023  0.00  0.00    -0.160 OA
ATOM     27  N   LIG    1        1.151   3.566   0.010  0.00  0.00    +0.030 N 
ATOM     28  O   LIG    1        2.197   4.189   0.003  0.00  0.00    -0.160 OA
ENDBRANCH  20  27
ENDBRANCH  19  24
ENDBRANCH  18  19
ENDBRANCH  16  18
ENDBRANCH   1  16
TORSDOF 6
