REMARK  Name = ZINCvU00000005Xc.0
REMARK                            x       y       z     vdW  Elec       q    Type
REMARK                         _______ _______ _______ _____ _____    ______ ____
ROOT
ATOM      1  C   LIG    1       -0.748   4.385  -1.739  0.00  0.00    +0.290 C 
ENDROOT
BRANCH   1   2
ATOM      2  C   LIG    1       -1.617   4.949  -0.645  0.00  0.00    +0.160 A 
ATOM      3  N   LIG    1       -1.754   6.213  -0.327  0.00  0.00    -0.280 NA
ATOM      4  N   LIG    1       -2.582   6.289   0.656  0.00  0.00    -0.090 NA
ATOM      5  N   LIG    1       -2.972   5.106   0.980  0.00  0.00    -0.090 NA
ATOM      6  N   LIG    1       -2.399   4.252   0.201  0.00  0.00    -0.300 N 
BRANCH   6   7
ATOM      7  C   LIG    1       -2.567   2.797   0.231  0.00  0.00    +0.390 C 
BRANCH   7   8
ATOM      8  C   LIG    1       -1.788   2.225   1.387  0.00  0.00    -0.130 A 
ATOM      9  C   LIG    1       -2.330   2.234   2.658  0.00  0.00    +0.070 A 
ATOM     10  C   LIG    1       -1.616   1.709   3.719  0.00  0.00    +0.020 A 
ATOM     11  C   LIG    1       -0.359   1.175   3.509  0.00  0.00    +0.070 A 
ATOM     12  C   LIG    1        0.184   1.165   2.237  0.00  0.00    -0.100 A 
ATOM     13 BR   LIG    1        1.904   0.433   1.949  0.00  0.00    -0.040 Br
ATOM     14  C   LIG    1       -0.532   1.686   1.175  0.00  0.00    +0.100 A 
ENDBRANCH   7   8
ENDBRANCH   6   7
ENDBRANCH   1   2
BRANCH   1  15
ATOM     15  N   LIG    1        0.554   5.064  -1.730  0.00  0.00    -0.500 NA
BRANCH  15  17
ATOM     16  C   LIG    1       -0.495   7.203  -2.294  0.00  0.00    +0.040 C 
ATOM     17  C   LIG    1        0.415   6.465  -1.310  0.00  0.00    +0.180 C 
ENDBRANCH  15  17
BRANCH  15  18
ATOM     18  C   LIG    1        1.513   4.351  -0.875  0.00  0.00    +0.180 C 
ATOM     19  C   LIG    1        0.824   3.933   0.426  0.00  0.00    +0.000 C 
BRANCH  18  20
ATOM     20  C   LIG    1        2.022   3.107  -1.605  0.00  0.00    +0.200 C 
BRANCH  20  21
ATOM     21  O   LIG    1        0.952   2.172  -1.756  0.00  0.00    -0.390 OA
ATOM     22  C   LIG    1        1.347   0.924  -2.328  0.00  0.00    +0.200 C 
ENDBRANCH  20  21
ENDBRANCH  18  20
ENDBRANCH  15  18
ENDBRANCH   1  15
BRANCH   1  23
ATOM     23  C   LIG    1       -1.427   4.603  -3.093  0.00  0.00    +0.040 C 
BRANCH  23  24
ATOM     24  C   LIG    1       -0.637   3.877  -4.183  0.00  0.00    +0.100 C 
BRANCH  24  25
ATOM     25  C   LIG    1       -1.306   4.092  -5.516  0.00  0.00    -0.070 A 
ATOM     26  C   LIG    1       -2.271   3.206  -5.957  0.00  0.00    +0.010 A 
ATOM     27  C   LIG    1       -2.889   3.406  -7.177  0.00  0.00    +0.020 A 
ATOM     28  C   LIG    1       -2.534   4.486  -7.963  0.00  0.00    +0.010 A 
ATOM     29  C   LIG    1       -1.564   5.370  -7.525  0.00  0.00    -0.030 A 
ATOM     30 CL   LIG    1       -1.118   6.728  -8.511  0.00  0.00    -0.070 Cl
ATOM     31  C   LIG    1       -0.950   5.173  -6.301  0.00  0.00    +0.020 A 
ENDBRANCH  24  25
ENDBRANCH  23  24
ENDBRANCH   1  23
TORSDOF 11
