REMARK  Name = ZINCtj00000mhSvj.1
REMARK                            x       y       z     vdW  Elec       q    Type
REMARK                         _______ _______ _______ _____ _____    ______ ____
ROOT
ATOM      1  C   LIG    1        1.327   5.645   1.442  0.00  0.00    +0.530 C 
ATOM      2  N   LIG    1        1.219   6.294   2.618  0.00  0.00    -0.630 N 
ATOM      3  C   LIG    1        1.158   5.555   3.888  0.00  0.00    +0.310 C 
ATOM      4  C   LIG    1       -0.042   6.067   4.691  0.00  0.00    +0.270 C 
ATOM      5  N   LIG    1        0.058   7.524   4.842  0.00  0.00    -0.500 N 
ATOM      6  C   LIG    1       -0.041   8.172   3.528  0.00  0.00    +0.270 C 
ATOM      7  H   LIG    1        0.944   7.758   5.265  0.00  0.00    +0.430 HD
ATOM      8  H   LIG    1       -0.691   7.852   5.434  0.00  0.00    +0.440 HD
ATOM      9  C   LIG    1        1.165   7.764   2.667  0.00  0.00    +0.290 C 
ATOM     10  O   LIG    1        1.300   6.266   0.401  0.00  0.00    -0.480 OA
ENDROOT
BRANCH   9  11
ATOM     11  C   LIG    1        1.002   8.312   1.273  0.00  0.00    -0.050 A 
ATOM     12  C   LIG    1        2.052   8.976   0.666  0.00  0.00    +0.020 A 
ATOM     13  C   LIG    1        1.905   9.479  -0.614  0.00  0.00    +0.060 A 
ATOM     14  C   LIG    1        0.709   9.319  -1.286  0.00  0.00    +0.000 A 
ATOM     15  C   LIG    1       -0.344   8.655  -0.679  0.00  0.00    +0.110 A 
ATOM     16  F   LIG    1       -1.514   8.498  -1.335  0.00  0.00    -0.140 F 
ATOM     17  C   LIG    1       -0.193   8.146   0.600  0.00  0.00    -0.010 A 
ENDBRANCH   9  11
BRANCH   1  18
ATOM     18  C   LIG    1        1.482   4.146   1.421  0.00  0.00    +0.060 C 
BRANCH  18  19
ATOM     19  C   LIG    1        1.583   3.664  -0.028  0.00  0.00    +0.350 C 
BRANCH  19  24
ATOM     20  O   LIG    1        4.356  -0.116  -0.003  0.00  0.00    -0.500 OA
ATOM     21  C   LIG    1        3.225   0.327  -0.032  0.00  0.00    +0.570 A 
ATOM     22  N   LIG    1        3.017   1.659  -0.015  0.00  0.00    -0.510 N 
ATOM     23  H   LIG    1        3.782   2.254   0.021  0.00  0.00    +0.430 HD
ATOM     24  N   LIG    1        1.734   2.207  -0.048  0.00  0.00    -0.410 N 
ATOM     25  C   LIG    1        0.630   1.436  -0.099  0.00  0.00    +0.570 A 
ATOM     26  C   LIG    1        0.770  -0.036  -0.120  0.00  0.00    -0.110 A 
ATOM     27  C   LIG    1       -0.336  -0.871  -0.172  0.00  0.00    +0.090 A 
ATOM     28  C   LIG    1       -0.157  -2.244  -0.191  0.00  0.00    +0.050 A 
ATOM     29  C   LIG    1        1.115  -2.787  -0.159  0.00  0.00    +0.050 A 
ATOM     30  C   LIG    1        2.229  -1.967  -0.107  0.00  0.00    +0.090 A 
ATOM     31  O   LIG    1       -0.472   1.947  -0.132  0.00  0.00    -0.510 OA
ATOM     32  C   LIG    1        2.066  -0.590  -0.087  0.00  0.00    -0.110 A 
ENDBRANCH  19  24
ENDBRANCH  18  19
ENDBRANCH   1  18
TORSDOF 4
