REMARK  Name = ZINCpk00000kZN35.1
REMARK                            x       y       z     vdW  Elec       q    Type
REMARK                         _______ _______ _______ _____ _____    ______ ____
ROOT
ATOM      1  C   LIG    1       -1.433  -0.534   0.013  0.00  0.00    +0.240 C 
ENDROOT
BRANCH   1   2
ATOM      2  C   LIG    1       -1.416  -2.058  -0.121  0.00  0.00    -0.020 C 
ATOM      3  C   LIG    1       -1.280  -2.547  -1.573  0.00  0.00    +0.020 C 
ATOM      4  C   LIG    1       -2.301  -3.640  -1.217  0.00  0.00    -0.010 C 
ATOM      5  C   LIG    1       -2.816  -2.692  -0.121  0.00  0.00    +0.020 C 
ENDBRANCH   1   2
BRANCH   1   6
ATOM      6  N   LIG    1       -2.176   0.047  -1.108  0.00  0.00    -0.730 N 
ATOM      7  H   LIG    1       -1.703   0.353  -1.897  0.00  0.00    +0.400 HD
ATOM      8  C   LIG    1       -3.518   0.155  -1.044  0.00  0.00    +0.510 C 
ATOM      9  O   LIG    1       -4.111  -0.229  -0.057  0.00  0.00    -0.520 OA
BRANCH   8  10
ATOM     10  C   LIG    1       -4.283   0.752  -2.197  0.00  0.00    +0.070 C 
BRANCH  10  11
ATOM     11  C   LIG    1       -5.777   0.757  -1.870  0.00  0.00    +0.040 C 
ATOM     12  C   LIG    1       -6.062   1.701  -0.725  0.00  0.00    -0.030 C 
ATOM     13  C   LIG    1       -7.111   2.438  -0.973  0.00  0.00    -0.060 C 
ATOM     14  C   LIG    1       -7.700   2.107  -2.324  0.00  0.00    +0.040 C 
ATOM     15  C   LIG    1       -6.587   1.326  -3.059  0.00  0.00    +0.020 C 
ENDBRANCH  10  11
ENDBRANCH   8  10
ENDBRANCH   1   6
BRANCH   1  16
ATOM     16  C   LIG    1        0.002  -0.004   0.002  0.00  0.00    +0.270 C 
BRANCH  16  19
ATOM     17  O   LIG    1        2.199   1.558  -0.011  0.00  0.00    -0.540 OA
ATOM     18  C   LIG    1        1.140   2.151   0.003  0.00  0.00    +0.520 C 
ATOM     19  N   LIG    1       -0.018   1.461   0.010  0.00  0.00    -0.730 N 
ATOM     20  H   LIG    1       -0.864   1.934   0.017  0.00  0.00    +0.400 HD
BRANCH  18  21
ATOM     21  C   LIG    1        1.120   3.657   0.011  0.00  0.00    +0.050 C 
BRANCH  21  22
ATOM     22  C   LIG    1        2.555   4.187   0.000  0.00  0.00    +0.160 C 
BRANCH  22  23
ATOM     23  C   LIG    1        2.535   5.694   0.008  0.00  0.00    -0.020 A 
ATOM     24  C   LIG    1        3.154   6.507   0.895  0.00  0.00    +0.160 A 
ATOM     25  N   LIG    1        2.860   7.772   0.515  0.00  0.00    -0.390 N 
ATOM     26  H   LIG    1        3.161   8.582   0.956  0.00  0.00    +0.450 HD
ATOM     27  N   LIG    1        2.114   7.716  -0.531  0.00  0.00    -0.080 NA
ATOM     28  N   LIG    1        1.905   6.490  -0.863  0.00  0.00    -0.260 NA
ENDBRANCH  22  23
ENDBRANCH  21  22
ENDBRANCH  18  21
ENDBRANCH  16  19
ENDBRANCH   1  16
TORSDOF 9
