REMARK  Name = ZINCpe000000W3Fw.0
REMARK                            x       y       z     vdW  Elec       q    Type
REMARK                         _______ _______ _______ _____ _____    ______ ____
ROOT
ATOM      1  C   LIG    1        4.480   4.179   1.133  0.00  0.00    +0.500 C 
ATOM      2  N   LIG    1        3.451   3.514   0.572  0.00  0.00    -0.720 N 
ATOM      3  H   LIG    1        2.566   3.909   0.561  0.00  0.00    +0.400 HD
ATOM      4  O   LIG    1        5.587   3.684   1.146  0.00  0.00    -0.520 OA
ENDROOT
BRANCH   2   5
ATOM      5  C   LIG    1        3.670   2.192  -0.021  0.00  0.00    +0.300 C 
ATOM      6  C   LIG    1        4.159   2.354  -1.462  0.00  0.00    +0.040 C 
BRANCH   5   7
ATOM      7  C   LIG    1        2.377   1.417  -0.013  0.00  0.00    -0.120 A 
ATOM      8  C   LIG    1        1.170   2.088   0.002  0.00  0.00    +0.050 A 
ATOM      9  C   LIG    1       -0.017   1.378   0.010  0.00  0.00    -0.020 A 
ATOM     10  C   LIG    1        0.002  -0.004   0.002  0.00  0.00    +0.050 A 
ATOM     11  C   LIG    1        1.207  -0.680  -0.013  0.00  0.00    -0.070 A 
ATOM     12  C   LIG    1        2.399   0.030  -0.021  0.00  0.00    +0.140 A 
BRANCH  12  13
ATOM     13  O   LIG    1        3.586  -0.632  -0.035  0.00  0.00    -0.310 OA
ATOM     14  C   LIG    1        3.531  -2.060  -0.042  0.00  0.00    +0.250 C 
ENDBRANCH  12  13
ENDBRANCH   5   7
ENDBRANCH   2   5
BRANCH   1  15
ATOM     15  C   LIG    1        4.255   5.539   1.743  0.00  0.00    +0.360 C 
BRANCH  15  20
ATOM     16  C   LIG    1        7.283   6.540   3.646  0.00  0.00    +0.130 C 
ATOM     17  N   LIG    1        7.472   7.125   2.308  0.00  0.00    -0.710 N 
ATOM     18  H   LIG    1        8.228   7.654   2.008  0.00  0.00    +0.450 HD
ATOM     19  C   LIG    1        6.391   6.784   1.583  0.00  0.00    +0.710 C 
ATOM     20  N   LIG    1        5.519   6.048   2.281  0.00  0.00    -0.560 N 
ATOM     21  O   LIG    1        6.226   7.108   0.423  0.00  0.00    -0.540 OA
ATOM     22  C   LIG    1        8.398   5.539   3.958  0.00  0.00    +0.090 C 
ATOM     23  C   LIG    1        5.944   5.838   3.543  0.00  0.00    +0.540 C 
ATOM     24  O   LIG    1        5.374   5.215   4.413  0.00  0.00    -0.450 OA
BRANCH  16  25
ATOM     25  C   LIG    1        7.234   7.637   4.711  0.00  0.00    +0.210 C 
BRANCH  25  27
ATOM     26  C   LIG    1        8.480   9.482   5.599  0.00  0.00    +0.210 C 
ATOM     27  O   LIG    1        8.425   8.423   4.641  0.00  0.00    -0.380 OA
ENDBRANCH  25  27
ENDBRANCH  16  25
ENDBRANCH  15  20
ENDBRANCH   1  15
TORSDOF 7
