REMARK  Name = ZINCvU0000000GPO.0
REMARK                            x       y       z     vdW  Elec       q    Type
REMARK                         _______ _______ _______ _____ _____    ______ ____
ROOT
ATOM      1  C   LIG    1       -4.510  -8.402  -1.773  0.00  0.00    +0.230 A 
ATOM      2  N   LIG    1       -4.616  -8.153  -0.488  0.00  0.00    -0.250 NA
ATOM      3  N   LIG    1       -4.253  -6.944  -0.244  0.00  0.00    -0.280 NA
ATOM      4  C   LIG    1       -3.901  -6.345  -1.359  0.00  0.00    +0.160 A 
ATOM      5  N   LIG    1       -4.048  -7.251  -2.370  0.00  0.00    -0.450 N 
ENDROOT
BRANCH   1  12
ATOM      6  F   LIG    1       -3.568 -10.887  -0.828  0.00  0.00    -0.120 F 
ATOM      7  C   LIG    1       -4.335 -10.883  -1.941  0.00  0.00    +0.140 A 
ATOM      8  C   LIG    1       -4.635 -12.071  -2.579  0.00  0.00    +0.000 A 
ATOM      9  C   LIG    1       -5.419 -12.068  -3.719  0.00  0.00    +0.070 A 
ATOM     10  C   LIG    1       -5.908 -10.877  -4.227  0.00  0.00    +0.010 A 
ATOM     11  C   LIG    1       -5.621  -9.684  -3.596  0.00  0.00    +0.060 A 
ATOM     12  C   LIG    1       -4.826  -9.677  -2.449  0.00  0.00    -0.060 A 
ENDBRANCH   1  12
BRANCH   4  13
ATOM     13  S   LIG    1       -3.337  -4.683  -1.519  0.00  0.00    +0.050 S 
BRANCH  13  14
ATOM     14  C   LIG    1       -3.418  -4.156   0.210  0.00  0.00    +0.270 C 
BRANCH  14  15
ATOM     15  C   LIG    1       -2.967  -2.722   0.320  0.00  0.00    +0.170 A 
ATOM     16  N   LIG    1       -3.728  -1.668   0.231  0.00  0.00    -0.250 NA
ATOM     17  N   LIG    1       -3.014  -0.607   0.371  0.00  0.00    -0.260 NA
ATOM     18  C   LIG    1       -1.758  -0.952   0.557  0.00  0.00    +0.260 A 
ATOM     19  O   LIG    1       -1.706  -2.299   0.522  0.00  0.00    -0.210 OA
BRANCH  18  20
ATOM     20  C   LIG    1       -0.623  -0.039   0.759  0.00  0.00    -0.160 A 
ATOM     21  C   LIG    1       -0.700   1.320   0.784  0.00  0.00    +0.110 A 
ATOM     22  C   LIG    1        0.505   1.956   0.989  0.00  0.00    +0.020 A 
ATOM     23  C   LIG    1        1.559   1.146   1.129  0.00  0.00    -0.010 A 
ATOM     24  S   LIG    1        1.048  -0.532   1.003  0.00  0.00    +0.180 S 
ENDBRANCH  18  20
ENDBRANCH  14  15
ENDBRANCH  13  14
ENDBRANCH   4  13
BRANCH   5  25
ATOM     25  C   LIG    1       -3.773  -7.042  -3.794  0.00  0.00    +0.360 C 
BRANCH  25  26
ATOM     26  C   LIG    1       -2.350  -7.436  -4.093  0.00  0.00    -0.130 A 
ATOM     27  C   LIG    1       -1.337  -6.502  -3.986  0.00  0.00    +0.040 A 
ATOM     28  C   LIG    1       -0.031  -6.865  -4.256  0.00  0.00    +0.010 A 
ATOM     29  C   LIG    1        0.261  -8.159  -4.644  0.00  0.00    +0.030 A 
ATOM     30  C   LIG    1       -0.753  -9.092  -4.758  0.00  0.00    +0.010 A 
ATOM     31  C   LIG    1       -2.058  -8.731  -4.482  0.00  0.00    +0.030 A 
ENDBRANCH  25  26
ENDBRANCH   5  25
TORSDOF 7
