REMARK  Name = ZINCpk000004FD9w.0
REMARK                            x       y       z     vdW  Elec       q    Type
REMARK                         _______ _______ _______ _____ _____    ______ ____
ROOT
ATOM      1  C   LIG    1        4.202  -0.595   0.702  0.00  0.00    +0.240 C 
ATOM      2  C   LIG    1        3.422  -1.811   0.214  0.00  0.00    +0.000 C 
ATOM      3  C   LIG    1        1.930  -1.658   0.451  0.00  0.00    +0.040 C 
ATOM      4  C   LIG    1        1.474  -0.386  -0.234  0.00  0.00    -0.020 C 
ATOM      5  C   LIG    1        0.008   0.002  -0.091  0.00  0.00    +0.260 C 
ATOM      6  N   LIG    1       -0.016   1.483  -0.038  0.00  0.00    -0.620 N 
ATOM      7  C   LIG    1        1.385   1.977  -0.067  0.00  0.00    +0.290 C 
ATOM      8  C   LIG    1       -1.122   2.251   0.020  0.00  0.00    +0.580 C 
ATOM      9  O   LIG    1       -1.019   3.454   0.161  0.00  0.00    -0.530 OA
ATOM     10  C   LIG    1        2.191   0.796   0.481  0.00  0.00    -0.020 C 
ATOM     11  C   LIG    1        3.655   0.711   0.099  0.00  0.00    +0.050 C 
ENDROOT
BRANCH   8  12
ATOM     12  C   LIG    1       -2.458   1.632  -0.088  0.00  0.00    -0.110 A 
ATOM     13  C   LIG    1       -2.703   0.389   0.502  0.00  0.00    +0.080 A 
ATOM     14  C   LIG    1       -3.949  -0.191   0.404  0.00  0.00    +0.070 A 
ATOM     15  C   LIG    1       -4.966   0.458  -0.283  0.00  0.00    +0.060 A 
ATOM     16  O   LIG    1       -6.258   0.135  -0.536  0.00  0.00    -0.230 OA
ATOM     17  C   LIG    1       -6.826   1.117  -1.254  0.00  0.00    +0.640 A 
ATOM     18  N   LIG    1       -5.922   2.090  -1.481  0.00  0.00    -0.650 N 
ATOM     19  H   LIG    1       -6.074   2.911  -1.975  0.00  0.00    +0.450 HD
ATOM     20  O   LIG    1       -7.979   1.126  -1.640  0.00  0.00    -0.480 OA
ATOM     21  C   LIG    1       -4.727   1.700  -0.876  0.00  0.00    +0.060 A 
ATOM     22  C   LIG    1       -3.481   2.290  -0.775  0.00  0.00    +0.100 A 
ENDBRANCH   8  12
BRANCH   1  25
ATOM     23  C   LIG    1        7.886  -1.635   0.693  0.00  0.00    +0.110 C 
ATOM     24  C   LIG    1        6.439  -1.481   1.085  0.00  0.00    +0.510 C 
ATOM     25  N   LIG    1        5.609  -0.745   0.321  0.00  0.00    -0.730 N 
ATOM     26  H   LIG    1        5.942  -0.314  -0.482  0.00  0.00    +0.400 HD
ATOM     27  O   LIG    1        6.022  -2.020   2.088  0.00  0.00    -0.540 OA
ENDBRANCH   1  25
TORSDOF 2
