REMARK  Name = ZINCpe000000Tqs1.0
REMARK                            x       y       z     vdW  Elec       q    Type
REMARK                         _______ _______ _______ _____ _____    ______ ____
ROOT
ATOM      1  C   LIG    1        0.076   4.340   0.024  0.00  0.00    +0.100 C 
ENDROOT
BRANCH   1   3
ATOM      2  N   LIG    1       -0.762   6.667   0.045  0.00  0.00    -0.590 N 
ATOM      3  C   LIG    1        0.295   5.831   0.030  0.00  0.00    +0.540 C 
ATOM      4  O   LIG    1        1.422   6.279   0.021  0.00  0.00    -0.510 OA
BRANCH   2   5
ATOM      5  C   LIG    1       -0.550   8.117   0.050  0.00  0.00    +0.280 C 
ATOM      6  C   LIG    1        0.268   8.525   1.287  0.00  0.00    +0.060 C 
ATOM      7  C   LIG    1        0.763   9.972   1.097  0.00  0.00    -0.310 C 
ATOM      8  S   LIG    1        0.898  10.195  -0.714  0.00  0.00    +2.390 S 
ATOM      9  O   LIG    1        2.267  10.313  -1.073  0.00  0.00    -0.930 OA
ATOM     10  O   LIG    1       -0.033  11.183  -1.137  0.00  0.00    -0.930 OA
ATOM     11  C   LIG    1        0.280   8.536  -1.190  0.00  0.00    -0.310 C 
ENDBRANCH   2   5
BRANCH   2  13
ATOM     12  C   LIG    1       -2.584   5.930   1.501  0.00  0.00    +0.020 C 
ATOM     13  C   LIG    1       -2.124   6.126   0.055  0.00  0.00    +0.280 C 
ENDBRANCH   2  13
ENDBRANCH   1   3
BRANCH   1  14
ATOM     14  S   LIG    1        1.681   3.494   0.004  0.00  0.00    +0.120 S 
BRANCH  14  15
ATOM     15  C   LIG    1        1.231   1.791  -0.000  0.00  0.00    +0.230 A 
ATOM     16  N   LIG    1        2.077   0.780  -0.014  0.00  0.00    -0.310 NA
ATOM     17  N   LIG    1        1.312  -0.394  -0.013  0.00  0.00    -0.320 N 
ATOM     18  C   LIG    1        1.633  -1.714  -0.023  0.00  0.00    +0.210 A 
ATOM     19  C   LIG    1        0.635  -2.636  -0.019  0.00  0.00    -0.050 A 
ATOM     20  C   LIG    1       -0.695  -2.203  -0.004  0.00  0.00    +0.240 A 
ATOM     21  N   LIG    1       -0.974  -0.919   0.006  0.00  0.00    -0.470 NA
ATOM     22  C   LIG    1       -1.813  -3.214   0.001  0.00  0.00    +0.180 C 
ATOM     23  C   LIG    1        3.076  -2.149  -0.039  0.00  0.00    +0.160 C 
ATOM     24  C   LIG    1        0.002  -0.004   0.002  0.00  0.00    +0.460 A 
ATOM     25  N   LIG    1       -0.016   1.325   0.009  0.00  0.00    -0.530 NA
ENDBRANCH  14  15
ENDBRANCH   1  14
TORSDOF 5
