REMARK  Name = ZINCkj000005haO2.0
REMARK                            x       y       z     vdW  Elec       q    Type
REMARK                         _______ _______ _______ _____ _____    ______ ____
ROOT
ATOM      1  N   LIG    1       -0.947   2.995  -5.801  0.00  0.00    -0.690 NA
ATOM      2  H   LIG    1       -1.886   3.197  -5.666  0.00  0.00    +0.430 HD
ENDROOT
BRANCH   1   3
ATOM      3  C   LIG    1       -0.332   3.214  -7.112  0.00  0.00    +0.330 C 
BRANCH   3   7
ATOM      4  C   LIG    1       -3.262   4.745  -9.822  0.00  0.00    +0.240 A 
ATOM      5  C   LIG    1       -2.497   5.617  -9.058  0.00  0.00    -0.070 A 
ATOM      6  C   LIG    1       -1.551   5.119  -8.184  0.00  0.00    +0.080 A 
ATOM      7  C   LIG    1       -1.365   3.754  -8.068  0.00  0.00    -0.200 A 
ATOM      8  C   LIG    1       -2.121   2.883  -8.831  0.00  0.00    +0.080 A 
ATOM      9  C   LIG    1       -3.072   3.374  -9.703  0.00  0.00    -0.070 A 
BRANCH   4  11
ATOM     10  C   LIG    1       -4.418   6.691 -10.831  0.00  0.00    +0.280 C 
ATOM     11  N   LIG    1       -4.220   5.245 -10.707  0.00  0.00    -0.630 N 
ATOM     12  C   LIG    1       -5.025   4.323 -11.512  0.00  0.00    +0.290 C 
ENDBRANCH   4  11
ENDBRANCH   3   7
ENDBRANCH   1   3
BRANCH   1  13
ATOM     13  C   LIG    1       -0.194   2.503  -4.762  0.00  0.00    +0.730 C 
BRANCH  13  14
ATOM     14  N   LIG    1        1.068   2.232  -4.943  0.00  0.00    -0.780 NA
ATOM     15  H   LIG    1        1.600   1.884  -4.210  0.00  0.00    +0.440 HD
ATOM     16  H   LIG    1        1.476   2.377  -5.812  0.00  0.00    +0.440 HD
ENDBRANCH  13  14
BRANCH  13  17
ATOM     17  N   LIG    1       -0.771   2.297  -3.531  0.00  0.00    -0.690 NA
ATOM     18  H   LIG    1       -1.710   2.500  -3.396  0.00  0.00    +0.440 HD
BRANCH  17  19
ATOM     19  C   LIG    1        0.032   1.773  -2.424  0.00  0.00    +0.300 C 
BRANCH  19  20
ATOM     20  C   LIG    1       -0.844   1.640  -1.177  0.00  0.00    +0.160 C 
ATOM     21  C   LIG    1       -0.013   1.086   0.008  0.00  0.00    +0.030 C 
ATOM     22  C   LIG    1       -0.823   1.628   1.217  0.00  0.00    +0.010 C 
ATOM     23  C   LIG    1       -1.334   2.985   0.686  0.00  0.00    +0.210 C 
ATOM     24  O   LIG    1       -1.297   2.933  -0.745  0.00  0.00    -0.380 OA
ENDBRANCH  19  20
ENDBRANCH  17  19
ENDBRANCH  13  17
ENDBRANCH   1  13
TORSDOF 8
