REMARK  Name = ZINCpk000004WvY7.2
REMARK                            x       y       z     vdW  Elec       q    Type
REMARK                         _______ _______ _______ _____ _____    ______ ____
ROOT
ATOM      1  C   LIG    1       -0.729   1.579   1.267  0.00  0.00    +0.230 C 
ATOM      2  C   LIG    1       -0.013   1.086   0.008  0.00  0.00    +0.030 C 
ENDROOT
BRANCH   1   3
ATOM      3  N   LIG    1       -2.103   1.072   1.277  0.00  0.00    -0.730 N 
ATOM      4  H   LIG    1       -2.316   0.256   1.757  0.00  0.00    +0.400 HD
ATOM      5  C   LIG    1       -3.073   1.740   0.621  0.00  0.00    +0.520 C 
ATOM      6  O   LIG    1       -2.807   2.760   0.021  0.00  0.00    -0.520 OA
BRANCH   5   7
ATOM      7  C   LIG    1       -4.487   1.218   0.631  0.00  0.00    +0.170 C 
BRANCH   7   8
ATOM      8  C   LIG    1       -5.368   2.140  -0.170  0.00  0.00    +0.030 A 
ATOM      9  N   LIG    1       -5.516   3.422   0.001  0.00  0.00    -0.330 NA
ATOM     10  O   LIG    1       -6.292   3.892  -0.798  0.00  0.00    +0.110 OA
ATOM     11  C   LIG    1       -6.774   2.955  -1.627  0.00  0.00    +0.000 A 
ATOM     12  C   LIG    1       -6.195   1.786  -1.262  0.00  0.00    -0.050 A 
BRANCH  11  13
ATOM     13  C   LIG    1       -7.759   3.162  -2.748  0.00  0.00    +0.050 C 
ATOM     14  C   LIG    1       -8.123   4.602  -3.112  0.00  0.00    +0.040 C 
ATOM     15  C   LIG    1       -9.137   3.719  -2.383  0.00  0.00    +0.050 C 
ENDBRANCH  11  13
ENDBRANCH   7   8
ENDBRANCH   5   7
ENDBRANCH   1   3
BRANCH   1  16
ATOM     16  C   LIG    1        0.011   1.072   2.506  0.00  0.00    +0.040 C 
BRANCH  16  17
ATOM     17  C   LIG    1       -0.630   1.667   3.762  0.00  0.00    +0.230 C 
ATOM     18  C   LIG    1        0.028   1.065   5.005  0.00  0.00    +0.030 C 
BRANCH  17  20
ATOM     19  C   LIG    1       -1.299   3.909   4.443  0.00  0.00    +0.520 C 
ATOM     20  N   LIG    1       -0.442   3.120   3.765  0.00  0.00    -0.730 N 
ATOM     21  H   LIG    1        0.300   3.514   3.280  0.00  0.00    +0.400 HD
ATOM     22  O   LIG    1       -2.226   3.416   5.050  0.00  0.00    -0.520 OA
BRANCH  19  23
ATOM     23  C   LIG    1       -1.105   5.403   4.446  0.00  0.00    +0.190 C 
BRANCH  23  24
ATOM     24  N   LIG    1       -2.162   6.032   5.250  0.00  0.00    -0.520 NA
ATOM     25  C   LIG    1       -3.478   5.852   4.622  0.00  0.00    +0.200 C 
BRANCH  24  27
ATOM     26  C   LIG    1       -2.853   8.015   6.510  0.00  0.00    +0.030 C 
ATOM     27  C   LIG    1       -1.876   7.456   5.474  0.00  0.00    +0.150 C 
ENDBRANCH  24  27
ENDBRANCH  23  24
ENDBRANCH  19  23
ENDBRANCH  17  20
ENDBRANCH  16  17
ENDBRANCH   1  16
TORSDOF 10
