REMARK  Name = ZINCkj000005jVHn.0
REMARK                            x       y       z     vdW  Elec       q    Type
REMARK                         _______ _______ _______ _____ _____    ______ ____
ROOT
ATOM      1  C   LIG    1        2.877   6.961   1.733  0.00  0.00    +0.090 C 
ENDROOT
BRANCH   1  11
ATOM      2  C   LIG    1        5.331  10.303   1.026  0.00  0.00    +0.080 C 
ATOM      3  C   LIG    1        5.863   9.348   2.097  0.00  0.00    +0.230 C 
ATOM      4  C   LIG    1        6.081  10.112   3.407  0.00  0.00    +0.270 C 
ATOM      5  N   LIG    1        6.460   9.168   4.466  0.00  0.00    -0.510 N 
ATOM      6  C   LIG    1        5.352   8.240   4.729  0.00  0.00    +0.270 C 
ATOM      7  C   LIG    1        5.096   7.387   3.487  0.00  0.00    +0.310 C 
ATOM      8  H   LIG    1        6.676   9.679   5.308  0.00  0.00    +0.440 HD
ATOM      9  H   LIG    1        7.272   8.645   4.174  0.00  0.00    +0.430 HD
ATOM     10  N   LIG    1        4.881   8.279   2.337  0.00  0.00    -0.630 N 
ATOM     11  C   LIG    1        3.812   8.126   1.531  0.00  0.00    +0.530 C 
ATOM     12  O   LIG    1        3.603   8.925   0.643  0.00  0.00    -0.500 OA
ENDBRANCH   1  11
BRANCH   1  13
ATOM     13  C   LIG    1        1.756   7.021   0.693  0.00  0.00    +0.180 C 
BRANCH  13  14
ATOM     14  C   LIG    1        0.822   5.856   0.894  0.00  0.00    +0.270 A 
ATOM     15  N   LIG    1        1.182   4.606   0.917  0.00  0.00    -0.490 NA
ATOM     16  C   LIG    1        0.093   3.820   1.119  0.00  0.00    +0.040 A 
ATOM     17  C   LIG    1       -0.092   2.440   1.228  0.00  0.00    +0.070 A 
ATOM     18  C   LIG    1       -1.344   1.935   1.436  0.00  0.00    +0.010 A 
ATOM     19  C   LIG    1       -2.440   2.780   1.537  0.00  0.00    +0.040 A 
ATOM     20  C   LIG    1       -2.280   4.146   1.437  0.00  0.00    +0.020 A 
ATOM     21  C   LIG    1       -1.015   4.677   1.226  0.00  0.00    +0.050 A 
ATOM     22  N   LIG    1       -0.522   5.958   1.080  0.00  0.00    -0.600 N 
ATOM     23  H   LIG    1       -1.038   6.779   1.104  0.00  0.00    +0.420 HD
ENDBRANCH  13  14
ENDBRANCH   1  13
TORSDOF 3
