REMARK  Name = ZINCnE000001TyJ2.0
REMARK                            x       y       z     vdW  Elec       q    Type
REMARK                         _______ _______ _______ _____ _____    ______ ____
ROOT
ATOM      1  C   LIG    1        5.809   3.550  -0.912  0.00  0.00    -0.030 C 
ATOM      2  C   LIG    1        5.967   2.031  -0.814  0.00  0.00    +0.020 C 
ATOM      3  C   LIG    1        4.607   1.360  -1.020  0.00  0.00    +0.010 C 
ATOM      4  C   LIG    1        3.644   1.819   0.080  0.00  0.00    +0.260 C 
ATOM      5  N   LIG    1        3.598   3.287   0.086  0.00  0.00    -0.600 N 
ATOM      6  C   LIG    1        2.420   3.937  -0.001  0.00  0.00    +0.550 C 
ATOM      7  O   LIG    1        2.401   5.148  -0.102  0.00  0.00    -0.520 OA
ATOM      8  C   LIG    1        4.859   4.033   0.183  0.00  0.00    +0.280 C 
ENDROOT
BRANCH   6   9
ATOM      9  C   LIG    1        1.152   3.177   0.026  0.00  0.00    -0.120 A 
ATOM     10  C   LIG    1        0.994   2.110   0.911  0.00  0.00    +0.080 A 
ATOM     11  C   LIG    1       -0.192   1.404   0.931  0.00  0.00    +0.010 A 
ATOM     12  C   LIG    1       -1.220   1.750   0.073  0.00  0.00    +0.090 A 
ATOM     13  C   LIG    1       -1.071   2.811  -0.803  0.00  0.00    -0.190 A 
ATOM     14  C   LIG    1        0.109   3.524  -0.833  0.00  0.00    +0.130 A 
BRANCH  13  15
ATOM     15  C   LIG    1       -2.200   3.183  -1.730  0.00  0.00    +0.510 C 
ATOM     16  F   LIG    1       -2.151   4.556  -1.995  0.00  0.00    -0.170 F 
ATOM     17  F   LIG    1       -3.422   2.867  -1.128  0.00  0.00    -0.180 F 
ATOM     18  F   LIG    1       -2.072   2.473  -2.929  0.00  0.00    -0.180 F 
ENDBRANCH  13  15
ENDBRANCH   6   9
BRANCH   1  19
ATOM     19  C   LIG    1        7.174   4.219  -0.740  0.00  0.00    +0.040 C 
BRANCH  19  20
ATOM     20  C   LIG    1        7.036   5.726  -0.962  0.00  0.00    -0.070 C 
BRANCH  20  22
ATOM     21  O   LIG    1        9.359   5.710  -0.518  0.00  0.00    -0.700 OA
ATOM     22  C   LIG    1        8.381   6.384  -0.792  0.00  0.00    +0.490 C 
ATOM     23  O   LIG    1        8.490   7.591  -0.928  0.00  0.00    -0.710 OA
ENDBRANCH  20  22
ENDBRANCH  19  20
ENDBRANCH   1  19
TORSDOF 5
