REMARK  Name = ZINCpe000000SGNX.2
REMARK                            x       y       z     vdW  Elec       q    Type
REMARK                         _______ _______ _______ _____ _____    ______ ____
ROOT
ATOM      1  N   LIG    1       -1.517   5.173  -1.565  0.00  0.00    -0.480 NA
ATOM      2  C   LIG    1       -2.001   5.187  -0.168  0.00  0.00    +0.170 C 
ATOM      3  C   LIG    1       -2.937   6.401  -0.026  0.00  0.00    +0.030 C 
ATOM      4  C   LIG    1       -2.975   7.048  -1.429  0.00  0.00    +0.070 C 
ATOM      5  C   LIG    1       -2.552   5.884  -2.359  0.00  0.00    +0.190 C 
ENDROOT
BRANCH   4   6
ATOM      6  C   LIG    1       -4.367   7.518  -1.763  0.00  0.00    +0.210 A 
ATOM      7  C   LIG    1       -4.594   8.818  -2.050  0.00  0.00    -0.110 A 
ATOM      8  C   LIG    1       -5.911   9.236  -2.360  0.00  0.00    +0.550 A 
ATOM      9  N   LIG    1       -6.909   8.329  -2.362  0.00  0.00    -0.660 N 
ATOM     10  H   LIG    1       -7.814   8.607  -2.574  0.00  0.00    +0.430 HD
ATOM     11  C   LIG    1       -6.655   7.039  -2.073  0.00  0.00    +0.700 A 
ATOM     12  O   LIG    1       -7.565   6.233  -2.079  0.00  0.00    -0.540 OA
ATOM     13  O   LIG    1       -6.140  10.403  -2.622  0.00  0.00    -0.510 OA
ATOM     14  N   LIG    1       -5.407   6.629  -1.782  0.00  0.00    -0.640 N 
ATOM     15  H   LIG    1       -5.243   5.694  -1.580  0.00  0.00    +0.430 HD
ENDBRANCH   4   6
BRANCH   1  20
ATOM     16  N   LIG    1       -0.802   1.770  -0.686  0.00  0.00    -0.600 N 
ATOM     17  C   LIG    1       -1.947   1.012  -1.177  0.00  0.00    +0.250 C 
ATOM     18  C   LIG    1       -2.494   1.637  -2.459  0.00  0.00    +0.040 C 
ATOM     19  C   LIG    1       -2.706   3.138  -2.227  0.00  0.00    -0.010 C 
ATOM     20  C   LIG    1       -1.336   3.797  -2.046  0.00  0.00    +0.190 C 
ATOM     21  C   LIG    1       -0.524   3.022  -1.049  0.00  0.00    +0.520 C 
ATOM     22  O   LIG    1        0.437   3.565  -0.546  0.00  0.00    -0.520 OA
BRANCH  16  23
ATOM     23  C   LIG    1        0.101   1.112   0.261  0.00  0.00    +0.290 C 
BRANCH  23  25
ATOM     24  C   LIG    1        2.080   1.449  -1.228  0.00  0.00    +0.030 C 
ATOM     25  C   LIG    1        1.221   0.407  -0.509  0.00  0.00    -0.080 C 
ATOM     26  C   LIG    1        0.610  -0.548  -1.536  0.00  0.00    +0.030 C 
ATOM     27  C   LIG    1        2.091  -0.385   0.469  0.00  0.00    +0.040 C 
ENDBRANCH  23  25
ENDBRANCH  16  23
ENDBRANCH   1  20
TORSDOF 4
