REMARK  Name = ZINCkj00000TAmVY.0
REMARK                            x       y       z     vdW  Elec       q    Type
REMARK                         _______ _______ _______ _____ _____    ______ ____
ROOT
ATOM      1  O   LIG    1       -2.395  -2.168   9.051  0.00  0.00    -0.540 OA
ATOM      2  C   LIG    1       -1.893  -2.219   7.938  0.00  0.00    +0.550 A 
ATOM      3  N   LIG    1       -1.196  -3.254   7.427  0.00  0.00    -0.640 N 
ATOM      4  H   LIG    1       -1.015  -4.084   7.895  0.00  0.00    +0.420 HD
ATOM      5  C   LIG    1       -0.776  -2.965   6.137  0.00  0.00    +0.170 A 
ATOM      6  C   LIG    1       -1.196  -1.737   5.797  0.00  0.00    +0.050 A 
ATOM      7  N   LIG    1       -1.081  -0.941   4.658  0.00  0.00    -0.580 N 
ATOM      8  H   LIG    1       -0.601  -1.270   3.882  0.00  0.00    +0.410 HD
ATOM      9  C   LIG    1       -1.639   0.301   4.638  0.00  0.00    +0.510 A 
ATOM     10  C   LIG    1       -2.337   0.804   5.722  0.00  0.00    -0.260 A 
ATOM     11  C   LIG    1       -2.494   0.066   6.883  0.00  0.00    +0.270 A 
ATOM     12 CL   LIG    1       -3.028   2.394   5.625  0.00  0.00    -0.050 Cl
ATOM     13  C   LIG    1       -1.939  -1.210   6.960  0.00  0.00    -0.280 A 
ENDROOT
BRANCH   9  14
ATOM     14  N   LIG    1       -1.511   1.071   3.513  0.00  0.00    -0.730 N 
ATOM     15  H   LIG    1       -1.906   1.956   3.483  0.00  0.00    +0.430 HD
BRANCH  14  16
ATOM     16  C   LIG    1       -0.776   0.558   2.354  0.00  0.00    +0.290 C 
BRANCH  16  17
ATOM     17  C   LIG    1       -0.782   1.607   1.240  0.00  0.00    -0.120 C 
ATOM     18  C   LIG    1       -2.223   1.850   0.736  0.00  0.00    +0.080 C 
ATOM     19  C   LIG    1       -2.199   1.455  -0.756  0.00  0.00    +0.280 C 
ATOM     20  N   LIG    1       -0.776   1.600  -1.158  0.00  0.00    -0.520 N 
ATOM     21  H   LIG    1       -0.583   1.045  -1.979  0.00  0.00    +0.440 HD
ATOM     22  H   LIG    1       -0.553   2.570  -1.326  0.00  0.00    +0.440 HD
ATOM     23  C   LIG    1       -0.013   1.086   0.008  0.00  0.00    +0.310 C 
BRANCH  17  24
ATOM     24  C   LIG    1       -0.165   2.915   1.739  0.00  0.00    +0.260 C 
ATOM     25  F   LIG    1       -0.225   3.876   0.723  0.00  0.00    -0.210 F 
ENDBRANCH  17  24
ENDBRANCH  16  17
ENDBRANCH  14  16
ENDBRANCH   9  14
TORSDOF 4
