REMARK  Name = ZINCrD00000hQ5AS.0
REMARK                            x       y       z     vdW  Elec       q    Type
REMARK                         _______ _______ _______ _____ _____    ______ ____
ROOT
ATOM      1  C   LIG    1       -6.831  -4.334   1.755  0.00  0.00    +0.620 C 
ATOM      2  N   LIG    1       -5.679  -3.688   2.027  0.00  0.00    -0.610 N 
ATOM      3  C   LIG    1       -4.674  -4.106   3.021  0.00  0.00    +0.260 C 
ATOM      4  C   LIG    1       -3.917  -2.805   3.395  0.00  0.00    +0.020 C 
ATOM      5  C   LIG    1       -3.869  -2.071   2.029  0.00  0.00    +0.270 C 
ATOM      6  C   LIG    1       -5.218  -2.451   1.381  0.00  0.00    +0.220 C 
ATOM      7  C   LIG    1       -5.026  -2.686  -0.119  0.00  0.00    +0.040 C 
ATOM      8  O   LIG    1       -7.629  -3.851   0.975  0.00  0.00    -0.540 OA
ENDROOT
BRANCH   1  10
ATOM      9  C   LIG    1       -8.307  -6.330   2.330  0.00  0.00    +0.170 A 
ATOM     10  C   LIG    1       -7.123  -5.625   2.405  0.00  0.00    -0.300 A 
ATOM     11  C   LIG    1       -6.241  -6.375   3.215  0.00  0.00    +0.270 A 
ATOM     12  N   LIG    1       -6.867  -7.452   3.602  0.00  0.00    -0.290 NA
ATOM     13  N   LIG    1       -8.157  -7.446   3.060  0.00  0.00    -0.350 N 
BRANCH  13  14
ATOM     14  C   LIG    1       -9.172  -8.485   3.255  0.00  0.00    +0.180 C 
ATOM     15  C   LIG    1      -10.439  -7.856   3.837  0.00  0.00    +0.060 C 
ATOM     16  C   LIG    1       -8.638  -9.544   4.221  0.00  0.00    +0.080 C 
ATOM     17  C   LIG    1       -9.497  -9.139   1.911  0.00  0.00    +0.050 C 
ENDBRANCH  13  14
BRANCH   9  19
ATOM     18  C   LIG    1      -10.384  -4.978   2.433  0.00  0.00    +0.040 C 
ATOM     19  C   LIG    1       -9.543  -5.921   1.570  0.00  0.00    +0.110 C 
ENDBRANCH   9  19
ENDBRANCH   1  10
BRANCH   5  20
ATOM     20  N   LIG    1       -3.777  -0.622   2.222  0.00  0.00    -0.700 N 
ATOM     21  H   LIG    1       -4.584  -0.086   2.268  0.00  0.00    +0.410 HD
ATOM     22  C   LIG    1       -2.570  -0.033   2.334  0.00  0.00    +0.650 C 
ATOM     23  O   LIG    1       -1.558  -0.704   2.275  0.00  0.00    -0.560 OA
BRANCH  22  24
ATOM     24  O   LIG    1       -2.485   1.299   2.511  0.00  0.00    -0.360 OA
BRANCH  24  25
ATOM     25  C   LIG    1       -1.152   1.865   2.624  0.00  0.00    +0.140 C 
ATOM     26  C   LIG    1       -1.256   3.379   2.820  0.00  0.00    +0.080 C 
ATOM     27  C   LIG    1       -0.434   1.244   3.824  0.00  0.00    +0.040 C 
ATOM     28  C   LIG    1       -0.362   1.569   1.348  0.00  0.00    +0.040 C 
ENDBRANCH  24  25
ENDBRANCH  22  24
ENDBRANCH   5  20
TORSDOF 6
