REMARK  Name = ZINCpk00000ebf7z.0
REMARK                            x       y       z     vdW  Elec       q    Type
REMARK                         _______ _______ _______ _____ _____    ______ ____
ROOT
ATOM      1  C   LIG    1       -0.800   1.573  -1.185  0.00  0.00    +0.520 C 
ATOM      2  N   LIG    1       -2.086   1.202  -1.343  0.00  0.00    -0.610 N 
ATOM      3  C   LIG    1       -2.678   0.168  -0.483  0.00  0.00    +0.260 C 
ATOM      4  C   LIG    1       -3.295  -0.918  -1.363  0.00  0.00    +0.010 C 
ATOM      5  C   LIG    1       -4.278  -0.278  -2.345  0.00  0.00    +0.020 C 
ATOM      6  C   LIG    1       -3.533   0.710  -3.245  0.00  0.00    +0.020 C 
ATOM      7  C   LIG    1       -2.921   1.818  -2.383  0.00  0.00    +0.310 C 
ATOM      8  O   LIG    1       -0.290   2.343  -1.971  0.00  0.00    -0.480 OA
ENDROOT
BRANCH   7   9
ATOM      9  C   LIG    1       -2.073   2.721  -3.242  0.00  0.00    -0.210 A 
ATOM     10  C   LIG    1       -1.467   2.377  -4.402  0.00  0.00    +0.230 A 
ATOM     11  N   LIG    1       -0.807   3.461  -4.859  0.00  0.00    -0.370 N 
ATOM     12  N   LIG    1       -1.015   4.507  -3.950  0.00  0.00    -0.290 NA
ATOM     13  C   LIG    1       -0.014   3.533  -6.089  0.00  0.00    +0.340 C 
ATOM     14  C   LIG    1       -1.778   4.064  -2.985  0.00  0.00    +0.250 A 
ENDBRANCH   7   9
BRANCH   1  18
ATOM     15  C   LIG    1        0.758   1.791   2.107  0.00  0.00    +0.180 C 
ATOM     16  N   LIG    1        1.753   1.754   1.285  0.00  0.00    -0.300 NA
ATOM     17  O   LIG    1        1.351   1.546  -0.055  0.00  0.00    -0.170 OA
ATOM     18  C   LIG    1        0.004   1.032  -0.031  0.00  0.00    +0.130 C 
ATOM     19  C   LIG    1       -0.520   1.584   1.317  0.00  0.00    +0.090 C 
BRANCH  15  23
ATOM     20  C   LIG    1        2.562   2.565   6.705  0.00  0.00    +0.360 C 
ATOM     21  N   LIG    1        1.647   2.339   5.583  0.00  0.00    -0.360 N 
ATOM     22  C   LIG    1        2.004   2.189   4.294  0.00  0.00    +0.300 A 
ATOM     23  C   LIG    1        0.849   2.000   3.565  0.00  0.00    -0.210 A 
ATOM     24  C   LIG    1       -0.231   2.049   4.473  0.00  0.00    +0.280 A 
ATOM     25  N   LIG    1        0.253   2.245   5.669  0.00  0.00    -0.290 NA
ENDBRANCH  15  23
ENDBRANCH   1  18
TORSDOF 3
