REMARK  Name = ZINCpe000000Tdn1.0
REMARK                            x       y       z     vdW  Elec       q    Type
REMARK                         _______ _______ _______ _____ _____    ______ ____
ROOT
ATOM      1  N   LIG    1       -1.691  -0.943  -3.916  0.00  0.00    -0.610 N 
ATOM      2  C   LIG    1       -2.561   0.233  -3.798  0.00  0.00    +0.290 C 
ATOM      3  C   LIG    1       -2.062   0.992  -2.548  0.00  0.00    +0.000 C 
ATOM      4  C   LIG    1       -0.586   0.537  -2.471  0.00  0.00    +0.090 C 
ATOM      5  C   LIG    1       -0.572  -0.797  -3.185  0.00  0.00    +0.530 C 
ATOM      6  O   LIG    1        0.319  -1.616  -3.110  0.00  0.00    -0.530 OA
ENDROOT
BRANCH   1  11
ATOM      7  C   LIG    1       -1.624  -6.017  -6.575  0.00  0.00    +0.000 C 
ATOM      8  C   LIG    1       -1.299  -4.784  -5.730  0.00  0.00    -0.030 C 
ATOM      9  C   LIG    1       -1.241  -3.549  -6.631  0.00  0.00    +0.020 C 
ATOM     10  C   LIG    1       -0.916  -2.316  -5.785  0.00  0.00    -0.000 C 
ATOM     11  C   LIG    1       -2.002  -2.123  -4.725  0.00  0.00    +0.250 C 
ATOM     12  C   LIG    1       -2.060  -3.359  -3.824  0.00  0.00    +0.010 C 
ATOM     13  C   LIG    1       -2.385  -4.592  -4.669  0.00  0.00    +0.010 C 
ENDBRANCH   1  11
BRANCH   3  14
ATOM     14  C   LIG    1       -2.822   0.565  -1.319  0.00  0.00    +0.540 C 
ATOM     15  N   LIG    1       -3.070   1.454  -0.337  0.00  0.00    -0.580 N 
ATOM     16  O   LIG    1       -3.212  -0.579  -1.213  0.00  0.00    -0.540 OA
BRANCH  15  17
ATOM     17  C   LIG    1       -2.698   2.861  -0.511  0.00  0.00    +0.200 C 
BRANCH  17  18
ATOM     18  C   LIG    1       -1.252   3.049  -0.129  0.00  0.00    +0.470 C 
ATOM     19  O   LIG    1       -0.727   4.143  -0.251  0.00  0.00    -0.680 OA
ATOM     20  O   LIG    1       -0.606   2.106   0.296  0.00  0.00    -0.670 OA
ENDBRANCH  17  18
ENDBRANCH  15  17
BRANCH  15  21
ATOM     21  C   LIG    1       -3.711   1.015   0.905  0.00  0.00    +0.300 C 
BRANCH  21  22
ATOM     22  C   LIG    1       -5.230   1.134   0.765  0.00  0.00    +0.230 C 
BRANCH  22  23
ATOM     23  N   LIG    1       -5.872   0.693   2.010  0.00  0.00    -0.380 N 
ATOM     24  C   LIG    1       -7.331   0.694   1.835  0.00  0.00    +0.320 C 
ATOM     25  C   LIG    1       -5.510   1.610   3.099  0.00  0.00    +0.320 C 
ATOM     26  H   LIG    1       -5.561  -0.239   2.238  0.00  0.00    +0.430 HD
ENDBRANCH  22  23
ENDBRANCH  21  22
ENDBRANCH  15  21
ENDBRANCH   3  14
TORSDOF 7
