REMARK  Name = ZINCpk00000xOAtL.0
REMARK                            x       y       z     vdW  Elec       q    Type
REMARK                         _______ _______ _______ _____ _____    ______ ____
ROOT
ATOM      1  C   LIG    1       -2.560   1.371  -0.152  0.00  0.00    +0.150 A 
ATOM      2  C   LIG    1       -1.310   1.920  -0.080  0.00  0.00    -0.090 A 
ATOM      3  N   LIG    1       -1.438   3.241   0.136  0.00  0.00    -0.170 NA
ATOM      4  N   LIG    1       -2.686   3.548   0.209  0.00  0.00    -0.040 NA
ATOM      5  N   LIG    1       -3.440   2.379   0.034  0.00  0.00    -0.320 N 
ENDROOT
BRANCH   5   6
ATOM      6  C   LIG    1       -4.838   2.277   0.043  0.00  0.00    +0.140 A 
ATOM      7  C   LIG    1       -5.455   1.238   0.727  0.00  0.00    +0.030 A 
ATOM      8  C   LIG    1       -6.833   1.139   0.735  0.00  0.00    +0.070 A 
ATOM      9  C   LIG    1       -7.598   2.074   0.063  0.00  0.00    +0.060 A 
ATOM     10  C   LIG    1       -6.987   3.111  -0.620  0.00  0.00    -0.020 A 
ATOM     11 CL   LIG    1       -7.952   4.284  -1.462  0.00  0.00    -0.040 Cl
ATOM     12  C   LIG    1       -5.609   3.217  -0.627  0.00  0.00    +0.060 A 
ENDBRANCH   5   6
BRANCH   1  14
ATOM     13  C   LIG    1       -2.905  -0.361  -1.893  0.00  0.00    +0.060 C 
ATOM     14  C   LIG    1       -2.892  -0.079  -0.389  0.00  0.00    +0.130 C 
ENDBRANCH   1  14
BRANCH   2  15
ATOM     15  C   LIG    1       -0.039   1.189  -0.222  0.00  0.00    +0.570 C 
ATOM     16  O   LIG    1       -0.046  -0.010  -0.416  0.00  0.00    -0.490 OA
BRANCH  15  17
ATOM     17  O   LIG    1        1.132   1.852  -0.141  0.00  0.00    -0.310 OA
BRANCH  17  18
ATOM     18  C   LIG    1        2.345   1.068  -0.297  0.00  0.00    +0.200 C 
ATOM     19  C   LIG    1        3.476   1.710   0.513  0.00  0.00    +0.090 C 
ATOM     20  C   LIG    1        4.770   0.933   0.245  0.00  0.00    +0.110 C 
ATOM     21  C   LIG    1        5.030   0.903  -1.238  0.00  0.00    +0.520 C 
ATOM     22  N   LIG    1        4.023   0.947  -2.123  0.00  0.00    -0.670 N 
ATOM     23  H   LIG    1        4.233   0.917  -3.069  0.00  0.00    +0.420 HD
ATOM     24  O   LIG    1        6.172   0.838  -1.639  0.00  0.00    -0.490 OA
ATOM     25  C   LIG    1        2.737   1.031  -1.750  0.00  0.00    +0.510 C 
ATOM     26  O   LIG    1        1.874   1.077  -2.600  0.00  0.00    -0.480 OA
ENDBRANCH  17  18
ENDBRANCH  15  17
ENDBRANCH   2  15
TORSDOF 5
