REMARK  Name = ZINCnE000001SBc8.0
REMARK                            x       y       z     vdW  Elec       q    Type
REMARK                         _______ _______ _______ _____ _____    ______ ____
ROOT
ATOM      1  O   LIG    1        0.796   5.383  -1.109  0.00  0.00    -0.610 OA
ATOM      2  C   LIG    1        1.090   4.364  -1.709  0.00  0.00    +0.680 C 
ATOM      3  N   LIG    1        0.227   3.329  -1.745  0.00  0.00    -0.630 N 
ATOM      4  C   LIG    1        0.237   1.982  -2.351  0.00  0.00    +0.250 C 
ATOM      5  C   LIG    1       -0.754   1.593  -1.230  0.00  0.00    -0.030 C 
ATOM      6  C   LIG    1       -0.013   1.086   0.008  0.00  0.00    +0.030 C 
ATOM      7  C   LIG    1       -0.730   1.580   1.265  0.00  0.00    +0.010 C 
ATOM      8  C   LIG    1       -0.661   3.104   1.303  0.00  0.00    +0.010 C 
ATOM      9  C   LIG    1       -1.411   3.711   0.133  0.00  0.00    +0.040 C 
ATOM     10  C   LIG    1       -1.113   3.076  -1.197  0.00  0.00    +0.230 C 
ENDROOT
BRANCH   2  11
ATOM     11  N   LIG    1        2.267   4.271  -2.330  0.00  0.00    -0.710 NA
ATOM     12  C   LIG    1        3.125   5.298  -2.295  0.00  0.00    +0.350 A 
ATOM     13  C   LIG    1        4.370   5.211  -2.947  0.00  0.00    -0.060 A 
ATOM     14  C   LIG    1        5.206   6.291  -2.877  0.00  0.00    +0.020 A 
ATOM     15  C   LIG    1        4.779   7.421  -2.163  0.00  0.00    +0.030 A 
ATOM     16  N   LIG    1        3.612   7.438  -1.580  0.00  0.00    -0.230 NA
ATOM     17  N   LIG    1        2.802   6.442  -1.632  0.00  0.00    -0.320 NA
ENDBRANCH   2  11
BRANCH  10  18
ATOM     18  C   LIG    1       -2.188   3.407  -2.200  0.00  0.00    -0.080 A 
ATOM     19  C   LIG    1       -3.127   2.453  -2.546  0.00  0.00    +0.000 A 
ATOM     20  C   LIG    1       -4.116   2.758  -3.462  0.00  0.00    -0.010 A 
ATOM     21  C   LIG    1       -4.161   4.013  -4.039  0.00  0.00    -0.010 A 
ATOM     22  C   LIG    1       -3.220   4.966  -3.696  0.00  0.00    +0.000 A 
ATOM     23  C   LIG    1       -2.233   4.662  -2.776  0.00  0.00    +0.040 A 
ENDBRANCH  10  18
TORSDOF 2
