REMARK  Name = ZINCqH0000002XVx.0
REMARK                            x       y       z     vdW  Elec       q    Type
REMARK                         _______ _______ _______ _____ _____    ______ ____
ROOT
ATOM      1  C   LIG    1       -3.312   3.915   0.391  0.00  0.00    +0.360 C 
ENDROOT
BRANCH   1   2
ATOM      2  C   LIG    1       -4.485   3.413   1.192  0.00  0.00    -0.150 A 
ATOM      3  C   LIG    1       -5.302   4.302   1.873  0.00  0.00    +0.080 A 
ATOM      4  C   LIG    1       -6.370   3.796   2.597  0.00  0.00    -0.030 A 
ATOM      5  C   LIG    1       -6.583   2.430   2.617  0.00  0.00    +0.260 A 
ATOM      6  N   LIG    1       -5.784   1.613   1.958  0.00  0.00    -0.480 NA
ATOM      7  C   LIG    1       -4.763   2.060   1.254  0.00  0.00    +0.280 A 
ENDBRANCH   1   2
BRANCH   1   8
ATOM      8  C   LIG    1       -2.043   3.292   0.913  0.00  0.00    -0.130 A 
ATOM      9  C   LIG    1       -1.498   2.194   0.274  0.00  0.00    +0.060 A 
ATOM     10  C   LIG    1       -0.338   1.618   0.755  0.00  0.00    -0.020 A 
ATOM     11  C   LIG    1        0.287   2.150   1.873  0.00  0.00    +0.130 A 
ATOM     12  C   LIG    1       -0.258   3.256   2.509  0.00  0.00    -0.070 A 
ATOM     13  C   LIG    1       -1.421   3.825   2.028  0.00  0.00    +0.070 A 
BRANCH  11  14
ATOM     14  O   LIG    1        1.431   1.589   2.345  0.00  0.00    -0.320 OA
ATOM     15  C   LIG    1        2.020   2.189   3.500  0.00  0.00    +0.250 C 
ENDBRANCH  11  14
ENDBRANCH   1   8
BRANCH   1  16
ATOM     16  N   LIG    1       -3.490   3.550  -1.017  0.00  0.00    -0.590 N 
ATOM     17  C   LIG    1       -3.271   4.464  -1.983  0.00  0.00    +0.580 C 
ATOM     18  O   LIG    1       -2.783   5.540  -1.702  0.00  0.00    -0.530 OA
BRANCH  17  19
ATOM     19  C   LIG    1       -3.625   4.155  -3.389  0.00  0.00    +0.070 A 
ATOM     20  C   LIG    1       -3.207   5.007  -4.408  0.00  0.00    +0.040 A 
ATOM     21  C   LIG    1       -3.542   4.702  -5.719  0.00  0.00    +0.060 A 
ATOM     22  C   LIG    1       -4.292   3.563  -5.962  0.00  0.00    +0.000 A 
ATOM     23  C   LIG    1       -4.678   2.764  -4.898  0.00  0.00    +0.250 A 
ATOM     24  N   LIG    1       -4.342   3.073  -3.664  0.00  0.00    -0.440 NA
ENDBRANCH  17  19
BRANCH  16  26
ATOM     25  C   LIG    1       -5.424   2.161  -1.576  0.00  0.00    +0.020 C 
ATOM     26  C   LIG    1       -3.908   2.192  -1.374  0.00  0.00    +0.270 C 
ENDBRANCH  16  26
ENDBRANCH   1  16
TORSDOF 6
