REMARK  Name = ZINCpe000027pHen.0
REMARK                            x       y       z     vdW  Elec       q    Type
REMARK                         _______ _______ _______ _____ _____    ______ ____
ROOT
ATOM      1  C   LIG    1        0.076   0.342  -0.274  0.00  0.00    +0.630 C 
ATOM      2  N   LIG    1        0.601   1.571  -0.446  0.00  0.00    -0.640 N 
ATOM      3  C   LIG    1       -0.075   2.845  -0.141  0.00  0.00    +0.270 C 
ATOM      4  C   LIG    1        0.624   3.892  -1.044  0.00  0.00    +0.040 C 
ATOM      5  C   LIG    1        2.095   3.399  -1.011  0.00  0.00    +0.020 C 
ATOM      6  C   LIG    1        1.946   1.864  -0.963  0.00  0.00    +0.250 C 
ATOM      7  O   LIG    1       -0.578   0.093   0.721  0.00  0.00    -0.510 OA
ENDROOT
BRANCH   1  13
ATOM      8  C   LIG    1        4.522  -3.238  -4.864  0.00  0.00    +0.130 C 
ATOM      9  C   LIG    1        3.156  -3.030  -4.263  0.00  0.00    -0.130 A 
ATOM     10  C   LIG    1        2.966  -2.067  -3.332  0.00  0.00    +0.310 A 
ATOM     11  N   LIG    1        1.739  -1.865  -2.779  0.00  0.00    -0.410 N 
ATOM     12  C   LIG    1        1.579  -0.892  -1.856  0.00  0.00    +0.510 A 
ATOM     13  C   LIG    1        0.297  -0.698  -1.285  0.00  0.00    -0.380 A 
ATOM     14  C   LIG    1       -0.756  -1.519  -1.712  0.00  0.00    +0.440 A 
ATOM     15  N   LIG    1       -0.536  -2.447  -2.620  0.00  0.00    -0.550 NA
ATOM     16  O   LIG    1        2.520  -0.197  -1.518  0.00  0.00    -0.490 OA
ATOM     17  C   LIG    1        0.674  -2.634  -3.155  0.00  0.00    +0.400 A 
ATOM     18  C   LIG    1        0.850  -3.639  -4.120  0.00  0.00    +0.030 A 
ATOM     19  C   LIG    1        2.084  -3.834  -4.670  0.00  0.00    +0.140 A 
ENDBRANCH   1  13
BRANCH   6  20
ATOM     20  C   LIG    1        3.003   1.265  -0.032  0.00  0.00    +0.330 C 
BRANCH  20  21
ATOM     21  N   LIG    1        4.282   1.174  -0.740  0.00  0.00    -0.270 N 
ATOM     22  C   LIG    1        5.463   1.678  -0.312  0.00  0.00    +0.120 A 
ATOM     23  C   LIG    1        6.372   1.369  -1.266  0.00  0.00    +0.130 A 
ATOM     24  N   LIG    1        5.712   0.699  -2.217  0.00  0.00    -0.300 NA
ATOM     25  N   LIG    1        4.477   0.595  -1.873  0.00  0.00    -0.040 NA
ENDBRANCH  20  21
ENDBRANCH   6  20
TORSDOF 3
