REMARK  Name = ZINCrH00000No4yO.0
REMARK                            x       y       z     vdW  Elec       q    Type
REMARK                         _______ _______ _______ _____ _____    ______ ____
ROOT
ATOM      1  C   LIG    1        1.356   1.732  -0.188  0.00  0.00    -0.070 A 
ATOM      2  C   LIG    1        2.071   0.554  -0.012  0.00  0.00    +0.140 A 
ATOM      3  N   LIG    1        1.177  -0.430   0.170  0.00  0.00    -0.470 NA
ATOM      4  C   LIG    1       -0.033   0.059   0.119  0.00  0.00    +0.260 A 
ATOM      5  N   LIG    1        0.022   1.385  -0.099  0.00  0.00    -0.550 N 
ATOM      6  H   LIG    1       -0.735   1.986  -0.183  0.00  0.00    +0.420 HD
ENDROOT
BRANCH   4   7
ATOM      7  C   LIG    1       -1.299  -0.743   0.280  0.00  0.00    +0.100 C 
ATOM      8  C   LIG    1       -1.844  -1.127  -1.101  0.00  0.00    +0.040 C 
ATOM      9  C   LIG    1       -3.019  -2.088  -0.907  0.00  0.00    +0.090 C 
ATOM     10  C   LIG    1       -3.971  -1.531   0.113  0.00  0.00    +0.520 C 
ATOM     11  N   LIG    1       -3.646  -0.566   0.974  0.00  0.00    -0.720 N 
ATOM     12  H   LIG    1       -4.315  -0.290   1.620  0.00  0.00    +0.410 HD
ATOM     13  O   LIG    1       -5.096  -1.984   0.155  0.00  0.00    -0.550 OA
ATOM     14  C   LIG    1       -2.350   0.099   1.004  0.00  0.00    +0.260 C 
ENDBRANCH   4   7
BRANCH   2  15
ATOM     15  C   LIG    1        3.545   0.411  -0.024  0.00  0.00    -0.000 A 
ATOM     16  C   LIG    1        4.141  -0.642  -0.718  0.00  0.00    +0.050 A 
ATOM     17  C   LIG    1        5.515  -0.767  -0.730  0.00  0.00    +0.030 A 
ATOM     18  C   LIG    1        6.301   0.144  -0.045  0.00  0.00    -0.080 A 
ATOM     19  C   LIG    1        5.715   1.188   0.650  0.00  0.00    +0.030 A 
ATOM     20 BR   LIG    1        8.183  -0.039  -0.060  0.00  0.00    -0.050 Br
ATOM     21  C   LIG    1        4.343   1.326   0.664  0.00  0.00    +0.080 A 
ENDBRANCH   2  15
BRANCH   1  24
ATOM     22  N   LIG    1        1.085   4.138  -0.459  0.00  0.00    -0.720 N 
ATOM     23  H   LIG    1        0.130   4.021  -0.332  0.00  0.00    +0.390 HD
ATOM     24  C   LIG    1        1.905   3.070  -0.421  0.00  0.00    +0.600 C 
ATOM     25  O   LIG    1        3.103   3.217  -0.580  0.00  0.00    -0.500 OA
BRANCH  22  26
ATOM     26  C   LIG    1        1.634   5.476  -0.691  0.00  0.00    +0.180 C 
ATOM     27  C   LIG    1        2.344   5.508  -2.046  0.00  0.00    +0.030 C 
ATOM     28  C   LIG    1        2.633   5.817   0.416  0.00  0.00    +0.030 C 
BRANCH  26  30
ATOM     29  C   LIG    1        1.072   7.899  -0.930  0.00  0.00    +0.030 C 
ATOM     30  C   LIG    1        0.498   6.502  -0.687  0.00  0.00    +0.010 C 
ENDBRANCH  26  30
ENDBRANCH  22  26
ENDBRANCH   1  24
TORSDOF 5
