REMARK  Name = ZINCqH00000032RW.0
REMARK                            x       y       z     vdW  Elec       q    Type
REMARK                         _______ _______ _______ _____ _____    ______ ____
ROOT
ATOM      1  C   LIG    1       -1.575   5.493   4.658  0.00  0.00    -0.690 A 
ATOM      2  C   LIG    1       -1.103   4.420   5.393  0.00  0.00    +0.150 A 
ATOM      3  C   LIG    1       -0.730   3.249   4.758  0.00  0.00    -0.010 A 
ATOM      4  C   LIG    1       -0.832   3.142   3.386  0.00  0.00    +0.120 A 
ATOM      5  C   LIG    1       -1.303   4.222   2.638  0.00  0.00    -0.160 A 
ATOM      6  C   LIG    1       -1.677   5.400   3.285  0.00  0.00    +0.190 A 
ENDROOT
BRANCH   5   7
ATOM      7  C   LIG    1       -1.410   4.116   1.167  0.00  0.00    +0.580 C 
ATOM      8  N   LIG    1       -0.784   3.116   0.516  0.00  0.00    -0.610 N 
ATOM      9  C   LIG    1       -0.697   2.966  -0.948  0.00  0.00    +0.260 C 
ATOM     10  C   LIG    1       -0.468   1.451  -1.178  0.00  0.00    +0.040 C 
ATOM     11  C   LIG    1        0.456   1.090   0.015  0.00  0.00    +0.060 C 
ATOM     12  C   LIG    1       -0.075   1.993   1.149  0.00  0.00    +0.300 C 
ATOM     13  O   LIG    1       -2.064   4.930   0.545  0.00  0.00    -0.520 OA
BRANCH  12  14
ATOM     14  C   LIG    1        1.076   2.512   1.972  0.00  0.00    -0.210 A 
ATOM     15  C   LIG    1        1.526   1.958   3.099  0.00  0.00    +0.010 A 
ATOM     16  C   LIG    1        2.599   2.611   3.681  0.00  0.00    +0.010 A 
ATOM     17  C   LIG    1        3.014   3.700   3.032  0.00  0.00    -0.040 A 
ATOM     18  S   LIG    1        2.025   3.945   1.598  0.00  0.00    +0.130 S 
ENDBRANCH  12  14
ENDBRANCH   5   7
BRANCH   1  19
ATOM     19  S   LIG    1       -2.047   6.980   5.476  0.00  0.00    +2.690 S 
ATOM     20  O   LIG    1       -1.947   8.018   4.511  0.00  0.00    -0.950 OA
ATOM     21  O   LIG    1       -1.347   6.997   6.713  0.00  0.00    -0.950 OA
BRANCH  19  22
ATOM     22  N   LIG    1       -3.655   6.844   5.851  0.00  0.00    -1.000 NA
BRANCH  22  24
ATOM     23  C   LIG    1       -4.294   7.387   8.148  0.00  0.00    +0.010 C 
ATOM     24  C   LIG    1       -4.061   6.265   7.134  0.00  0.00    +0.280 C 
ENDBRANCH  22  24
BRANCH  22  25
ATOM     25  C   LIG    1       -4.670   7.302   4.900  0.00  0.00    +0.290 C 
ATOM     26  C   LIG    1       -5.143   6.121   4.050  0.00  0.00    +0.010 C 
ENDBRANCH  22  25
ENDBRANCH  19  22
ENDBRANCH   1  19
TORSDOF 6
