REMARK  Name = ZINCrH00000tj187.0
REMARK                            x       y       z     vdW  Elec       q    Type
REMARK                         _______ _______ _______ _____ _____    ______ ____
ROOT
ATOM      1  C   LIG    1        0.622  -0.447   1.254  0.00  0.00    +0.090 C 
ATOM      2  C   LIG    1       -0.008   0.031  -0.057  0.00  0.00    +0.200 C 
ENDROOT
BRANCH   2   3
ATOM      3  C   LIG    1       -0.033   1.538  -0.082  0.00  0.00    +0.520 C 
ATOM      4  N   LIG    1        1.123   2.231  -0.104  0.00  0.00    -0.620 N 
ATOM      5  H   LIG    1        1.971   1.760  -0.103  0.00  0.00    +0.430 HD
ATOM      6  O   LIG    1       -1.093   2.126  -0.088  0.00  0.00    -0.470 OA
BRANCH   4   7
ATOM      7  C   LIG    1        1.100   3.620  -0.127  0.00  0.00    +0.270 A 
ATOM      8  N   LIG    1        2.145   4.386  -0.144  0.00  0.00    -0.490 NA
ATOM      9  C   LIG    1        1.932   5.694  -0.168  0.00  0.00    +0.130 A 
ATOM     10  C   LIG    1        0.640   6.068  -0.163  0.00  0.00    -0.110 A 
ATOM     11  S   LIG    1       -0.354   4.613  -0.131  0.00  0.00    +0.210 S 
BRANCH   9  12
ATOM     12  C   LIG    1        3.042   6.678  -0.193  0.00  0.00    -0.020 A 
ATOM     13  C   LIG    1        2.765   8.044  -0.219  0.00  0.00    +0.030 A 
ATOM     14  C   LIG    1        3.802   8.955  -0.236  0.00  0.00    +0.010 A 
ATOM     15  C   LIG    1        5.113   8.514  -0.240  0.00  0.00    +0.010 A 
ATOM     16  C   LIG    1        5.393   7.160  -0.221  0.00  0.00    +0.010 A 
ATOM     17  C   LIG    1        4.365   6.240  -0.198  0.00  0.00    +0.040 A 
ENDBRANCH   9  12
ENDBRANCH   4   7
ENDBRANCH   2   3
BRANCH   2  18
ATOM     18  O   LIG    1       -1.364  -0.477  -0.156  0.00  0.00    -0.320 OA
BRANCH  18  19
ATOM     19  C   LIG    1       -1.527  -1.675  -0.752  0.00  0.00    +0.540 C 
ATOM     20  O   LIG    1       -0.561  -2.278  -1.178  0.00  0.00    -0.510 OA
BRANCH  19  21
ATOM     21  C   LIG    1       -2.874  -2.253  -0.888  0.00  0.00    -0.260 A 
ATOM     22  C   LIG    1       -3.980  -1.631  -0.296  0.00  0.00    +0.220 A 
ATOM     23  C   LIG    1       -5.226  -2.212  -0.458  0.00  0.00    -0.230 A 
ATOM     24  C   LIG    1       -5.342  -3.386  -1.183  0.00  0.00    +0.410 A 
ATOM     25  N   LIG    1       -4.287  -3.959  -1.729  0.00  0.00    -0.540 NA
ATOM     26 BR   LIG    1       -6.757  -1.414   0.314  0.00  0.00    -0.030 Br
ATOM     27  C   LIG    1       -3.074  -3.443  -1.610  0.00  0.00    +0.480 A 
BRANCH  27  28
ATOM     28  N   LIG    1       -1.996  -4.079  -2.199  0.00  0.00    -0.820 N 
ATOM     29  H   LIG    1       -2.140  -4.853  -2.765  0.00  0.00    +0.410 HD
ATOM     30  H   LIG    1       -1.096  -3.750  -2.047  0.00  0.00    +0.430 HD
ENDBRANCH  27  28
ENDBRANCH  19  21
ENDBRANCH  18  19
ENDBRANCH   2  18
TORSDOF 7
