REMARK  Name = ZINCvU0000000DZd.0
REMARK                            x       y       z     vdW  Elec       q    Type
REMARK                         _______ _______ _______ _____ _____    ______ ____
ROOT
ATOM      1  C   LIG    1       -2.795   2.876  -2.903  0.00  0.00    +0.150 A 
ATOM      2  N   LIG    1       -3.305   2.866  -4.112  0.00  0.00    -0.290 NA
ATOM      3  N   LIG    1       -3.366   1.660  -4.551  0.00  0.00    -0.270 NA
ATOM      4  C   LIG    1       -2.897   0.835  -3.658  0.00  0.00    +0.190 A 
ATOM      5  N   LIG    1       -2.513   1.580  -2.577  0.00  0.00    -0.450 N 
ENDROOT
BRANCH   5   6
ATOM      6  C   LIG    1       -1.928   1.089  -1.327  0.00  0.00    +0.230 C 
ATOM      7  C   LIG    1       -0.545   1.714  -1.132  0.00  0.00    +0.010 C 
ATOM      8  C   LIG    1        0.067   1.202   0.173  0.00  0.00    +0.030 C 
ATOM      9  C   LIG    1       -0.837   1.587   1.346  0.00  0.00    +0.010 C 
ATOM     10  C   LIG    1       -2.220   0.963   1.151  0.00  0.00    +0.030 C 
ATOM     11  C   LIG    1       -2.832   1.475  -0.155  0.00  0.00    +0.010 C 
ENDBRANCH   5   6
BRANCH   1  12
ATOM     12  S   LIG    1       -2.521   4.293  -1.893  0.00  0.00    +0.060 S 
BRANCH  12  13
ATOM     13  C   LIG    1       -3.134   5.590  -2.997  0.00  0.00    +0.080 C 
BRANCH  13  14
ATOM     14  C   LIG    1       -2.995   6.931  -2.323  0.00  0.00    +0.420 C 
ATOM     15  O   LIG    1       -2.527   7.003  -1.206  0.00  0.00    -0.440 OA
BRANCH  14  19
ATOM     16  C   LIG    1       -4.236  10.448  -4.331  0.00  0.00    +0.190 A 
ATOM     17  C   LIG    1       -3.700  10.533  -3.049  0.00  0.00    +0.000 A 
ATOM     18  C   LIG    1       -3.297   9.397  -2.395  0.00  0.00    +0.110 A 
ATOM     19  C   LIG    1       -3.425   8.150  -3.019  0.00  0.00    -0.190 A 
ATOM     20  C   LIG    1       -3.960   8.070  -4.311  0.00  0.00    +0.090 A 
ATOM     21  C   LIG    1       -4.365   9.210  -4.955  0.00  0.00    -0.020 A 
BRANCH  16  24
ATOM     22  C   LIG    1       -4.493  14.037  -5.413  0.00  0.00    +0.110 C 
ATOM     23  C   LIG    1       -3.982  12.762  -4.794  0.00  0.00    +0.510 C 
ATOM     24  N   LIG    1       -4.644  11.605  -4.991  0.00  0.00    -0.680 N 
ATOM     25  H   LIG    1       -5.404  11.577  -5.593  0.00  0.00    +0.420 HD
ATOM     26  O   LIG    1       -2.975  12.777  -4.118  0.00  0.00    -0.520 OA
ENDBRANCH  16  24
ENDBRANCH  14  19
ENDBRANCH  13  14
ENDBRANCH  12  13
ENDBRANCH   1  12
BRANCH   4  27
ATOM     27  C   LIG    1       -2.797  -0.663  -3.791  0.00  0.00    +0.250 C 
BRANCH  27  28
ATOM     28  C   LIG    1       -4.064  -1.298  -3.279  0.00  0.00    -0.190 A 
ATOM     29  C   LIG    1       -5.146  -1.558  -4.015  0.00  0.00    +0.040 A 
ATOM     30  C   LIG    1       -6.191  -2.150  -3.327  0.00  0.00    +0.010 A 
ATOM     31  C   LIG    1       -5.962  -2.363  -2.030  0.00  0.00    -0.030 A 
ATOM     32  S   LIG    1       -4.346  -1.804  -1.618  0.00  0.00    +0.090 S 
ENDBRANCH  27  28
ENDBRANCH   4  27
TORSDOF 8
