REMARK  Name = ZINCrD000000AzhG.0
REMARK                            x       y       z     vdW  Elec       q    Type
REMARK                         _______ _______ _______ _____ _____    ______ ____
ROOT
ATOM      1  O   LIG    1        0.689   7.789   3.064  0.00  0.00    -0.530 OA
ATOM      2  C   LIG    1        0.562   8.280   1.962  0.00  0.00    +0.510 C 
ATOM      3  N   LIG    1        0.404   7.486   0.884  0.00  0.00    -0.730 N 
ATOM      4  H   LIG    1        0.302   7.879   0.003  0.00  0.00    +0.400 HD
ENDROOT
BRANCH   3   5
ATOM      5  C   LIG    1        0.385   6.030   1.044  0.00  0.00    +0.230 C 
ATOM      6  C   LIG    1       -0.394   5.398  -0.113  0.00  0.00    +0.030 C 
ATOM      7  C   LIG    1       -0.357   3.874   0.025  0.00  0.00    +0.210 C 
ATOM      8  N   LIG    1        1.037   3.413   0.010  0.00  0.00    -0.480 N 
ATOM      9  C   LIG    1        1.793   3.970   1.140  0.00  0.00    +0.200 C 
ATOM     10  C   LIG    1        1.821   5.496   1.034  0.00  0.00    +0.030 C 
BRANCH   8  11
ATOM     11  C   LIG    1        1.102   2.025   0.002  0.00  0.00    +0.310 A 
ATOM     12  C   LIG    1        2.341   1.393  -0.013  0.00  0.00    -0.050 A 
ATOM     13  C   LIG    1        2.392   0.011  -0.021  0.00  0.00    +0.090 A 
ATOM     14  C   LIG    1        1.197  -0.696  -0.014  0.00  0.00    -0.070 A 
ATOM     15  C   LIG    1        0.002  -0.004   0.002  0.00  0.00    +0.290 A 
ATOM     16  N   LIG    1       -0.016   1.315   0.009  0.00  0.00    -0.520 NA
ENDBRANCH   8  11
ENDBRANCH   3   5
BRANCH   2  17
ATOM     17  C   LIG    1        0.580   9.778   1.798  0.00  0.00    +0.120 C 
BRANCH  17  18
ATOM     18  C   LIG    1        0.769  10.428   3.144  0.00  0.00    -0.080 A 
ATOM     19  C   LIG    1       -0.333  10.762   3.910  0.00  0.00    +0.070 A 
ATOM     20  C   LIG    1       -0.163  11.353   5.147  0.00  0.00    -0.060 A 
ATOM     21  C   LIG    1        1.115  11.622   5.616  0.00  0.00    +0.100 A 
ATOM     22  C   LIG    1        2.219  11.291   4.844  0.00  0.00    +0.020 A 
ATOM     23  C   LIG    1        2.043  10.694   3.610  0.00  0.00    +0.070 A 
BRANCH  21  24
ATOM     24  O   LIG    1        1.284  12.210   6.830  0.00  0.00    -0.310 OA
BRANCH  24  25
ATOM     25  C   LIG    1        0.103  12.523   7.570  0.00  0.00    +0.600 C 
ATOM     26  F   LIG    1       -0.689  13.409   6.831  0.00  0.00    -0.160 F 
ATOM     27  F   LIG    1        0.458  13.117   8.785  0.00  0.00    -0.130 F 
ATOM     28  F   LIG    1       -0.617  11.349   7.818  0.00  0.00    -0.160 F 
ENDBRANCH  24  25
ENDBRANCH  21  24
ENDBRANCH  17  18
ENDBRANCH   2  17
TORSDOF 6
