REMARK  Name = ZINCpe00000MJLnw.0
REMARK                            x       y       z     vdW  Elec       q    Type
REMARK                         _______ _______ _______ _____ _____    ______ ____
ROOT
ATOM      1  C   LIG    1        1.102   1.808   0.001  0.00  0.00    -0.140 A 
ATOM      2  C   LIG    1       -0.013   1.076   0.008  0.00  0.00    -0.010 A 
ATOM      3  C   LIG    1       -1.190   1.804   0.017  0.00  0.00    +0.170 A 
ATOM      4  C   LIG    1       -1.031   3.129   0.029  0.00  0.00    -0.800 A 
ATOM      5  S   LIG    1        0.685   3.517   0.015  0.00  0.00    +0.230 S 
ENDROOT
BRANCH   4   6
ATOM      6  S   LIG    1       -2.339   4.309   0.048  0.00  0.00    +2.710 S 
ATOM      7  O   LIG    1       -3.479   3.652  -0.489  0.00  0.00    -0.940 OA
ATOM      8  O   LIG    1       -1.805   5.508  -0.496  0.00  0.00    -0.940 OA
BRANCH   6   9
ATOM      9  N   LIG    1       -2.687   4.629   1.635  0.00  0.00    -0.990 NA
ATOM     10  C   LIG    1       -2.003   5.712   2.359  0.00  0.00    +0.270 C 
ATOM     11  C   LIG    1       -1.458   5.148   3.676  0.00  0.00    +0.220 C 
ATOM     12  O   LIG    1       -2.512   4.480   4.376  0.00  0.00    -0.370 OA
ATOM     13  C   LIG    1       -3.058   3.361   3.678  0.00  0.00    +0.150 C 
ATOM     14  C   LIG    1       -4.123   2.679   4.537  0.00  0.00    +0.030 C 
ATOM     15  C   LIG    1       -5.296   3.641   4.765  0.00  0.00    +0.220 C 
ATOM     16  O   LIG    1       -5.824   4.047   3.500  0.00  0.00    -0.370 OA
ATOM     17  C   LIG    1       -4.889   4.750   2.680  0.00  0.00    +0.220 C 
ATOM     18  C   LIG    1       -3.697   3.843   2.365  0.00  0.00    +0.210 C 
ENDBRANCH   6   9
ENDBRANCH   4   6
BRANCH   1  19
ATOM     19  C   LIG    1        2.504   1.257  -0.015  0.00  0.00    +0.120 C 
BRANCH  19  20
ATOM     20  C   LIG    1        2.965   1.077  -1.462  0.00  0.00    +0.300 C 
BRANCH  20  22
ATOM     21  C   LIG    1        4.945   0.300  -2.652  0.00  0.00    +0.650 C 
ATOM     22  N   LIG    1        4.329   0.541  -1.478  0.00  0.00    -0.710 N 
ATOM     23  H   LIG    1        4.788   0.359  -0.643  0.00  0.00    +0.410 HD
ATOM     24  O   LIG    1        4.370   0.528  -3.698  0.00  0.00    -0.570 OA
BRANCH  21  26
ATOM     25  C   LIG    1        6.799  -0.427  -3.967  0.00  0.00    +0.300 C 
ATOM     26  O   LIG    1        6.197  -0.193  -2.667  0.00  0.00    -0.370 OA
ENDBRANCH  21  26
ENDBRANCH  20  22
ENDBRANCH  19  20
ENDBRANCH   1  19
TORSDOF 6
