REMARK  Name = ZINCkj000005jpke.1
REMARK                            x       y       z     vdW  Elec       q    Type
REMARK                         _______ _______ _______ _____ _____    ______ ____
ROOT
ATOM      1  C   LIG    1        0.257   1.837   0.349  0.00  0.00    +0.080 C 
ATOM      2  C   LIG    1        0.051   0.348   0.058  0.00  0.00    +0.180 C 
ATOM      3  C   LIG    1       -1.464   0.010   0.076  0.00  0.00    +0.080 C 
ATOM      4  C   LIG    1       -1.466  -1.376   0.748  0.00  0.00    +0.000 C 
ATOM      5  C   LIG    1       -2.744  -1.739   1.486  0.00  0.00    +0.060 C 
ATOM      6  C   LIG    1       -2.503  -3.088   2.180  0.00  0.00    +0.020 C 
ATOM      7  C   LIG    1       -1.316  -3.020   3.137  0.00  0.00    +0.040 C 
ATOM      8  C   LIG    1       -0.049  -2.521   2.423  0.00  0.00    +0.060 C 
ATOM      9  C   LIG    1       -0.369  -1.166   1.827  0.00  0.00    +0.130 C 
ATOM     10  N   LIG    1        0.697  -0.469   1.118  0.00  0.00    -0.370 N 
ATOM     11  H   LIG    1        1.202   0.130   1.754  0.00  0.00    +0.420 HD
ENDROOT
BRANCH  10  12
ATOM     12  C   LIG    1        1.614  -1.442   0.511  0.00  0.00    +0.220 C 
BRANCH  12  13
ATOM     13  C   LIG    1        2.792  -0.704  -0.127  0.00  0.00    +0.210 C 
BRANCH  13  14
ATOM     14  O   LIG    1        2.327   0.068  -1.236  0.00  0.00    -0.530 OA
ATOM     15  H   LIG    1        1.989  -0.463  -1.971  0.00  0.00    +0.390 HD
ENDBRANCH  13  14
BRANCH  13  16
ATOM     16  C   LIG    1        3.829  -1.719  -0.611  0.00  0.00    +0.170 C 
BRANCH  16  17
ATOM     17  N   LIG    1        4.944  -1.012  -1.256  0.00  0.00    -0.530 NA
ATOM     18  C   LIG    1        5.710  -1.917  -2.126  0.00  0.00    +0.160 C 
ATOM     19  C   LIG    1        6.822  -1.127  -2.821  0.00  0.00    +0.220 C 
ATOM     20  O   LIG    1        7.645  -0.501  -1.833  0.00  0.00    -0.380 OA
ATOM     21  C   LIG    1        6.931   0.387  -0.969  0.00  0.00    +0.220 C 
ATOM     22  C   LIG    1        5.820  -0.387  -0.254  0.00  0.00    +0.150 C 
ENDBRANCH  16  17
ENDBRANCH  13  16
ENDBRANCH  12  13
ENDBRANCH  10  12
TORSDOF 5
