REMARK  Name = ZINCkj000005jpke.0
REMARK                            x       y       z     vdW  Elec       q    Type
REMARK                         _______ _______ _______ _____ _____    ______ ____
ROOT
ATOM      1  C   LIG    1       -2.641   0.740  -4.867  0.00  0.00    +0.080 C 
ATOM      2  C   LIG    1       -2.265   1.746  -5.956  0.00  0.00    +0.170 C 
ATOM      3  C   LIG    1       -2.478   1.117  -7.361  0.00  0.00    +0.080 C 
ATOM      4  C   LIG    1       -1.281   1.679  -8.143  0.00  0.00    +0.000 C 
ATOM      5  C   LIG    1       -0.814   0.829  -9.312  0.00  0.00    +0.040 C 
ATOM      6  C   LIG    1        0.454   1.487  -9.878  0.00  0.00    +0.020 C 
ATOM      7  C   LIG    1        1.543   1.607  -8.816  0.00  0.00    +0.040 C 
ATOM      8  C   LIG    1        1.032   2.350  -7.571  0.00  0.00    +0.060 C 
ATOM      9  C   LIG    1       -0.174   1.593  -7.057  0.00  0.00    +0.150 C 
ATOM     10  N   LIG    1       -0.823   2.092  -5.850  0.00  0.00    -0.380 N 
ATOM     11  H   LIG    1       -0.714   3.094  -5.787  0.00  0.00    +0.420 HD
ENDROOT
BRANCH  10  12
ATOM     12  C   LIG    1       -0.240   1.449  -4.665  0.00  0.00    +0.240 C 
BRANCH  12  13
ATOM     13  C   LIG    1        1.224   1.870  -4.524  0.00  0.00    +0.160 C 
BRANCH  13  14
ATOM     14  O   LIG    1        2.015   1.173  -5.488  0.00  0.00    -0.540 OA
ATOM     15  H   LIG    1        1.986   0.210  -5.399  0.00  0.00    +0.380 HD
ENDBRANCH  13  14
BRANCH  13  16
ATOM     16  C   LIG    1        1.719   1.532  -3.117  0.00  0.00    +0.220 C 
BRANCH  16  17
ATOM     17  N   LIG    1        3.101   2.002  -2.957  0.00  0.00    -0.520 NA
ATOM     18  C   LIG    1        4.045   1.106  -3.641  0.00  0.00    +0.160 C 
ATOM     19  C   LIG    1        5.474   1.599  -3.401  0.00  0.00    +0.220 C 
ATOM     20  O   LIG    1        5.589   2.952  -3.850  0.00  0.00    -0.380 OA
ATOM     21  C   LIG    1        4.685   3.852  -3.205  0.00  0.00    +0.220 C 
ATOM     22  C   LIG    1        3.247   3.382  -3.444  0.00  0.00    +0.150 C 
ENDBRANCH  16  17
ENDBRANCH  13  16
ENDBRANCH  12  13
ENDBRANCH  10  12
TORSDOF 5
