REMARK  Name = ZINCtV00001bB3Do.0
REMARK                            x       y       z     vdW  Elec       q    Type
REMARK                         _______ _______ _______ _____ _____    ______ ____
ROOT
ATOM      1  C   LIG    1        2.782  -5.388  -0.052  0.00  0.00    +0.320 C 
ATOM      2  N   LIG    1        1.876  -4.236  -0.038  0.00  0.00    -0.470 N 
ATOM      3  C   LIG    1        0.499  -4.316  -0.025  0.00  0.00    +0.100 A 
ATOM      4  C   LIG    1       -0.385  -5.390  -0.021  0.00  0.00    -0.010 A 
ATOM      5  C   LIG    1       -1.744  -5.163  -0.005  0.00  0.00    +0.030 A 
ATOM      6  C   LIG    1       -2.245  -3.870   0.005  0.00  0.00    -0.010 A 
ATOM      7  C   LIG    1       -1.388  -2.792   0.001  0.00  0.00    +0.070 A 
ATOM      8  C   LIG    1       -0.010  -3.006  -0.007  0.00  0.00    -0.070 A 
ATOM      9  C   LIG    1        1.157  -2.108  -0.020  0.00  0.00    -0.130 A 
ATOM     10  C   LIG    1        2.276  -2.922  -0.035  0.00  0.00    +0.160 A 
ENDROOT
BRANCH  10  11
ATOM     11  C   LIG    1        3.675  -2.453  -0.047  0.00  0.00    -0.040 A 
ATOM     12  C   LIG    1        4.619  -3.040   0.799  0.00  0.00    +0.020 A 
ATOM     13  C   LIG    1        5.926  -2.601   0.778  0.00  0.00    +0.010 A 
ATOM     14  C   LIG    1        6.301  -1.573  -0.069  0.00  0.00    +0.020 A 
ATOM     15  C   LIG    1        5.370  -0.982  -0.905  0.00  0.00    +0.010 A 
ATOM     16  C   LIG    1        4.060  -1.415  -0.900  0.00  0.00    +0.040 A 
ENDBRANCH  10  11
BRANCH   9  17
ATOM     17  C   LIG    1        1.137  -0.639  -0.012  0.00  0.00    +0.270 C 
ATOM     18  N   LIG    1        0.002  -0.004   0.002  0.00  0.00    -0.240 NA
BRANCH  18  19
ATOM     19  N   LIG    1       -0.017   1.397   0.010  0.00  0.00    -0.580 N 
ATOM     20  H   LIG    1        0.816   1.893   0.004  0.00  0.00    +0.390 HD
BRANCH  19  21
ATOM     21  C   LIG    1       -1.234   2.078   0.019  0.00  0.00    +0.270 A 
ATOM     22  C   LIG    1       -2.429   1.368   0.021  0.00  0.00    -0.020 A 
ATOM     23  C   LIG    1       -3.632   2.046   0.030  0.00  0.00    +0.080 A 
ATOM     24  C   LIG    1       -3.649   3.429   0.038  0.00  0.00    -0.040 A 
ATOM     25  C   LIG    1       -2.462   4.138   0.036  0.00  0.00    +0.110 A 
ATOM     26  C   LIG    1       -1.255   3.468   0.033  0.00  0.00    -0.260 A 
BRANCH  26  27
ATOM     27  C   LIG    1        0.038   4.242   0.037  0.00  0.00    +0.510 C 
ATOM     28  F   LIG    1        0.775   3.926  -1.109  0.00  0.00    -0.180 F 
ATOM     29  F   LIG    1        0.779   3.904   1.175  0.00  0.00    -0.180 F 
ATOM     30  F   LIG    1       -0.239   5.613   0.051  0.00  0.00    -0.170 F 
ENDBRANCH  26  27
ENDBRANCH  19  21
ENDBRANCH  18  19
ENDBRANCH   9  17
TORSDOF 5
