REMARK  Name = ZINCpk00000xPMPp.0
REMARK                            x       y       z     vdW  Elec       q    Type
REMARK                         _______ _______ _______ _____ _____    ______ ____
ROOT
ATOM      1  N   LIG    1       -0.701   1.560   1.216  0.00  0.00    -0.480 N 
ATOM      2  C   LIG    1       -0.013   1.086   0.008  0.00  0.00    +0.240 C 
ATOM      3  C   LIG    1       -0.754   1.593  -1.231  0.00  0.00    +0.230 C 
ATOM      4  N   LIG    1       -0.806   3.062  -1.200  0.00  0.00    -0.470 N 
ATOM      5  C   LIG    1       -1.495   3.536   0.008  0.00  0.00    +0.220 C 
ATOM      6  C   LIG    1       -0.754   3.029   1.247  0.00  0.00    +0.220 C 
ENDROOT
BRANCH   4   7
ATOM      7  C   LIG    1       -1.408   3.561  -2.344  0.00  0.00    +0.390 A 
ATOM      8  C   LIG    1       -1.569   4.939  -2.523  0.00  0.00    -0.020 A 
ATOM      9  N   LIG    1       -1.240   6.053  -1.785  0.00  0.00    -0.570 N 
ATOM     10  H   LIG    1       -0.802   6.040  -0.920  0.00  0.00    +0.420 HD
ATOM     11  C   LIG    1       -1.630   7.179  -2.449  0.00  0.00    +0.280 A 
ATOM     12  C   LIG    1       -2.207   6.844  -3.619  0.00  0.00    -0.030 A 
ATOM     13  C   LIG    1       -2.183   5.387  -3.706  0.00  0.00    +0.150 A 
ATOM     14  N   LIG    1       -2.596   4.490  -4.605  0.00  0.00    -0.480 NA
ATOM     15  C   LIG    1       -2.427   3.203  -4.388  0.00  0.00    +0.370 A 
ATOM     16 CL   LIG    1       -2.980   2.073  -5.584  0.00  0.00    +0.030 Cl
ATOM     17  N   LIG    1       -1.850   2.740  -3.292  0.00  0.00    -0.530 NA
ENDBRANCH   4   7
BRANCH   1  21
ATOM     18  C   LIG    1        1.103   0.068   4.590  0.00  0.00    -0.220 A 
ATOM     19  C   LIG    1       -0.013   0.906   4.737  0.00  0.00    +0.160 A 
ATOM     20  C   LIG    1       -0.608   1.405   3.610  0.00  0.00    -0.050 A 
ATOM     21  C   LIG    1       -0.099   1.061   2.359  0.00  0.00    +0.340 A 
ATOM     22  N   LIG    1        0.957   0.267   2.248  0.00  0.00    -0.520 NA
ATOM     23  C   LIG    1        1.562  -0.231   3.306  0.00  0.00    +0.330 A 
BRANCH  18  27
ATOM     24  N   LIG    1        2.852  -1.294   5.623  0.00  0.00    -0.850 N 
ATOM     25  H   LIG    1        3.297  -1.661   6.403  0.00  0.00    +0.410 HD
ATOM     26  H   LIG    1        3.176  -1.506   4.734  0.00  0.00    +0.400 HD
ATOM     27  C   LIG    1        1.781  -0.490   5.776  0.00  0.00    +0.570 C 
ATOM     28  O   LIG    1        1.374  -0.225   6.890  0.00  0.00    -0.540 OA
ENDBRANCH  18  27
ENDBRANCH   1  21
TORSDOF 3
