REMARK  Name = ZINCpe00000MJM5z.0
REMARK                            x       y       z     vdW  Elec       q    Type
REMARK                         _______ _______ _______ _____ _____    ______ ____
ROOT
ATOM      1  C   LIG    1        1.472  -1.829  -0.467  0.00  0.00    +0.330 A 
ATOM      2  N   LIG    1        0.484  -2.660  -0.154  0.00  0.00    -0.500 NA
ATOM      3  C   LIG    1       -0.698  -2.191   0.221  0.00  0.00    +0.380 A 
ATOM      4  N   LIG    1       -0.938  -0.890   0.299  0.00  0.00    -0.510 NA
ATOM      5  C   LIG    1        0.002  -0.004   0.002  0.00  0.00    +0.180 A 
ATOM      6  C   LIG    1       -0.018   1.508   0.010  0.00  0.00    +0.120 C 
ATOM      7  C   LIG    1        1.466   1.933  -0.002  0.00  0.00    +0.050 C 
ATOM      8  C   LIG    1        2.151   0.725  -0.678  0.00  0.00    +0.100 C 
ATOM      9  C   LIG    1        1.247  -0.451  -0.393  0.00  0.00    -0.190 A 
ENDROOT
BRANCH   3  10
ATOM     10  C   LIG    1       -1.780  -3.147   0.563  0.00  0.00    +0.170 A 
ATOM     11  C   LIG    1       -3.025  -2.668   0.959  0.00  0.00    +0.030 A 
ATOM     12  C   LIG    1       -4.026  -3.573   1.275  0.00  0.00    +0.060 A 
ATOM     13  C   LIG    1       -3.745  -4.928   1.183  0.00  0.00    -0.020 A 
ATOM     14  C   LIG    1       -2.484  -5.334   0.783  0.00  0.00    +0.260 A 
ATOM     15  N   LIG    1       -1.553  -4.452   0.484  0.00  0.00    -0.440 NA
ENDBRANCH   3  10
BRANCH   1  18
ATOM     16  C   LIG    1        4.116  -3.735  -0.245  0.00  0.00    +0.190 C 
ATOM     17  C   LIG    1        2.712  -3.794  -0.862  0.00  0.00    +0.260 C 
ATOM     18  N   LIG    1        2.707  -2.320  -0.859  0.00  0.00    -0.410 N 
ATOM     19  C   LIG    1        3.640  -2.375   0.282  0.00  0.00    +0.190 C 
BRANCH  16  20
ATOM     20  C   LIG    1        4.363  -4.765   0.827  0.00  0.00    -0.020 A 
ATOM     21  N   LIG    1        3.516  -5.668   1.267  0.00  0.00    -0.250 NA
ATOM     22  N   LIG    1        4.093  -6.365   2.181  0.00  0.00    -0.240 N 
ATOM     23  H   LIG    1        3.677  -7.097   2.661  0.00  0.00    +0.470 HD
ATOM     24  N   LIG    1        5.296  -5.954   2.376  0.00  0.00    -0.280 NA
ATOM     25  C   LIG    1        5.537  -4.952   1.561  0.00  0.00    +0.190 A 
ENDBRANCH  16  20
BRANCH  16  26
ATOM     26  O   LIG    1        5.174  -3.654  -1.203  0.00  0.00    -0.510 OA
ATOM     27  H   LIG    1        6.057  -3.617  -0.812  0.00  0.00    +0.380 HD
ENDBRANCH  16  26
ENDBRANCH   1  18
TORSDOF 4
