REMARK  Name = ZINCvU000000083P.0
REMARK                            x       y       z     vdW  Elec       q    Type
REMARK                         _______ _______ _______ _____ _____    ______ ____
ROOT
ATOM      1  C   LIG    1        6.477  -5.353  -0.077  0.00  0.00    +0.570 C 
ATOM      2  N   LIG    1        5.207  -5.806  -0.086  0.00  0.00    -0.670 N 
ATOM      3  H   LIG    1        5.032  -6.760  -0.096  0.00  0.00    +0.410 HD
ATOM      4  O   LIG    1        6.697  -4.163   0.037  0.00  0.00    -0.510 OA
ENDROOT
BRANCH   1   7
ATOM      5  C   LIG    1        9.963  -6.728  -0.318  0.00  0.00    +0.120 A 
ATOM      6  C   LIG    1        8.916  -5.835  -0.203  0.00  0.00    +0.030 A 
ATOM      7  C   LIG    1        7.599  -6.303  -0.206  0.00  0.00    -0.130 A 
ATOM      8  C   LIG    1        7.348  -7.670  -0.337  0.00  0.00    +0.060 A 
ATOM      9  C   LIG    1        8.397  -8.556  -0.458  0.00  0.00    -0.010 A 
ATOM     10  C   LIG    1        9.705  -8.091  -0.449  0.00  0.00    +0.110 A 
BRANCH   5  11
ATOM     11  O   LIG    1       11.246  -6.276  -0.310  0.00  0.00    -0.300 OA
BRANCH  11  13
ATOM     12  C   LIG    1       12.934  -4.551  -0.184  0.00  0.00    +0.070 C 
ATOM     13  C   LIG    1       11.437  -4.867  -0.172  0.00  0.00    +0.190 C 
ENDBRANCH  11  13
ENDBRANCH   5  11
BRANCH  10  14
ATOM     14  O   LIG    1       10.736  -8.968  -0.569  0.00  0.00    -0.300 OA
BRANCH  14  15
ATOM     15  C   LIG    1       10.399 -10.351  -0.700  0.00  0.00    +0.600 C 
ATOM     16  F   LIG    1        9.615 -10.534  -1.844  0.00  0.00    -0.200 F 
ATOM     17  F   LIG    1        9.683 -10.765   0.428  0.00  0.00    -0.200 F 
ENDBRANCH  14  15
ENDBRANCH  10  14
ENDBRANCH   1   7
BRANCH   2  18
ATOM     18  C   LIG    1        4.142  -4.899  -0.080  0.00  0.00    +0.160 A 
ATOM     19  C   LIG    1        4.258  -3.689  -0.753  0.00  0.00    +0.020 A 
ATOM     20  C   LIG    1        3.210  -2.794  -0.750  0.00  0.00    +0.050 A 
ATOM     21  C   LIG    1        2.031  -3.103  -0.068  0.00  0.00    -0.060 A 
ATOM     22  C   LIG    1        1.920  -4.318   0.611  0.00  0.00    +0.070 A 
ATOM     23  C   LIG    1        2.970  -5.211   0.599  0.00  0.00    -0.010 A 
BRANCH  21  24
ATOM     24  C   LIG    1        0.905  -2.145  -0.062  0.00  0.00    +0.160 A 
ATOM     25  C   LIG    1       -0.345  -2.557  -0.287  0.00  0.00    -0.060 A 
ATOM     26  S   LIG    1       -1.356  -1.104  -0.192  0.00  0.00    +0.090 S 
ATOM     27  C   LIG    1       -0.007  -0.016   0.140  0.00  0.00    +0.340 A 
ATOM     28  N   LIG    1       -0.035   1.273   0.323  0.00  0.00    -0.550 NA
ATOM     29  C   LIG    1        1.226   1.985   0.574  0.00  0.00    +0.220 C 
ATOM     30  C   LIG    1        2.205   1.061   1.301  0.00  0.00    +0.010 C 
ATOM     31  C   LIG    1        2.445  -0.202   0.466  0.00  0.00    +0.290 C 
ATOM     32  N   LIG    1        1.121  -0.806   0.177  0.00  0.00    -0.560 N 
ENDBRANCH  21  24
ENDBRANCH   2  18
TORSDOF 7
