REMARK  Name = ZINCrg000000qdd9.0
REMARK                            x       y       z     vdW  Elec       q    Type
REMARK                         _______ _______ _______ _____ _____    ______ ____
ROOT
ATOM      1  N   LIG    1       -5.612   2.196  -1.457  0.00  0.00    -1.060 N 
ATOM      2  H   LIG    1       -5.369   3.131  -1.541  0.00  0.00    +0.430 HD
ENDROOT
BRANCH   1   6
ATOM      3  C   LIG    1       -4.159  -0.585  -4.190  0.00  0.00    -0.130 A 
ATOM      4  C   LIG    1       -5.495  -0.176  -4.250  0.00  0.00    +0.100 A 
ATOM      5  C   LIG    1       -5.972   0.743  -3.345  0.00  0.00    +0.040 A 
ATOM      6  C   LIG    1       -5.127   1.267  -2.370  0.00  0.00    +0.150 A 
ATOM      7  C   LIG    1       -3.795   0.866  -2.311  0.00  0.00    +0.020 A 
ATOM      8  C   LIG    1       -3.313  -0.058  -3.210  0.00  0.00    +0.050 A 
BRANCH   3  11
ATOM      9  N   LIG    1       -2.356  -1.964  -5.101  0.00  0.00    -0.720 N 
ATOM     10  H   LIG    1       -1.768  -1.599  -4.421  0.00  0.00    +0.400 HD
ATOM     11  C   LIG    1       -3.644  -1.571  -5.160  0.00  0.00    +0.560 C 
ATOM     12  O   LIG    1       -4.381  -2.028  -6.012  0.00  0.00    -0.530 OA
BRANCH   9  13
ATOM     13  C   LIG    1       -1.844  -2.942  -6.063  0.00  0.00    +0.290 C 
BRANCH  13  14
ATOM     14  C   LIG    1       -0.365  -3.213  -5.778  0.00  0.00    +0.180 C 
BRANCH  14  16
ATOM     15  C   LIG    1        1.116  -4.133  -4.134  0.00  0.00    +0.200 C 
ATOM     16  O   LIG    1       -0.233  -3.836  -4.499  0.00  0.00    -0.390 OA
ENDBRANCH  14  16
ENDBRANCH  13  14
ENDBRANCH   9  13
ENDBRANCH   3  11
ENDBRANCH   1   6
BRANCH   1  17
ATOM     17  S   LIG    1       -6.606   1.706  -0.226  0.00  0.00    +2.690 S 
ATOM     18  O   LIG    1       -6.866   2.859   0.563  0.00  0.00    -0.940 OA
ATOM     19  O   LIG    1       -7.633   0.927  -0.825  0.00  0.00    -0.940 OA
BRANCH  17  20
ATOM     20  C   LIG    1       -5.676   0.608   0.790  0.00  0.00    -0.670 A 
ATOM     21  C   LIG    1       -4.857   1.115   1.784  0.00  0.00    +0.140 A 
ATOM     22  C   LIG    1       -4.124   0.261   2.585  0.00  0.00    +0.030 A 
ATOM     23  C   LIG    1       -4.208  -1.109   2.393  0.00  0.00    +0.150 A 
ATOM     24  N   LIG    1       -3.610  -2.201   3.018  0.00  0.00    -0.640 N 
ATOM     25  H   LIG    1       -2.983  -2.159   3.756  0.00  0.00    +0.440 HD
ATOM     26  C   LIG    1       -4.052  -3.325   2.422  0.00  0.00    +0.690 A 
ATOM     27  N   LIG    1       -4.912  -3.007   1.436  0.00  0.00    -0.640 N 
ATOM     28  H   LIG    1       -5.370  -3.637   0.857  0.00  0.00    +0.440 HD
ATOM     29  O   LIG    1       -3.723  -4.455   2.728  0.00  0.00    -0.540 OA
ATOM     30  C   LIG    1       -5.030  -1.620   1.385  0.00  0.00    +0.070 A 
ATOM     31  C   LIG    1       -5.766  -0.756   0.590  0.00  0.00    +0.150 A 
ENDBRANCH  17  20
ENDBRANCH   1  17
TORSDOF 7
