REMARK  Name = ZINCrg000000mQNS.0
REMARK                            x       y       z     vdW  Elec       q    Type
REMARK                         _______ _______ _______ _____ _____    ______ ____
ROOT
ATOM      1  C   LIG    1       -3.725   3.294   0.036  0.00  0.00    -0.660 A 
ATOM      2  C   LIG    1       -3.696   1.911   0.030  0.00  0.00    +0.130 A 
ATOM      3  C   LIG    1       -2.488   1.244   0.018  0.00  0.00    +0.070 A 
ATOM      4  C   LIG    1       -1.295   1.968   0.012  0.00  0.00    -0.080 A 
ATOM      5  C   LIG    1       -1.332   3.363   0.023  0.00  0.00    +0.030 A 
ATOM      6  C   LIG    1       -2.546   4.018   0.029  0.00  0.00    +0.120 A 
ENDROOT
BRANCH   4   7
ATOM      7  C   LIG    1        0.003   1.260  -0.001  0.00  0.00    +0.560 C 
ATOM      8  N   LIG    1        1.154   1.961  -0.012  0.00  0.00    -0.720 N 
ATOM      9  H   LIG    1        1.130   2.931  -0.009  0.00  0.00    +0.400 HD
ATOM     10  O   LIG    1        0.032   0.044  -0.005  0.00  0.00    -0.520 OA
BRANCH   8  11
ATOM     11  C   LIG    1        2.439   1.260  -0.030  0.00  0.00    +0.390 C 
BRANCH  11  12
ATOM     12  C   LIG    1        3.561   2.266  -0.041  0.00  0.00    -0.050 A 
ATOM     13  C   LIG    1        4.160   2.788   1.045  0.00  0.00    -0.030 A 
ATOM     14  C   LIG    1        5.149   3.683   0.576  0.00  0.00    -0.070 A 
ATOM     15  C   LIG    1        5.096   3.654  -0.767  0.00  0.00    +0.190 A 
ATOM     16  O   LIG    1        4.136   2.790  -1.136  0.00  0.00    -0.170 OA
ENDBRANCH  11  12
ENDBRANCH   8  11
ENDBRANCH   4   7
BRANCH   1  17
ATOM     17  S   LIG    1       -5.272   4.138   0.052  0.00  0.00    +2.690 S 
ATOM     18  O   LIG    1       -6.227   3.236  -0.488  0.00  0.00    -0.940 OA
ATOM     19  O   LIG    1       -5.030   5.430  -0.489  0.00  0.00    -0.950 OA
BRANCH  17  25
ATOM     20  C   LIG    1       -5.106   5.530   6.385  0.00  0.00    +0.100 C 
ATOM     21  C   LIG    1       -5.645   4.344   5.628  0.00  0.00    +0.510 C 
ATOM     22  N   LIG    1       -5.306   4.158   4.337  0.00  0.00    -0.610 N 
ATOM     23  C   LIG    1       -4.511   5.165   3.620  0.00  0.00    +0.280 C 
ATOM     24  C   LIG    1       -5.272   5.580   2.354  0.00  0.00    +0.300 C 
ATOM     25  N   LIG    1       -5.689   4.367   1.638  0.00  0.00    -1.000 NA
ATOM     26  C   LIG    1       -6.489   3.362   2.353  0.00  0.00    +0.310 C 
ATOM     27  C   LIG    1       -5.723   2.945   3.621  0.00  0.00    +0.270 C 
ATOM     28  O   LIG    1       -6.385   3.557   6.179  0.00  0.00    -0.540 OA
ENDBRANCH  17  25
ENDBRANCH   1  17
TORSDOF 5
