REMARK  Name = ZINCrD00000F5LC9.0
REMARK                            x       y       z     vdW  Elec       q    Type
REMARK                         _______ _______ _______ _____ _____    ______ ____
ROOT
ATOM      1  O   LIG    1       -1.237  -0.800  -0.139  0.00  0.00    -0.320 OA
ENDROOT
BRANCH   1   2
ATOM      2  C   LIG    1        0.033  -0.150  -0.060  0.00  0.00    +0.180 C 
ATOM      3  C   LIG    1       -0.174   1.362   0.052  0.00  0.00    +0.070 C 
BRANCH   2   6
ATOM      4  N   LIG    1        2.045  -0.246   1.375  0.00  0.00    -0.670 N 
ATOM      5  H   LIG    1        2.504   0.300   0.718  0.00  0.00    +0.410 HD
ATOM      6  C   LIG    1        0.778  -0.646   1.152  0.00  0.00    +0.520 C 
ATOM      7  O   LIG    1        0.236  -1.407   1.927  0.00  0.00    -0.490 OA
BRANCH   4  13
ATOM      8  C   LIG    1        6.196  -1.462   3.712  0.00  0.00    +0.090 C 
ATOM      9  C   LIG    1        4.710  -1.213   3.717  0.00  0.00    -0.070 A 
ATOM     10  C   LIG    1        3.990  -1.352   4.890  0.00  0.00    -0.010 A 
ATOM     11  C   LIG    1        2.626  -1.125   4.898  0.00  0.00    +0.030 A 
ATOM     12  C   LIG    1        1.979  -0.753   3.736  0.00  0.00    +0.000 A 
ATOM     13  C   LIG    1        2.698  -0.617   2.556  0.00  0.00    +0.150 A 
ATOM     14  C   LIG    1        4.068  -0.846   2.550  0.00  0.00    -0.020 A 
ENDBRANCH   4  13
ENDBRANCH   2   6
ENDBRANCH   1   2
BRANCH   1  15
ATOM     15  C   LIG    1       -1.754  -0.986  -1.371  0.00  0.00    +0.510 C 
ATOM     16  O   LIG    1       -1.143  -0.605  -2.352  0.00  0.00    -0.510 OA
BRANCH  15  17
ATOM     17  C   LIG    1       -3.011  -1.624  -1.523  0.00  0.00    -0.060 C 
ATOM     18  C   LIG    1       -3.530  -1.810  -2.757  0.00  0.00    +0.160 C 
BRANCH  18  19
ATOM     19  C   LIG    1       -4.832  -2.472  -2.914  0.00  0.00    -0.090 A 
ATOM     20  C   LIG    1       -5.538  -2.911  -1.788  0.00  0.00    +0.060 A 
ATOM     21  C   LIG    1       -6.757  -3.532  -1.940  0.00  0.00    +0.020 A 
ATOM     22  C   LIG    1       -7.293  -3.725  -3.209  0.00  0.00    +0.070 A 
ATOM     23  O   LIG    1       -8.498  -4.343  -3.333  0.00  0.00    -0.300 OA
ATOM     24  C   LIG    1       -9.176  -4.186  -4.584  0.00  0.00    +0.230 C 
ATOM     25  C   LIG    1       -8.165  -4.427  -5.713  0.00  0.00    +0.230 C 
ATOM     26  O   LIG    1       -7.111  -3.467  -5.583  0.00  0.00    -0.310 OA
ATOM     27  C   LIG    1       -6.597  -3.289  -4.335  0.00  0.00    +0.040 A 
ATOM     28  C   LIG    1       -5.374  -2.661  -4.191  0.00  0.00    +0.060 A 
ENDBRANCH  18  19
ENDBRANCH  15  17
ENDBRANCH   1  15
TORSDOF 6
