REMARK  Name = ZINCrD000000fNZT.0
REMARK                            x       y       z     vdW  Elec       q    Type
REMARK                         _______ _______ _______ _____ _____    ______ ____
ROOT
ATOM      1  C   LIG    1       -2.337  -0.003   1.929  0.00  0.00    +0.570 C 
ATOM      2  N   LIG    1       -1.548   0.203   0.855  0.00  0.00    -0.610 N 
ATOM      3  C   LIG    1       -1.918  -0.338  -0.460  0.00  0.00    +0.260 C 
ATOM      4  C   LIG    1       -0.746  -1.163  -1.001  0.00  0.00    +0.020 C 
ATOM      5  C   LIG    1        0.519  -0.300  -1.009  0.00  0.00    +0.020 C 
ATOM      6  C   LIG    1        0.852   0.132   0.421  0.00  0.00    +0.020 C 
ATOM      7  C   LIG    1       -0.302   0.972   0.979  0.00  0.00    +0.220 C 
ATOM      8  O   LIG    1       -1.956   0.328   3.036  0.00  0.00    -0.490 OA
ENDROOT
BRANCH   1  13
ATOM      9  C   LIG    1       -5.505  -1.835   2.088  0.00  0.00    -0.250 A 
ATOM     10  C   LIG    1       -5.617  -1.168   0.878  0.00  0.00    +0.100 A 
ATOM     11  N   LIG    1       -4.504  -0.445   0.690  0.00  0.00    -0.530 N 
ATOM     12  H   LIG    1       -4.323   0.118  -0.079  0.00  0.00    +0.420 HD
ATOM     13  C   LIG    1       -3.656  -0.625   1.762  0.00  0.00    -0.050 A 
ATOM     14  C   LIG    1       -6.790  -1.243  -0.066  0.00  0.00    +0.150 C 
ATOM     15  C   LIG    1       -4.248  -1.485   2.638  0.00  0.00    -0.040 A 
ATOM     16  C   LIG    1       -3.676  -1.968   3.945  0.00  0.00    +0.120 C 
BRANCH   9  18
ATOM     17  C   LIG    1       -7.493  -2.205   3.682  0.00  0.00    +0.060 C 
ATOM     18  C   LIG    1       -6.497  -2.736   2.683  0.00  0.00    +0.430 C 
ATOM     19  O   LIG    1       -6.516  -3.908   2.371  0.00  0.00    -0.450 OA
ENDBRANCH   9  18
ENDBRANCH   1  13
BRANCH   7  20
ATOM     20  C   LIG    1       -0.038   1.291   2.452  0.00  0.00    +0.310 C 
BRANCH  20  21
ATOM     21  N   LIG    1       -1.095   2.170   2.958  0.00  0.00    -0.680 N 
ATOM     22  H   LIG    1       -1.861   2.379   2.400  0.00  0.00    +0.400 HD
ATOM     23  C   LIG    1       -1.003   2.690   4.198  0.00  0.00    +0.660 C 
ATOM     24  O   LIG    1       -0.044   2.429   4.896  0.00  0.00    -0.570 OA
BRANCH  23  25
ATOM     25  O   LIG    1       -1.974   3.498   4.662  0.00  0.00    -0.370 OA
BRANCH  25  26
ATOM     26  C   LIG    1       -1.810   4.022   6.007  0.00  0.00    +0.140 C 
ATOM     27  C   LIG    1       -1.730   2.861   7.000  0.00  0.00    +0.040 C 
ATOM     28  C   LIG    1       -3.003   4.912   6.357  0.00  0.00    +0.070 C 
ATOM     29  C   LIG    1       -0.521   4.843   6.079  0.00  0.00    +0.040 C 
ENDBRANCH  25  26
ENDBRANCH  23  25
ENDBRANCH  20  21
ENDBRANCH   7  20
TORSDOF 6
