REMARK  Name = ZINCrH000004kuvt.0
REMARK                            x       y       z     vdW  Elec       q    Type
REMARK                         _______ _______ _______ _____ _____    ______ ____
ROOT
ATOM      1  N   LIG    1       -6.890   3.397  -2.063  0.00  0.00    -0.690 N 
ATOM      2  H   LIG    1       -6.412   4.187  -2.359  0.00  0.00    +0.410 HD
ATOM      3  C   LIG    1       -6.227   2.398  -1.448  0.00  0.00    +0.700 C 
ATOM      4  N   LIG    1       -4.920   2.540  -1.151  0.00  0.00    -0.740 N 
ATOM      5  H   LIG    1       -4.456   3.360  -1.381  0.00  0.00    +0.400 HD
ATOM      6  O   LIG    1       -6.807   1.369  -1.160  0.00  0.00    -0.570 OA
ENDROOT
BRANCH   1  10
ATOM      7  C   LIG    1      -10.997   3.091  -2.695  0.00  0.00    -0.130 A 
ATOM      8  C   LIG    1      -10.428   2.527  -1.568  0.00  0.00    +0.060 A 
ATOM      9  C   LIG    1       -9.067   2.627  -1.355  0.00  0.00    +0.020 A 
ATOM     10  C   LIG    1       -8.269   3.294  -2.276  0.00  0.00    +0.180 A 
ATOM     11  C   LIG    1       -8.844   3.863  -3.404  0.00  0.00    -0.020 A 
ATOM     12  C   LIG    1      -10.205   3.756  -3.614  0.00  0.00    +0.060 A 
BRANCH   7  13
ATOM     13  C   LIG    1      -12.482   2.980  -2.924  0.00  0.00    +0.340 C 
BRANCH  13  15
ATOM     14  C   LIG    1      -14.498   4.238  -2.388  0.00  0.00    +0.640 C 
ATOM     15  N   LIG    1      -13.158   4.125  -2.310  0.00  0.00    -0.710 N 
ATOM     16  H   LIG    1      -12.640   4.802  -1.847  0.00  0.00    +0.410 HD
ATOM     17  O   LIG    1      -15.147   3.390  -2.969  0.00  0.00    -0.570 OA
BRANCH  14  19
ATOM     18  C   LIG    1      -16.565   5.348  -1.947  0.00  0.00    +0.280 C 
ATOM     19  O   LIG    1      -15.120   5.291  -1.824  0.00  0.00    -0.370 OA
ENDBRANCH  14  19
ENDBRANCH  13  15
ENDBRANCH   7  13
ENDBRANCH   1  10
BRANCH   4  20
ATOM     20  C   LIG    1       -4.198   1.454  -0.482  0.00  0.00    +0.290 C 
BRANCH  20  21
ATOM     21  C   LIG    1       -2.779   1.915  -0.147  0.00  0.00    +0.030 C 
ATOM     22  C   LIG    1       -2.848   3.087   0.830  0.00  0.00    +0.020 C 
ATOM     23  C   LIG    1       -1.427   3.393   1.317  0.00  0.00    +0.020 C 
ATOM     24  C   LIG    1       -0.969   2.250   2.220  0.00  0.00    +0.080 C 
ATOM     25  C   LIG    1       -1.176   0.922   1.539  0.00  0.00    -0.070 A 
ATOM     26  C   LIG    1       -0.487  -0.175   2.039  0.00  0.00    +0.000 A 
ATOM     27  C   LIG    1       -0.638  -1.419   1.462  0.00  0.00    +0.000 A 
ATOM     28  C   LIG    1       -1.482  -1.576   0.378  0.00  0.00    +0.000 A 
ATOM     29  C   LIG    1       -2.165  -0.486  -0.121  0.00  0.00    +0.000 A 
ATOM     30  C   LIG    1       -2.013   0.767   0.456  0.00  0.00    -0.070 A 
ENDBRANCH  20  21
ENDBRANCH   4  20
TORSDOF 6
