REMARK  Name = ZINCrH000004smxW.0
REMARK                            x       y       z     vdW  Elec       q    Type
REMARK                         _______ _______ _______ _____ _____    ______ ____
ROOT
ATOM      1  C   LIG    1       -1.993   0.886   5.220  0.00  0.00    +0.180 C 
ATOM      2  C   LIG    1       -2.546   1.989   4.354  0.00  0.00    +0.170 A 
ATOM      3  C   LIG    1       -2.164   2.177   3.054  0.00  0.00    -0.300 A 
ATOM      4  S   LIG    1       -3.057   3.560   2.426  0.00  0.00    +0.200 S 
ATOM      5  C   LIG    1       -3.837   3.756   3.934  0.00  0.00    +0.090 A 
ATOM      6  N   LIG    1       -3.430   2.851   4.779  0.00  0.00    -0.470 NA
ENDROOT
BRANCH   5   7
ATOM      7  C   LIG    1       -4.833   4.804   4.237  0.00  0.00    -0.020 A 
ATOM      8  C   LIG    1       -5.411   4.875   5.506  0.00  0.00    +0.110 A 
ATOM      9  C   LIG    1       -6.341   5.856   5.784  0.00  0.00    +0.040 A 
ATOM     10  C   LIG    1       -6.702   6.770   4.808  0.00  0.00    +0.090 A 
ATOM     11  C   LIG    1       -6.131   6.705   3.544  0.00  0.00    +0.070 A 
ATOM     12  F   LIG    1       -6.488   7.598   2.596  0.00  0.00    -0.120 F 
ATOM     13  F   LIG    1       -7.613   7.728   5.087  0.00  0.00    -0.120 F 
ATOM     14  C   LIG    1       -5.195   5.731   3.257  0.00  0.00    +0.040 A 
ENDBRANCH   5   7
BRANCH   3  15
ATOM     15  C   LIG    1       -1.190   1.369   2.313  0.00  0.00    +0.630 C 
ATOM     16  N   LIG    1       -0.909   1.663   1.028  0.00  0.00    -0.640 N 
ATOM     17  C   LIG    1       -0.013   1.086   0.008  0.00  0.00    +0.330 C 
ATOM     18  C   LIG    1       -0.968   1.699  -1.032  0.00  0.00    +0.140 C 
ATOM     19  C   LIG    1       -1.374   2.691   0.073  0.00  0.00    +0.270 C 
ATOM     20  O   LIG    1       -0.636   0.433   2.859  0.00  0.00    -0.510 OA
BRANCH  18  21
ATOM     21  C   LIG    1       -2.079   0.774  -1.455  0.00  0.00    -0.110 A 
ATOM     22  C   LIG    1       -2.563  -0.174  -0.573  0.00  0.00    +0.020 A 
ATOM     23  C   LIG    1       -3.587  -1.019  -0.959  0.00  0.00    +0.010 A 
ATOM     24  C   LIG    1       -4.118  -0.924  -2.231  0.00  0.00    +0.020 A 
ATOM     25  C   LIG    1       -3.631   0.019  -3.116  0.00  0.00    +0.010 A 
ATOM     26  C   LIG    1       -2.611   0.869  -2.727  0.00  0.00    +0.010 A 
ENDBRANCH  18  21
BRANCH  18  27
ATOM     27  O   LIG    1       -0.299   2.309  -2.138  0.00  0.00    -0.530 OA
ATOM     28  H   LIG    1       -0.896   2.696  -2.793  0.00  0.00    +0.380 HD
ENDBRANCH  18  27
ENDBRANCH   3  15
TORSDOF 4
