REMARK  Name = ZINCrH000004qpDc.0
REMARK                            x       y       z     vdW  Elec       q    Type
REMARK                         _______ _______ _______ _____ _____    ______ ____
ROOT
ATOM      1  C   LIG    1        1.147   1.655   0.000  0.00  0.00    +0.570 C 
ATOM      2  N   LIG    1       -0.011   0.966  -0.010  0.00  0.00    -0.720 N 
ATOM      3  H   LIG    1        0.002  -0.004  -0.028  0.00  0.00    +0.400 HD
ATOM      4  O   LIG    1        1.130   2.871   0.022  0.00  0.00    -0.510 OA
ENDROOT
BRANCH   1  15
ATOM      5  C   LIG    1        3.759  -2.602   0.165  0.00  0.00    +0.140 C 
ATOM      6  C   LIG    1        3.720  -1.099   0.061  0.00  0.00    +0.160 A 
ATOM      7  N   LIG    1        4.846  -0.439  -0.045  0.00  0.00    -0.460 NA
ATOM      8  C   LIG    1        4.876   0.893  -0.141  0.00  0.00    +0.160 A 
ATOM      9  C   LIG    1        6.096   1.583  -0.254  0.00  0.00    +0.010 A 
ATOM     10  C   LIG    1        6.097   2.943  -0.350  0.00  0.00    +0.130 A 
ATOM     11  C   LIG    1        4.904   3.665  -0.340  0.00  0.00    +0.000 A 
ATOM     12  C   LIG    1        3.704   3.029  -0.232  0.00  0.00    +0.110 A 
ATOM     13  F   LIG    1        7.272   3.601  -0.458  0.00  0.00    -0.130 F 
ATOM     14  C   LIG    1        3.666   1.632  -0.136  0.00  0.00    -0.080 A 
ATOM     15  C   LIG    1        2.438   0.933  -0.016  0.00  0.00    -0.060 A 
ATOM     16  C   LIG    1        2.486  -0.451   0.080  0.00  0.00    +0.010 A 
ENDBRANCH   1  15
BRANCH   2  17
ATOM     17  C   LIG    1       -1.290   1.681  -0.000  0.00  0.00    +0.260 C 
BRANCH  17  18
ATOM     18  C   LIG    1       -2.439   0.672  -0.022  0.00  0.00    +0.300 C 
BRANCH  18  19
ATOM     19  N   LIG    1       -3.718   1.387  -0.012  0.00  0.00    -0.490 N 
ATOM     20  C   LIG    1       -4.429   1.807  -1.118  0.00  0.00    +0.050 A 
ATOM     21  C   LIG    1       -4.225   1.720  -2.488  0.00  0.00    +0.010 A 
ATOM     22  C   LIG    1       -5.156   2.258  -3.352  0.00  0.00    +0.030 A 
ATOM     23  C   LIG    1       -6.292   2.884  -2.861  0.00  0.00    +0.000 A 
ATOM     24  C   LIG    1       -6.509   2.979  -1.515  0.00  0.00    +0.070 A 
ATOM     25  C   LIG    1       -5.580   2.441  -0.621  0.00  0.00    +0.050 A 
ATOM     26  N   LIG    1       -5.513   2.377   0.734  0.00  0.00    -0.490 NA
ATOM     27  C   LIG    1       -4.427   1.755   1.089  0.00  0.00    +0.290 A 
ATOM     28  C   LIG    1       -4.013   1.486   2.513  0.00  0.00    +0.190 C 
ENDBRANCH  18  19
ENDBRANCH  17  18
ENDBRANCH   2  17
TORSDOF 4
