REMARK  Name = ZINCDN00000009h0.1
REMARK                            x       y       z     vdW  Elec       q    Type
REMARK                         _______ _______ _______ _____ _____    ______ ____
ROOT
ATOM      1  C   LIG    1        1.183   1.790   0.007  0.00  0.00    +0.110 A 
ATOM      2  C   LIG    1        1.169   3.179   0.024  0.00  0.00    +0.070 A 
ATOM      3  C   LIG    1       -0.034   3.857   0.045  0.00  0.00    -0.030 A 
ATOM      4  C   LIG    1       -1.229   3.150   0.050  0.00  0.00    +0.190 A 
ATOM      5  C   LIG    1       -1.215   1.762   0.028  0.00  0.00    -0.580 A 
ATOM      6  C   LIG    1       -0.013   1.084   0.012  0.00  0.00    +0.100 A 
ENDROOT
BRANCH   4   7
ATOM      7  N   LIG    1       -2.447   3.837   0.072  0.00  0.00    -0.490 N 
ATOM      8  C   LIG    1       -2.627   4.630  -1.151  0.00  0.00    +0.180 C 
ATOM      9  C   LIG    1       -4.026   5.249  -1.158  0.00  0.00    +0.020 C 
ATOM     10  C   LIG    1       -4.192   6.138   0.077  0.00  0.00    -0.010 C 
ATOM     11  C   LIG    1       -3.953   5.299   1.336  0.00  0.00    +0.020 C 
ATOM     12  C   LIG    1       -2.556   4.679   1.271  0.00  0.00    +0.190 C 
ENDBRANCH   4   7
BRANCH   1  15
ATOM     13  O   LIG    1        3.366   2.704  -1.212  0.00  0.00    -0.500 OA
ATOM     14  C   LIG    1        3.452   1.611  -0.692  0.00  0.00    +0.520 C 
ATOM     15  N   LIG    1        2.404   1.102  -0.015  0.00  0.00    -0.660 N 
ATOM     16  H   LIG    1        2.494   0.259   0.456  0.00  0.00    +0.420 HD
BRANCH  14  17
ATOM     17  C   LIG    1        4.731   0.823  -0.804  0.00  0.00    +0.270 C 
BRANCH  17  18
ATOM     18  O   LIG    1        5.686   1.568  -1.563  0.00  0.00    -0.260 OA
BRANCH  18  19
ATOM     19  C   LIG    1        6.901   0.996  -1.758  0.00  0.00    +0.340 A 
ATOM     20  N   LIG    1        7.154  -0.183  -1.262  0.00  0.00    -0.320 NA
ATOM     21  N   LIG    1        8.383  -0.821  -1.430  0.00  0.00    -0.510 N 
ATOM     22  H   LIG    1        8.516  -1.699  -1.038  0.00  0.00    +0.440 HD
ATOM     23  C   LIG    1        9.391  -0.252  -2.122  0.00  0.00    +0.530 A 
ATOM     24  C   LIG    1        9.184   1.077  -2.712  0.00  0.00    -0.110 A 
ATOM     25  C   LIG    1       10.181   1.724  -3.439  0.00  0.00    +0.090 A 
ATOM     26  C   LIG    1        9.933   2.970  -3.972  0.00  0.00    +0.040 A 
ATOM     27  C   LIG    1        8.701   3.586  -3.791  0.00  0.00    +0.050 A 
ATOM     28  C   LIG    1        7.702   2.964  -3.076  0.00  0.00    +0.080 A 
ATOM     29  O   LIG    1       10.456  -0.830  -2.255  0.00  0.00    -0.520 OA
ATOM     30  C   LIG    1        7.928   1.700  -2.533  0.00  0.00    -0.050 A 
ENDBRANCH  18  19
ENDBRANCH  17  18
ENDBRANCH  14  17
ENDBRANCH   1  15
BRANCH   5  31
ATOM     31  S   LIG    1       -2.732   0.865   0.026  0.00  0.00    +2.620 S 
ATOM     32  O   LIG    1       -2.384  -0.513   0.042  0.00  0.00    -1.040 OA
ATOM     33  O   LIG    1       -3.543   1.450  -0.983  0.00  0.00    -1.010 OA
BRANCH  31  34
ATOM     34  N   LIG    1       -3.485   1.173   1.468  0.00  0.00    -1.070 NA
BRANCH  34  35
ATOM     35  C   LIG    1       -4.723   0.589   1.749  0.00  0.00    +0.290 A 
ATOM     36  C   LIG    1       -5.325  -0.246   0.817  0.00  0.00    -0.160 A 
ATOM     37  C   LIG    1       -6.546  -0.827   1.100  0.00  0.00    +0.060 A 
ATOM     38  C   LIG    1       -7.175  -0.569   2.305  0.00  0.00    -0.140 A 
ATOM     39  C   LIG    1       -6.579   0.268   3.233  0.00  0.00    +0.040 A 
ATOM     40 CL   LIG    1       -8.712  -1.295   2.654  0.00  0.00    -0.120 Cl
ATOM     41  C   LIG    1       -5.356   0.847   2.959  0.00  0.00    -0.060 A 
ENDBRANCH  34  35
ENDBRANCH  31  34
ENDBRANCH   5  31
TORSDOF 8
