REMARK  Name = ZINCrD000000B6aT.0
REMARK                            x       y       z     vdW  Elec       q    Type
REMARK                         _______ _______ _______ _____ _____    ______ ____
ROOT
ATOM      1  O   LIG    1        6.203  -1.348   1.171  0.00  0.00    -0.530 OA
ATOM      2  C   LIG    1        5.280  -2.033   1.556  0.00  0.00    +0.550 C 
ATOM      3  N   LIG    1        5.484  -2.962   2.512  0.00  0.00    -0.730 N 
ATOM      4  H   LIG    1        4.745  -3.510   2.820  0.00  0.00    +0.400 HD
ENDROOT
BRANCH   2   5
ATOM      5  C   LIG    1        3.906  -1.848   0.966  0.00  0.00    -0.040 C 
ATOM      6  C   LIG    1        3.556  -0.465   0.411  0.00  0.00    +0.100 C 
ATOM      7  C   LIG    1        2.932  -0.945   1.718  0.00  0.00    -0.070 C 
ATOM      8  C   LIG    1        3.413  -0.299   3.023  0.00  0.00    +0.050 C 
ATOM      9  C   LIG    1        2.773  -1.074   4.185  0.00  0.00    +0.240 C 
ATOM     10  O   LIG    1        1.353  -0.984   4.079  0.00  0.00    -0.310 OA
ATOM     11  C   LIG    1        0.760  -1.321   2.906  0.00  0.00    +0.150 A 
ATOM     12  C   LIG    1       -0.584  -1.674   2.899  0.00  0.00    +0.010 A 
ATOM     13  C   LIG    1       -1.206  -2.011   1.713  0.00  0.00    +0.070 A 
ATOM     14  C   LIG    1       -0.493  -2.002   0.527  0.00  0.00    -0.060 A 
ATOM     15  C   LIG    1        0.847  -1.655   0.530  0.00  0.00    +0.070 A 
ATOM     16 CL   LIG    1       -1.278  -2.425  -0.962  0.00  0.00    -0.070 Cl
ATOM     17  C   LIG    1        1.470  -1.317   1.714  0.00  0.00    -0.110 A 
ENDBRANCH   2   5
BRANCH   3  18
ATOM     18  C   LIG    1        6.819  -3.142   3.086  0.00  0.00    +0.280 C 
BRANCH  18  19
ATOM     19  C   LIG    1        6.776  -4.249   4.141  0.00  0.00    +0.130 C 
BRANCH  19  20
ATOM     20  C   LIG    1        8.151  -4.435   4.731  0.00  0.00    +0.060 A 
ATOM     21  C   LIG    1        8.459  -4.372   6.044  0.00  0.00    +0.090 A 
ATOM     22  N   LIG    1        9.804  -4.598   6.155  0.00  0.00    -0.360 N 
ATOM     23  C   LIG    1       10.647  -4.652   7.227  0.00  0.00    +0.210 A 
ATOM     24  C   LIG    1       11.964  -4.891   7.056  0.00  0.00    +0.010 A 
ATOM     25  C   LIG    1       12.486  -5.088   5.766  0.00  0.00    +0.040 A 
ATOM     26  C   LIG    1       11.658  -5.036   4.689  0.00  0.00    +0.070 A 
ATOM     27  C   LIG    1       10.285  -4.786   4.885  0.00  0.00    +0.230 A 
ATOM     28  N   LIG    1        9.267  -4.683   4.042  0.00  0.00    -0.490 NA
ENDBRANCH  19  20
ENDBRANCH  18  19
ENDBRANCH   3  18
TORSDOF 4
