REMARK  Name = ZINCvU00000004jB.0
REMARK                            x       y       z     vdW  Elec       q    Type
REMARK                         _______ _______ _______ _____ _____    ______ ____
ROOT
ATOM      1  C   LIG    1        4.362   4.469   0.478  0.00  0.00    -0.000 A 
ATOM      2  N   LIG    1        3.401   3.589   0.702  0.00  0.00    -0.260 NA
ATOM      3  N   LIG    1        2.339   3.913   0.049  0.00  0.00    -0.220 N 
ATOM      4  C   LIG    1        2.556   5.053  -0.644  0.00  0.00    +0.020 A 
ATOM      5  C   LIG    1        1.610   5.814  -1.537  0.00  0.00    +0.120 C 
ATOM      6  C   LIG    1        2.173   7.226  -1.745  0.00  0.00    +0.030 C 
ATOM      7  C   LIG    1        3.643   7.137  -2.165  0.00  0.00    +0.020 C 
ATOM      8  C   LIG    1        4.487   6.658  -0.976  0.00  0.00    +0.130 C 
ATOM      9  C   LIG    1        3.833   5.434  -0.396  0.00  0.00    -0.130 A 
ENDROOT
BRANCH   3  10
ATOM     10  C   LIG    1        1.136   3.195   0.059  0.00  0.00    +0.150 A 
ATOM     11  C   LIG    1        0.366   3.111  -1.093  0.00  0.00    +0.020 A 
ATOM     12  C   LIG    1       -0.820   2.403  -1.081  0.00  0.00    +0.080 A 
ATOM     13  C   LIG    1       -1.244   1.781   0.078  0.00  0.00    -0.110 A 
ATOM     14  C   LIG    1       -0.475   1.857   1.229  0.00  0.00    +0.120 A 
ATOM     15  F   LIG    1       -0.889   1.244   2.359  0.00  0.00    -0.130 F 
ATOM     16  C   LIG    1       -2.541   1.014   0.089  0.00  0.00    +0.110 C 
ATOM     17  C   LIG    1        0.713   2.565   1.222  0.00  0.00    +0.020 A 
ENDBRANCH   3  10
BRANCH   1  20
ATOM     18  N   LIG    1        6.096   3.449   1.871  0.00  0.00    -0.650 N 
ATOM     19  H   LIG    1        5.495   2.705   2.032  0.00  0.00    +0.420 HD
ATOM     20  C   LIG    1        5.727   4.445   1.041  0.00  0.00    +0.610 C 
ATOM     21  O   LIG    1        6.518   5.323   0.755  0.00  0.00    -0.510 OA
BRANCH  18  24
ATOM     22  C   LIG    1        9.133   4.744   3.499  0.00  0.00    +0.130 A 
ATOM     23  C   LIG    1        7.896   4.707   2.877  0.00  0.00    -0.010 A 
ATOM     24  C   LIG    1        7.346   3.490   2.501  0.00  0.00    +0.170 A 
ATOM     25  C   LIG    1        8.037   2.308   2.756  0.00  0.00    +0.080 A 
ATOM     26  C   LIG    1        9.277   2.351   3.374  0.00  0.00    +0.010 A 
ATOM     27  C   LIG    1        9.823   3.565   3.747  0.00  0.00    -0.050 A 
ATOM     28 CL   LIG    1       11.373   3.615   4.528  0.00  0.00    -0.050 Cl
BRANCH  22  30
ATOM     29  C   LIG    1        8.909   7.111   3.582  0.00  0.00    +0.240 C 
ATOM     30  O   LIG    1        9.673   5.937   3.868  0.00  0.00    -0.300 OA
ENDBRANCH  22  30
BRANCH  25  31
ATOM     31  O   LIG    1        7.498   1.112   2.394  0.00  0.00    -0.310 OA
ATOM     32  C   LIG    1        8.262  -0.059   2.687  0.00  0.00    +0.250 C 
ENDBRANCH  25  31
ENDBRANCH  18  24
ENDBRANCH   1  20
TORSDOF 5
