REMARK  Name = ZINCrD00000hQ63c.0
REMARK                            x       y       z     vdW  Elec       q    Type
REMARK                         _______ _______ _______ _____ _____    ______ ____
ROOT
ATOM      1  C   LIG    1       -6.257   5.780   5.119  0.00  0.00    +0.520 A 
ATOM      2  C   LIG    1       -5.462   4.635   4.880  0.00  0.00    -0.430 A 
ATOM      3  C   LIG    1       -5.182   3.773   5.968  0.00  0.00    +0.550 A 
ATOM      4  N   LIG    1       -5.687   4.072   7.184  0.00  0.00    -0.440 N 
ATOM      5  C   LIG    1       -5.423   3.247   8.237  0.00  0.00    +0.300 A 
ATOM      6  C   LIG    1       -5.915   3.517   9.467  0.00  0.00    -0.010 A 
ATOM      7  C   LIG    1       -6.704   4.656   9.675  0.00  0.00    +0.150 A 
ATOM      8  C   LIG    1       -6.973   5.488   8.629  0.00  0.00    +0.020 A 
ATOM      9  C   LIG    1       -6.455   5.191   7.355  0.00  0.00    +0.450 A 
ATOM     10  O   LIG    1       -4.498   2.777   5.809  0.00  0.00    -0.510 OA
ATOM     11  N   LIG    1       -6.723   6.010   6.338  0.00  0.00    -0.580 NA
ENDROOT
BRANCH   2  12
ATOM     12  C   LIG    1       -4.953   4.362   3.589  0.00  0.00    +0.340 C 
ATOM     13  C   LIG    1       -4.186   5.290   2.947  0.00  0.00    -0.320 C 
ATOM     14  S   LIG    1       -3.575   6.828   3.588  0.00  0.00    +0.110 S 
ATOM     15  C   LIG    1       -2.738   7.274   2.090  0.00  0.00    +0.260 C 
ATOM     16  N   LIG    1       -2.969   6.274   1.227  0.00  0.00    -0.510 N 
ATOM     17  S   LIG    1       -1.824   8.693   1.803  0.00  0.00    -0.370 S 
ATOM     18  C   LIG    1       -3.698   5.243   1.621  0.00  0.00    +0.550 C 
ATOM     19  O   LIG    1       -3.935   4.304   0.881  0.00  0.00    -0.470 OA
BRANCH  16  20
ATOM     20  C   LIG    1       -2.418   6.319  -0.129  0.00  0.00    +0.300 C 
BRANCH  20  21
ATOM     21  C   LIG    1       -3.418   7.002  -1.064  0.00  0.00    -0.030 C 
ATOM     22  C   LIG    1       -3.590   8.464  -0.648  0.00  0.00    +0.030 C 
ATOM     23  C   LIG    1       -2.898   6.939  -2.502  0.00  0.00    +0.040 C 
ENDBRANCH  20  21
ENDBRANCH  16  20
ENDBRANCH   2  12
BRANCH   1  24
ATOM     24  N   LIG    1       -6.548   6.649   4.090  0.00  0.00    -0.680 N 
ATOM     25  H   LIG    1       -6.208   6.477   3.199  0.00  0.00    +0.410 HD
BRANCH  24  26
ATOM     26  C   LIG    1       -7.373   7.834   4.343  0.00  0.00    +0.280 C 
BRANCH  26  28
ATOM     27  C   LIG    1       -8.404   9.860   3.308  0.00  0.00    +0.030 C 
ATOM     28  C   LIG    1       -7.543   8.623   3.043  0.00  0.00    +0.000 C 
ENDBRANCH  26  28
ENDBRANCH  24  26
ENDBRANCH   1  24
TORSDOF 6
