REMARK  Name = ZINCpk00001AZjdV.0
REMARK                            x       y       z     vdW  Elec       q    Type
REMARK                         _______ _______ _______ _____ _____    ______ ____
ROOT
ATOM      1  C   LIG    1        1.319  10.446   2.709  0.00  0.00    +0.100 A 
ATOM      2  C   LIG    1        0.511   9.326   2.711  0.00  0.00    -0.010 A 
ATOM      3  C   LIG    1        0.749   8.293   1.797  0.00  0.00    -0.080 A 
ATOM      4  C   LIG    1        1.798   8.406   0.878  0.00  0.00    +0.040 A 
ATOM      5  C   LIG    1        2.597   9.529   0.879  0.00  0.00    -0.040 A 
ATOM      6  C   LIG    1        2.363  10.551   1.790  0.00  0.00    +0.120 A 
ENDROOT
BRANCH   1   8
ATOM      7  C   LIG    1        0.007  11.275   4.511  0.00  0.00    +0.240 C 
ATOM      8  O   LIG    1        1.094  11.449   3.599  0.00  0.00    -0.300 OA
ENDBRANCH   1   8
BRANCH   3   9
ATOM      9  C   LIG    1       -0.104   7.097   1.798  0.00  0.00    +0.140 C 
ATOM     10  C   LIG    1        0.123   6.104   0.911  0.00  0.00    -0.080 C 
BRANCH  10  11
ATOM     11  C   LIG    1       -0.726   4.914   0.912  0.00  0.00    +0.550 C 
ATOM     12  N   LIG    1       -0.498   3.923   0.028  0.00  0.00    -0.590 N 
ATOM     13  C   LIG    1        0.600   4.039  -0.935  0.00  0.00    +0.300 C 
ATOM     14  O   LIG    1       -1.638   4.817   1.712  0.00  0.00    -0.530 OA
BRANCH  12  15
ATOM     15  C   LIG    1       -1.349   2.730   0.028  0.00  0.00    +0.240 C 
ATOM     16  C   LIG    1       -0.959   1.695  -1.040  0.00  0.00    +0.070 C 
ATOM     17  C   LIG    1       -0.013   1.086   0.008  0.00  0.00    +0.040 C 
ATOM     18  C   LIG    1       -0.939   1.683   1.080  0.00  0.00    +0.060 C 
BRANCH  15  19
ATOM     19  C   LIG    1       -2.785   3.052   0.041  0.00  0.00    +0.210 C 
ATOM     20  N   LIG    1       -3.893   3.301   0.051  0.00  0.00    -0.410 NA
ENDBRANCH  15  19
ENDBRANCH  12  15
ENDBRANCH  10  11
ENDBRANCH   3   9
BRANCH   6  21
ATOM     21  O   LIG    1        3.153  11.655   1.786  0.00  0.00    -0.270 OA
BRANCH  21  22
ATOM     22  C   LIG    1        4.203  11.698   0.818  0.00  0.00    +0.240 C 
BRANCH  22  23
ATOM     23  C   LIG    1        4.968  12.989   0.963  0.00  0.00    +0.520 C 
ATOM     24  O   LIG    1        4.645  13.793   1.812  0.00  0.00    -0.510 OA
ATOM     25  N   LIG    1        6.011  13.249   0.150  0.00  0.00    -0.850 N 
ATOM     26  H   LIG    1        6.503  14.080   0.244  0.00  0.00    +0.410 HD
ATOM     27  H   LIG    1        6.269  12.606  -0.529  0.00  0.00    +0.400 HD
ENDBRANCH  22  23
ENDBRANCH  21  22
ENDBRANCH   6  21
TORSDOF 8
