REMARK  Name = ZINCqH0000032VJC.0
REMARK                            x       y       z     vdW  Elec       q    Type
REMARK                         _______ _______ _______ _____ _____    ______ ____
ROOT
ATOM      1  C   LIG    1       -1.196   1.709  -0.056  0.00  0.00    -0.640 A 
ATOM      2  C   LIG    1       -0.003   1.096  -0.399  0.00  0.00    +0.120 A 
ATOM      3  C   LIG    1        1.174   1.815  -0.385  0.00  0.00    +0.020 A 
ATOM      4  C   LIG    1        1.162   3.161  -0.017  0.00  0.00    -0.070 A 
ATOM      5  C   LIG    1       -0.043   3.772   0.333  0.00  0.00    +0.050 A 
ATOM      6  C   LIG    1       -1.214   3.042   0.315  0.00  0.00    +0.130 A 
ENDROOT
BRANCH   4   7
ATOM      7  C   LIG    1        2.420   3.937   0.001  0.00  0.00    +0.560 C 
ATOM      8  N   LIG    1        3.496   3.461   0.658  0.00  0.00    -0.610 N 
ATOM      9  C   LIG    1        3.476   2.136   1.301  0.00  0.00    +0.270 C 
ATOM     10  C   LIG    1        4.535   1.265   0.620  0.00  0.00    +0.080 C 
ATOM     11  C   LIG    1        5.817   2.027   0.463  0.00  0.00    +0.010 C 
ATOM     12  C   LIG    1        5.912   3.338   0.516  0.00  0.00    -0.070 C 
ATOM     13  C   LIG    1        4.738   4.241   0.756  0.00  0.00    +0.360 C 
ATOM     14  O   LIG    1        2.484   5.005  -0.577  0.00  0.00    -0.520 OA
BRANCH  12  15
ATOM     15  C   LIG    1        7.236   3.951   0.326  0.00  0.00    +0.010 A 
ATOM     16  C   LIG    1        7.978   3.912  -0.816  0.00  0.00    -0.040 A 
ATOM     17  C   LIG    1        9.166   4.622  -0.550  0.00  0.00    -0.060 A 
ATOM     18  C   LIG    1        9.092   5.054   0.724  0.00  0.00    +0.180 A 
ATOM     19  O   LIG    1        7.923   4.652   1.249  0.00  0.00    -0.170 OA
ENDBRANCH  12  15
ENDBRANCH   4   7
BRANCH   1  20
ATOM     20  S   LIG    1       -2.696   0.785  -0.084  0.00  0.00    +2.490 S 
ATOM     21  O   LIG    1       -2.456  -0.244  -1.033  0.00  0.00    -0.930 OA
ATOM     22  O   LIG    1       -3.704   1.763  -0.303  0.00  0.00    -0.930 OA
BRANCH  20  23
ATOM     23  C   LIG    1       -2.833   0.092   1.587  0.00  0.00    -0.320 C 
BRANCH  23  24
ATOM     24  C   LIG    1       -4.112  -0.741   1.690  0.00  0.00    +0.040 C 
BRANCH  24  26
ATOM     25  C   LIG    1       -5.506  -2.159   3.203  0.00  0.00    +0.020 C 
ATOM     26  C   LIG    1       -4.227  -1.325   3.099  0.00  0.00    +0.020 C 
ENDBRANCH  24  26
ENDBRANCH  23  24
ENDBRANCH  20  23
ENDBRANCH   1  20
TORSDOF 6
