REMARK  Name = ZINCtV000002Mjhb.0
REMARK                            x       y       z     vdW  Elec       q    Type
REMARK                         _______ _______ _______ _____ _____    ______ ____
ROOT
ATOM      1  C   LIG    1       -7.143   4.259   0.000  0.00  0.00    +0.130 A 
ATOM      2  C   LIG    1       -6.924   5.628  -0.084  0.00  0.00    -0.010 A 
ATOM      3  C   LIG    1       -7.997   6.493  -0.164  0.00  0.00    +0.030 A 
ATOM      4  C   LIG    1       -9.289   5.999  -0.149  0.00  0.00    -0.080 A 
ATOM      5  C   LIG    1       -9.510   4.637  -0.059  0.00  0.00    +0.020 A 
ATOM      6  C   LIG    1       -8.441   3.765   0.015  0.00  0.00    +0.020 A 
ENDROOT
BRANCH   4   7
ATOM      7  C   LIG    1      -10.457   6.947  -0.231  0.00  0.00    -0.010 C 
ATOM      8  C   LIG    1      -11.290   6.624  -1.473  0.00  0.00    +0.020 C 
ATOM      9  C   LIG    1      -12.476   7.586  -1.556  0.00  0.00    -0.020 C 
ATOM     10  C   LIG    1      -13.345   7.433  -0.306  0.00  0.00    +0.010 C 
ATOM     11  C   LIG    1      -12.513   7.756   0.936  0.00  0.00    -0.020 C 
ATOM     12  C   LIG    1      -11.998   9.194   0.845  0.00  0.00    +0.010 C 
ATOM     13  C   LIG    1      -11.129   9.347  -0.405  0.00  0.00    -0.020 C 
ATOM     14  C   LIG    1      -11.962   9.024  -1.647  0.00  0.00    +0.010 C 
ATOM     15  C   LIG    1      -11.326   6.794   1.019  0.00  0.00    +0.020 C 
ATOM     16  C   LIG    1       -9.943   8.385  -0.322  0.00  0.00    +0.040 C 
ENDBRANCH   4   7
BRANCH   1  19
ATOM     17  O   LIG    1       -7.161   1.810  -1.040  0.00  0.00    -0.490 OA
ATOM     18  C   LIG    1       -6.128   2.169  -0.515  0.00  0.00    +0.510 C 
ATOM     19  N   LIG    1       -6.057   3.379   0.076  0.00  0.00    -0.670 N 
ATOM     20  H   LIG    1       -5.254   3.639   0.554  0.00  0.00    +0.410 HD
BRANCH  18  21
ATOM     21  C   LIG    1       -4.924   1.264  -0.524  0.00  0.00    +0.240 C 
BRANCH  21  22
ATOM     22  O   LIG    1       -5.246   0.049  -1.204  0.00  0.00    -0.270 OA
BRANCH  22  23
ATOM     23  C   LIG    1       -4.262  -0.884  -1.301  0.00  0.00    +0.140 A 
ATOM     24  C   LIG    1       -3.014  -0.637  -0.749  0.00  0.00    -0.040 A 
ATOM     25  C   LIG    1       -2.014  -1.585  -0.853  0.00  0.00    +0.090 A 
ATOM     26  C   LIG    1       -2.259  -2.783  -1.499  0.00  0.00    -0.060 A 
ATOM     27  C   LIG    1       -3.504  -3.034  -2.047  0.00  0.00    +0.090 A 
ATOM     28 CL   LIG    1       -1.001  -3.974  -1.622  0.00  0.00    -0.050 Cl
ATOM     29  C   LIG    1       -4.506  -2.087  -1.950  0.00  0.00    -0.060 A 
ATOM     30 CL   LIG    1       -6.069  -2.402  -2.637  0.00  0.00    -0.030 Cl
ENDBRANCH  22  23
ENDBRANCH  21  22
ENDBRANCH  18  21
ENDBRANCH   1  19
TORSDOF 5
