REMARK  Name = ZINCqH0000008AIK.0
REMARK                            x       y       z     vdW  Elec       q    Type
REMARK                         _______ _______ _______ _____ _____    ______ ____
ROOT
ATOM      1  C   LIG    1        4.582  -2.280  -0.854  0.00  0.00    -0.150 A 
ATOM      2  C   LIG    1        3.468  -3.054  -1.183  0.00  0.00    +0.130 A 
ATOM      3  C   LIG    1        2.351  -3.030  -0.374  0.00  0.00    +0.020 A 
ATOM      4  C   LIG    1        2.334  -2.239   0.763  0.00  0.00    +0.070 A 
ATOM      5  C   LIG    1        3.437  -1.469   1.095  0.00  0.00    -0.680 A 
ATOM      6 CL   LIG    1        0.925  -2.213   1.776  0.00  0.00    -0.030 Cl
ATOM      7  C   LIG    1        4.556  -1.480   0.290  0.00  0.00    +0.200 A 
ENDROOT
BRANCH   1  14
ATOM      8  C   LIG    1        9.329  -4.670  -3.961  0.00  0.00    +0.030 C 
ATOM      9  C   LIG    1        8.222  -4.557  -2.910  0.00  0.00    -0.030 C 
ATOM     10  C   LIG    1        7.463  -5.883  -2.823  0.00  0.00    +0.020 C 
ATOM     11  C   LIG    1        6.377  -5.782  -1.750  0.00  0.00    +0.010 C 
ATOM     12  C   LIG    1        5.387  -4.682  -2.132  0.00  0.00    +0.270 C 
ATOM     13  N   LIG    1        6.126  -3.433  -2.364  0.00  0.00    -0.610 N 
ATOM     14  C   LIG    1        5.782  -2.302  -1.717  0.00  0.00    +0.560 C 
ATOM     15  O   LIG    1        6.458  -1.300  -1.843  0.00  0.00    -0.520 OA
ATOM     16  C   LIG    1        7.250  -3.442  -3.310  0.00  0.00    +0.290 C 
ENDBRANCH   1  14
BRANCH   5  17
ATOM     17  S   LIG    1        3.405  -0.466   2.543  0.00  0.00    +2.690 S 
ATOM     18  O   LIG    1        2.943  -1.299   3.598  0.00  0.00    -0.940 OA
ATOM     19  O   LIG    1        4.649   0.220   2.583  0.00  0.00    -0.940 OA
BRANCH  17  20
ATOM     20  N   LIG    1        2.240   0.689   2.315  0.00  0.00    -0.980 NA
ATOM     21  C   LIG    1        0.845   0.477   2.827  0.00  0.00    +0.300 C 
ATOM     22  C   LIG    1        0.643   1.394   3.948  0.00  0.00    -0.010 C 
ATOM     23  C   LIG    1        0.835   2.866   3.596  0.00  0.00    +0.020 C 
ATOM     24  C   LIG    1        2.292   3.145   3.827  0.00  0.00    +0.000 C 
ATOM     25  C   LIG    1        3.083   3.069   2.498  0.00  0.00    +0.010 C 
ATOM     26  C   LIG    1        2.549   1.908   1.624  0.00  0.00    +0.270 C 
ENDBRANCH  17  20
ENDBRANCH   5  17
TORSDOF 3
