REMARK  Name = ZINCtV00000L6kfa.0
REMARK                            x       y       z     vdW  Elec       q    Type
REMARK                         _______ _______ _______ _____ _____    ______ ____
ROOT
ATOM      1  C   LIG    1        2.374   1.128  -0.008  0.00  0.00    +0.250 C 
ENDROOT
BRANCH   1   2
ATOM      2  C   LIG    1        2.816   0.864   1.408  0.00  0.00    -0.120 A 
ATOM      3  C   LIG    1        2.609   1.818   2.386  0.00  0.00    +0.040 A 
ATOM      4  C   LIG    1        3.011   1.574   3.686  0.00  0.00    +0.010 A 
ATOM      5  C   LIG    1        3.627   0.378   4.006  0.00  0.00    +0.030 A 
ATOM      6  C   LIG    1        3.838  -0.574   3.027  0.00  0.00    +0.010 A 
ATOM      7  C   LIG    1        3.433  -0.332   1.728  0.00  0.00    +0.030 A 
ENDBRANCH   1   2
BRANCH   1  10
ATOM      8  N   LIG    1        4.648   1.338  -0.958  0.00  0.00    -0.660 N 
ATOM      9  H   LIG    1        4.848   0.461  -0.596  0.00  0.00    +0.410 HD
ATOM     10  C   LIG    1        3.445   1.902  -0.733  0.00  0.00    +0.530 C 
ATOM     11  O   LIG    1        3.224   3.032  -1.113  0.00  0.00    -0.490 OA
BRANCH   8  16
ATOM     12  C   LIG    1        8.546   4.099  -4.019  0.00  0.00    +0.100 C 
ATOM     13  C   LIG    1        7.511   3.366  -3.206  0.00  0.00    -0.090 A 
ATOM     14  C   LIG    1        6.658   4.071  -2.377  0.00  0.00    +0.050 A 
ATOM     15  C   LIG    1        5.708   3.401  -1.631  0.00  0.00    +0.040 A 
ATOM     16  C   LIG    1        5.609   2.019  -1.713  0.00  0.00    +0.150 A 
ATOM     17  C   LIG    1        6.470   1.312  -2.543  0.00  0.00    +0.010 A 
ATOM     18  C   LIG    1        7.415   1.988  -3.292  0.00  0.00    -0.020 A 
ATOM     19 CL   LIG    1        8.487   1.106  -4.335  0.00  0.00    -0.060 Cl
ENDBRANCH   8  16
ENDBRANCH   1  10
BRANCH   1  20
ATOM     20  O   LIG    1        1.144   1.900   0.005  0.00  0.00    -0.320 OA
BRANCH  20  21
ATOM     21  C   LIG    1       -0.012   1.208   0.019  0.00  0.00    +0.510 C 
ATOM     22  O   LIG    1        0.007  -0.006   0.021  0.00  0.00    -0.470 OA
BRANCH  21  23
ATOM     23  C   LIG    1       -1.302   1.927   0.027  0.00  0.00    -0.110 A 
ATOM     24  C   LIG    1       -1.327   3.323   0.031  0.00  0.00    +0.120 A 
ATOM     25  C   LIG    1       -2.537   3.988   0.033  0.00  0.00    -0.050 A 
ATOM     26  C   LIG    1       -3.724   3.274   0.043  0.00  0.00    +0.090 A 
ATOM     27  C   LIG    1       -3.706   1.891   0.044  0.00  0.00    +0.050 A 
ATOM     28 CL   LIG    1       -2.571   5.723   0.032  0.00  0.00    -0.040 Cl
ATOM     29  C   LIG    1       -2.503   1.212   0.036  0.00  0.00    +0.020 A 
ATOM     30 CL   LIG    1       -2.484  -0.524   0.039  0.00  0.00    -0.020 Cl
ENDBRANCH  21  23
ENDBRANCH  20  21
ENDBRANCH   1  20
TORSDOF 6
