REMARK  Name = ZINCnE000001Da70.0
REMARK                            x       y       z     vdW  Elec       q    Type
REMARK                         _______ _______ _______ _____ _____    ______ ____
ROOT
ATOM      1  C   LIG    1        5.921   1.501  -1.032  0.00  0.00    +0.230 A 
ATOM      2  C   LIG    1        6.837   2.284  -1.720  0.00  0.00    +0.000 A 
ATOM      3  C   LIG    1        6.410   3.126  -2.728  0.00  0.00    +0.070 A 
ATOM      4  C   LIG    1        5.067   3.192  -3.066  0.00  0.00    -0.030 A 
ATOM      5  C   LIG    1        4.143   2.419  -2.400  0.00  0.00    +0.080 A 
ATOM      6  C   LIG    1        4.559   1.561  -1.376  0.00  0.00    -0.210 A 
ENDROOT
BRANCH   1   8
ATOM      7  C   LIG    1        7.370   1.028   0.785  0.00  0.00    +0.510 C 
ATOM      8  N   LIG    1        6.349   0.657  -0.012  0.00  0.00    -0.670 N 
ATOM      9  H   LIG    1        5.912  -0.198   0.126  0.00  0.00    +0.420 HD
ATOM     10  O   LIG    1        7.854   2.135   0.677  0.00  0.00    -0.510 OA
BRANCH   7  11
ATOM     11  C   LIG    1        7.912   0.067   1.812  0.00  0.00    +0.080 C 
BRANCH  11  13
ATOM     12  C   LIG    1       10.171   1.112   1.599  0.00  0.00    +0.020 C 
ATOM     13  C   LIG    1        9.058   0.731   2.578  0.00  0.00    -0.120 C 
ATOM     14  C   LIG    1        8.542   1.989   3.279  0.00  0.00    +0.010 C 
BRANCH  13  15
ATOM     15  C   LIG    1        9.600  -0.231   3.604  0.00  0.00    +0.500 C 
ATOM     16  O   LIG    1       10.524   0.105   4.325  0.00  0.00    -0.690 OA
ATOM     17  O   LIG    1        9.114  -1.343   3.714  0.00  0.00    -0.700 OA
ENDBRANCH  13  15
ENDBRANCH  11  13
ENDBRANCH   7  11
ENDBRANCH   1   8
BRANCH   6  18
ATOM     18  C   LIG    1        3.580   0.733  -0.661  0.00  0.00    +0.410 C 
ATOM     19  O   LIG    1        3.954  -0.074   0.163  0.00  0.00    -0.460 OA
BRANCH  18  20
ATOM     20  C   LIG    1        2.109   0.886  -0.952  0.00  0.00    -0.040 C 
ATOM     21  C   LIG    1        1.479   1.949  -0.018  0.00  0.00    +0.030 C 
ATOM     22  C   LIG    1       -0.018   1.551  -0.007  0.00  0.00    +0.020 C 
ATOM     23  C   LIG    1        0.001   0.008  -0.010  0.00  0.00    +0.010 C 
ATOM     24  C   LIG    1        1.353  -0.414  -0.610  0.00  0.00    +0.030 C 
ENDBRANCH  18  20
ENDBRANCH   6  18
TORSDOF 6
