REMARK  Name = ZINC670000001I5j.0
REMARK                            x       y       z     vdW  Elec       q    Type
REMARK                         _______ _______ _______ _____ _____    ______ ____
ROOT
ATOM      1  C   LIG    1       -0.749   3.086   1.275  0.00  0.00    +0.520 C 
ATOM      2  O   LIG    1       -0.241   3.704   0.364  0.00  0.00    -0.540 OA
ATOM      3  N   LIG    1       -1.332   3.747   2.295  0.00  0.00    -0.860 N 
ATOM      4  H   LIG    1       -1.345   4.716   2.300  0.00  0.00    +0.400 HD
ATOM      5  H   LIG    1       -1.739   3.252   3.024  0.00  0.00    +0.400 HD
ENDROOT
BRANCH   1   7
ATOM      6  C   LIG    1       -0.013   1.086   0.008  0.00  0.00    +0.040 C 
ATOM      7  C   LIG    1       -0.729   1.579   1.267  0.00  0.00    -0.020 C 
ATOM      8  C   LIG    1        0.011   1.072   2.506  0.00  0.00    +0.040 C 
ENDBRANCH   1   7
TORSDOF 1
