REMARK  Name = ZINCtV00000L6kzf.0
REMARK                            x       y       z     vdW  Elec       q    Type
REMARK                         _______ _______ _______ _____ _____    ______ ____
ROOT
ATOM      1  C   LIG    1       -3.472   4.169  -0.579  0.00  0.00    +0.130 C 
ATOM      2  C   LIG    1       -3.632   2.673  -0.497  0.00  0.00    -0.020 A 
ATOM      3  C   LIG    1       -2.584   1.844  -0.479  0.00  0.00    -0.110 A 
ATOM      4  S   LIG    1       -3.114   0.174  -0.387  0.00  0.00    +0.200 S 
ATOM      5  C   LIG    1       -4.807   0.659  -0.365  0.00  0.00    +0.070 A 
ATOM      6  N   LIG    1       -5.913  -0.081  -0.302  0.00  0.00    -0.420 NA
ATOM      7  C   LIG    1       -7.120   0.463  -0.302  0.00  0.00    +0.250 A 
ATOM      8  C   LIG    1       -7.278   1.853  -0.370  0.00  0.00    +0.050 A 
ATOM      9  C   LIG    1       -6.178   2.653  -0.437  0.00  0.00    -0.080 A 
ATOM     10  C   LIG    1       -4.892   2.056  -0.436  0.00  0.00    -0.090 A 
ENDROOT
BRANCH   3  11
ATOM     11  C   LIG    1       -1.177   2.274  -0.534  0.00  0.00    +0.240 A 
ATOM     12  N   LIG    1       -0.735   3.514  -0.608  0.00  0.00    -0.260 NA
ATOM     13  N   LIG    1        0.552   3.516  -0.631  0.00  0.00    -0.280 NA
ATOM     14  C   LIG    1        1.002   2.293  -0.569  0.00  0.00    +0.200 A 
ATOM     15  C   LIG    1        2.443   1.853  -0.545  0.00  0.00    +0.170 C 
ATOM     16  C   LIG    1        2.630   0.701  -1.537  0.00  0.00    +0.030 C 
ATOM     17  C   LIG    1        2.343  -0.626  -0.841  0.00  0.00    +0.020 C 
ATOM     18  C   LIG    1        1.248  -0.456   0.211  0.00  0.00    +0.030 C 
ATOM     19  C   LIG    1       -0.048   0.003  -0.463  0.00  0.00    +0.290 C 
ATOM     20  N   LIG    1       -0.076   1.464  -0.517  0.00  0.00    -0.470 N 
ENDBRANCH   3  11
BRANCH   7  21
ATOM     21  C   LIG    1       -8.311  -0.404  -0.230  0.00  0.00    -0.180 A 
ATOM     22  C   LIG    1       -8.291  -1.752  -0.166  0.00  0.00    +0.080 A 
ATOM     23  C   LIG    1       -9.534  -2.344  -0.101  0.00  0.00    +0.010 A 
ATOM     24  C   LIG    1      -10.568  -1.496  -0.122  0.00  0.00    -0.020 A 
ATOM     25  S   LIG    1       -9.978   0.158  -0.222  0.00  0.00    +0.150 S 
ENDBRANCH   7  21
BRANCH   9  26
ATOM     26  C   LIG    1       -6.325   4.151  -0.511  0.00  0.00    +0.510 C 
ATOM     27  F   LIG    1       -5.596   4.638  -1.602  0.00  0.00    -0.160 F 
ATOM     28  F   LIG    1       -5.839   4.726   0.668  0.00  0.00    -0.160 F 
ATOM     29  F   LIG    1       -7.676   4.480  -0.668  0.00  0.00    -0.170 F 
ENDBRANCH   9  26
TORSDOF 3
