REMARK  Name = ZINCrD000000gUq8.0
REMARK                            x       y       z     vdW  Elec       q    Type
REMARK                         _______ _______ _______ _____ _____    ______ ____
ROOT
ATOM      1  N   LIG    1       -2.821   1.033   4.304  0.00  0.00    -0.560 N 
ATOM      2  C   LIG    1       -3.115   2.288   3.598  0.00  0.00    +0.300 C 
ATOM      3  C   LIG    1       -3.908   1.960   2.326  0.00  0.00    +0.300 C 
ATOM      4  N   LIG    1       -3.212   0.887   1.603  0.00  0.00    -1.000 NA
ATOM      5  C   LIG    1       -2.922  -0.370   2.307  0.00  0.00    +0.300 C 
ATOM      6  C   LIG    1       -2.125  -0.041   3.581  0.00  0.00    +0.300 C 
ENDROOT
BRANCH   1  11
ATOM      7  C   LIG    1       -4.076  -0.339   9.787  0.00  0.00    +0.050 A 
ATOM      8  C   LIG    1       -3.462  -1.004   8.792  0.00  0.00    +0.190 A 
ATOM      9  N   LIG    1       -3.443  -0.171   7.684  0.00  0.00    -0.300 N 
ATOM     10  N   LIG    1       -3.002  -0.182   6.366  0.00  0.00    -0.340 NA
ATOM     11  C   LIG    1       -3.192   0.865   5.629  0.00  0.00    +0.360 A 
ATOM     12  S   LIG    1       -4.033   2.037   6.659  0.00  0.00    +0.130 S 
ATOM     13  C   LIG    1       -4.058   0.976   8.076  0.00  0.00    +0.120 A 
ATOM     14  N   LIG    1       -4.433   0.868   9.329  0.00  0.00    -0.420 NA
BRANCH   7  16
ATOM     15  C   LIG    1       -3.012  -0.844  11.970  0.00  0.00    +0.040 C 
ATOM     16  C   LIG    1       -4.322  -0.863  11.179  0.00  0.00    +0.020 C 
ATOM     17  C   LIG    1       -4.848  -2.298  11.098  0.00  0.00    +0.050 C 
ATOM     18  C   LIG    1       -5.355   0.020  11.881  0.00  0.00    +0.050 C 
ENDBRANCH   7  16
ENDBRANCH   1  11
BRANCH   4  19
ATOM     19  S   LIG    1       -2.768   1.088   0.020  0.00  0.00    +2.720 S 
ATOM     20  O   LIG    1       -2.650  -0.216  -0.532  0.00  0.00    -0.940 OA
ATOM     21  O   LIG    1       -3.629   2.083  -0.515  0.00  0.00    -0.940 OA
BRANCH  19  22
ATOM     22  C   LIG    1       -1.146   1.778   0.017  0.00  0.00    -0.800 A 
ATOM     23  C   LIG    1       -0.013   1.076   0.008  0.00  0.00    +0.180 A 
ATOM     24  C   LIG    1        1.145   1.836   0.001  0.00  0.00    +0.010 A 
ATOM     25  C   LIG    1        0.949   3.157   0.010  0.00  0.00    -0.110 A 
ATOM     26 CL   LIG    1        2.205   4.355   0.004  0.00  0.00    +0.010 Cl
ATOM     27  S   LIG    1       -0.777   3.497   0.028  0.00  0.00    +0.270 S 
ENDBRANCH  19  22
ENDBRANCH   4  19
TORSDOF 4
