REMARK  Name = ZINCrg00000fSAtc.0
REMARK                            x       y       z     vdW  Elec       q    Type
REMARK                         _______ _______ _______ _____ _____    ______ ____
ROOT
ATOM      1  C   LIG    1       -0.721  -7.332  -0.122  0.00  0.00    +0.200 A 
ATOM      2  C   LIG    1       -2.003  -6.802  -0.196  0.00  0.00    -0.020 A 
ATOM      3  C   LIG    1       -3.093  -7.645  -0.283  0.00  0.00    +0.150 A 
ATOM      4  C   LIG    1       -2.910  -9.016  -0.287  0.00  0.00    -0.690 A 
ATOM      5  C   LIG    1       -1.636  -9.547  -0.208  0.00  0.00    +0.140 A 
ATOM      6  C   LIG    1       -0.541  -8.709  -0.125  0.00  0.00    +0.010 A 
ENDROOT
BRANCH   1   9
ATOM      7  O   LIG    1        1.654  -7.900  -1.176  0.00  0.00    -0.480 OA
ATOM      8  C   LIG    1        1.544  -6.820  -0.636  0.00  0.00    +0.520 C 
ATOM      9  N   LIG    1        0.386  -6.480  -0.037  0.00  0.00    -0.670 N 
ATOM     10  H   LIG    1        0.319  -5.645   0.452  0.00  0.00    +0.420 HD
BRANCH   8  11
ATOM     11  C   LIG    1        2.704  -5.857  -0.634  0.00  0.00    +0.270 C 
BRANCH  11  12
ATOM     12  O   LIG    1        3.827  -6.451  -1.337  0.00  0.00    -0.320 OA
BRANCH  12  13
ATOM     13  C   LIG    1        4.953  -5.713  -1.426  0.00  0.00    +0.560 C 
ATOM     14  O   LIG    1        4.994  -4.604  -0.930  0.00  0.00    -0.480 OA
BRANCH  13  15
ATOM     15  C   LIG    1        6.126  -6.249  -2.120  0.00  0.00    -0.070 A 
ATOM     16  C   LIG    1        7.324  -5.611  -2.283  0.00  0.00    +0.070 A 
ATOM     17  C   LIG    1        8.152  -6.486  -3.001  0.00  0.00    -0.070 A 
ATOM     18  C   LIG    1        7.435  -7.606  -3.243  0.00  0.00    +0.240 A 
ATOM     19  O   LIG    1        6.215  -7.459  -2.711  0.00  0.00    -0.150 OA
ENDBRANCH  13  15
ENDBRANCH  12  13
ENDBRANCH  11  12
ENDBRANCH   8  11
ENDBRANCH   1   9
BRANCH   4  20
ATOM     20  S   LIG    1       -4.304 -10.088  -0.392  0.00  0.00    +2.690 S 
ATOM     21  O   LIG    1       -3.825 -11.318  -0.920  0.00  0.00    -0.950 OA
ATOM     22  O   LIG    1       -5.345  -9.335  -0.998  0.00  0.00    -0.950 OA
BRANCH  20  23
ATOM     23  N   LIG    1       -4.797 -10.405   1.157  0.00  0.00    -1.000 NA
ATOM     24  C   LIG    1       -4.260 -11.555   1.903  0.00  0.00    +0.280 C 
ATOM     25  C   LIG    1       -3.777 -11.053   3.273  0.00  0.00    +0.220 C 
ATOM     26  O   LIG    1       -4.832 -10.325   3.904  0.00  0.00    -0.380 OA
ATOM     27  C   LIG    1       -5.236  -9.149   3.198  0.00  0.00    +0.220 C 
ATOM     28  C   LIG    1       -5.790  -9.550   1.826  0.00  0.00    +0.280 C 
ENDBRANCH  20  23
ENDBRANCH   4  20
TORSDOF 7
