REMARK  Name = ZINC650000002veO.0
REMARK                            x       y       z     vdW  Elec       q    Type
REMARK                         _______ _______ _______ _____ _____    ______ ____
ROOT
ATOM      1  C   LIG    1       -1.131   0.730  -2.115  0.00  0.00    +0.210 C 
ATOM      2  N   LIG    1       -0.914   1.667  -1.005  0.00  0.00    -0.460 NA
ATOM      3  C   LIG    1       -0.013   1.086   0.008  0.00  0.00    +0.190 C 
ATOM      4  C   LIG    1       -0.930   1.679   1.086  0.00  0.00    +0.170 C 
ATOM      5  C   LIG    1       -2.000   1.571  -0.012  0.00  0.00    +0.200 C 
ENDROOT
BRANCH   4   6
ATOM      6  N   LIG    1       -1.156   0.794   2.237  0.00  0.00    -0.630 N 
ATOM      7  H   LIG    1       -1.585  -0.064   1.923  0.00  0.00    +0.430 HD
ATOM      8  H   LIG    1       -1.766   1.252   2.898  0.00  0.00    +0.440 HD
ATOM      9  H   LIG    1       -0.274   0.587   2.680  0.00  0.00    +0.440 HD
ENDBRANCH   4   6
TORSDOF 1
