REMARK  Name = ZINCqH00000045VN.0
REMARK                            x       y       z     vdW  Elec       q    Type
REMARK                         _______ _______ _______ _____ _____    ______ ____
ROOT
ATOM      1  C   LIG    1       -0.018   1.503   0.010  0.00  0.00    +0.290 C 
ENDROOT
BRANCH   1   2
ATOM      2  N   LIG    1        1.266   2.184  -0.166  0.00  0.00    -0.590 N 
ATOM      3  C   LIG    1        1.389   3.139  -1.261  0.00  0.00    +0.250 C 
ATOM      4  C   LIG    1        2.573   4.078  -1.020  0.00  0.00    +0.030 C 
ATOM      5  C   LIG    1        3.812   3.230  -0.708  0.00  0.00    +0.030 C 
ATOM      6  C   LIG    1        3.602   2.546   0.645  0.00  0.00    +0.070 C 
ATOM      7  C   LIG    1        2.252   1.888   0.681  0.00  0.00    +0.530 C 
ATOM      8  O   LIG    1        2.048   1.043   1.527  0.00  0.00    -0.530 OA
ENDBRANCH   1   2
BRANCH   1   9
ATOM      9  C   LIG    1        0.197   0.011  -0.010  0.00  0.00    -0.090 A 
ATOM     10  C   LIG    1        0.784  -0.588  -1.109  0.00  0.00    +0.020 A 
ATOM     11  C   LIG    1        0.986  -1.955  -1.125  0.00  0.00    +0.000 A 
ATOM     12  C   LIG    1        0.592  -2.725  -0.047  0.00  0.00    +0.010 A 
ATOM     13  C   LIG    1        0.000  -2.127   1.050  0.00  0.00    +0.000 A 
ATOM     14  C   LIG    1       -0.198  -0.758   1.068  0.00  0.00    +0.030 A 
ENDBRANCH   1   9
BRANCH   1  17
ATOM     15  N   LIG    1       -1.814   1.399   1.709  0.00  0.00    -0.730 N 
ATOM     16  H   LIG    1       -2.281   0.776   1.131  0.00  0.00    +0.400 HD
ATOM     17  C   LIG    1       -0.623   1.905   1.331  0.00  0.00    +0.520 C 
ATOM     18  O   LIG    1       -0.038   2.684   2.053  0.00  0.00    -0.500 OA
BRANCH  15  19
ATOM     19  C   LIG    1       -2.402   1.790   2.992  0.00  0.00    +0.350 C 
BRANCH  19  20
ATOM     20  C   LIG    1       -3.898   1.626   2.930  0.00  0.00    +0.040 A 
ATOM     21  N   LIG    1       -4.755   2.488   3.365  0.00  0.00    -0.460 NA
ATOM     22  C   LIG    1       -6.031   2.188   3.229  0.00  0.00    +0.070 A 
ATOM     23  C   LIG    1       -6.264   1.004   2.656  0.00  0.00    -0.080 A 
ATOM     24  C   LIG    1       -7.136   3.104   3.688  0.00  0.00    +0.160 C 
ATOM     25  S   LIG    1       -4.708   0.268   2.279  0.00  0.00    +0.130 S 
ENDBRANCH  19  20
BRANCH  19  27
ATOM     26  C   LIG    1       -0.336   1.162   4.250  0.00  0.00    +0.030 C 
ATOM     27  C   LIG    1       -1.837   0.903   4.103  0.00  0.00    +0.020 C 
ENDBRANCH  19  27
ENDBRANCH  15  19
ENDBRANCH   1  17
TORSDOF 6
