REMARK  Name = ZINCrH000004v5dT.0
REMARK                            x       y       z     vdW  Elec       q    Type
REMARK                         _______ _______ _______ _____ _____    ______ ____
ROOT
ATOM      1  C   LIG    1        4.876   0.726  -0.509  0.00  0.00    +0.020 C 
ATOM      2  C   LIG    1        3.942  -0.396   0.002  0.00  0.00    +0.100 C 
ATOM      3  C   LIG    1        2.580   0.258   0.074  0.00  0.00    +0.520 C 
ATOM      4  N   LIG    1        2.705   1.595   0.022  0.00  0.00    -0.550 N 
ATOM      5  O   LIG    1        1.527  -0.338   0.163  0.00  0.00    -0.500 OA
ATOM      6  C   LIG    1        4.114   1.995  -0.067  0.00  0.00    +0.320 C 
ENDROOT
BRANCH   4   7
ATOM      7  C   LIG    1        1.629   2.492   0.055  0.00  0.00    +0.170 A 
ATOM      8  C   LIG    1        0.327   2.015   0.018  0.00  0.00    +0.010 A 
ATOM      9  C   LIG    1       -0.735   2.899   0.048  0.00  0.00    +0.060 A 
ATOM     10  C   LIG    1       -0.502   4.265   0.117  0.00  0.00    +0.030 A 
ATOM     11  O   LIG    1       -1.561   5.121   0.141  0.00  0.00    -0.310 OA
ATOM     12  C   LIG    1       -1.298   6.456   0.587  0.00  0.00    +0.220 C 
ATOM     13  C   LIG    1       -0.029   6.956  -0.116  0.00  0.00    +0.220 C 
ATOM     14  O   LIG    1        1.050   6.081   0.232  0.00  0.00    -0.310 OA
ATOM     15  C   LIG    1        0.802   4.745   0.162  0.00  0.00    +0.080 A 
ATOM     16  C   LIG    1        1.866   3.858   0.124  0.00  0.00    -0.010 A 
ENDBRANCH   4   7
BRANCH   1  18
ATOM     17  O   LIG    1        4.551   1.562  -2.691  0.00  0.00    -0.500 OA
ATOM     18  C   LIG    1        5.013   0.673  -2.009  0.00  0.00    +0.520 C 
ATOM     19  N   LIG    1        5.650  -0.362  -2.591  0.00  0.00    -0.670 N 
ATOM     20  H   LIG    1        5.962  -1.105  -2.051  0.00  0.00    +0.420 HD
BRANCH  19  21
ATOM     21  C   LIG    1        5.862  -0.365  -3.975  0.00  0.00    +0.160 A 
ATOM     22  C   LIG    1        4.904   0.170  -4.825  0.00  0.00    +0.050 A 
ATOM     23  C   LIG    1        5.116   0.171  -6.190  0.00  0.00    +0.070 A 
ATOM     24  C   LIG    1        6.277  -0.370  -6.711  0.00  0.00    -0.040 A 
ATOM     25  C   LIG    1        7.233  -0.909  -5.866  0.00  0.00    -0.010 A 
ATOM     26 CL   LIG    1        8.690  -1.587  -6.523  0.00  0.00    -0.040 Cl
ATOM     27 CL   LIG    1        6.538  -0.373  -8.428  0.00  0.00    -0.040 Cl
ATOM     28  C   LIG    1        7.027  -0.908  -4.499  0.00  0.00    +0.030 A 
ENDBRANCH  19  21
ENDBRANCH   1  18
TORSDOF 3
