REMARK  Name = ZINCnE000001E83S.1
REMARK                            x       y       z     vdW  Elec       q    Type
REMARK                         _______ _______ _______ _____ _____    ______ ____
ROOT
ATOM      1  C   LIG    1       -2.553   3.879   0.046  0.00  0.00    +0.070 C 
ATOM      2  C   LIG    1       -3.574   3.081   0.857  0.00  0.00    +0.110 C 
ATOM      3  C   LIG    1       -3.570   1.643   0.414  0.00  0.00    +0.530 C 
ATOM      4  N   LIG    1       -2.427   1.044   0.032  0.00  0.00    -0.660 N 
ATOM      5  H   LIG    1       -2.439   0.113  -0.240  0.00  0.00    +0.410 HD
ATOM      6  C   LIG    1       -1.223   1.755   0.017  0.00  0.00    +0.210 A 
ATOM      7  C   LIG    1       -0.013   1.076   0.008  0.00  0.00    -0.050 A 
ATOM      8  C   LIG    1        1.175   1.785   0.000  0.00  0.00    +0.120 A 
ATOM      9  C   LIG    1        1.156   3.170   0.007  0.00  0.00    -0.050 A 
ATOM     10  C   LIG    1       -0.050   3.847   0.022  0.00  0.00    +0.090 A 
ATOM     11  F   LIG    1        2.355   1.127  -0.014  0.00  0.00    -0.140 F 
ATOM     12  O   LIG    1       -4.608   1.017   0.402  0.00  0.00    -0.530 OA
ATOM     13  C   LIG    1       -1.238   3.144   0.029  0.00  0.00    -0.090 A 
ENDROOT
BRANCH   1  15
ATOM     14  N   LIG    1       -4.220   4.679  -1.597  0.00  0.00    -0.660 NA
ATOM     15  C   LIG    1       -3.052   4.046  -1.366  0.00  0.00    +0.450 C 
ATOM     16  O   LIG    1       -2.404   3.610  -2.294  0.00  0.00    -0.600 OA
BRANCH  14  20
ATOM     17  C   LIG    1       -6.070   5.479  -4.519  0.00  0.00    +0.110 A 
ATOM     18  C   LIG    1       -5.162   4.908  -5.313  0.00  0.00    -0.230 A 
ATOM     19  S   LIG    1       -3.873   4.269  -4.297  0.00  0.00    +0.020 S 
ATOM     20  C   LIG    1       -4.681   4.832  -2.900  0.00  0.00    +0.350 A 
ATOM     21  N   LIG    1       -5.788   5.418  -3.231  0.00  0.00    -0.560 NA
BRANCH  17  23
ATOM     22  C   LIG    1       -7.009   7.578  -5.447  0.00  0.00    +0.030 C 
ATOM     23  C   LIG    1       -7.320   6.134  -5.049  0.00  0.00    +0.060 C 
ATOM     24  C   LIG    1       -7.819   5.364  -6.274  0.00  0.00    +0.010 C 
ENDBRANCH  17  23
ENDBRANCH  14  20
ENDBRANCH   1  15
TORSDOF 3
