REMARK  Name = ZINCkj00000dE4kS.0
REMARK                            x       y       z     vdW  Elec       q    Type
REMARK                         _______ _______ _______ _____ _____    ______ ____
ROOT
ATOM      1  C   LIG    1        2.818  -0.777  -4.990  0.00  0.00    +0.200 A 
ATOM      2  N   LIG    1        1.563  -1.109  -5.069  0.00  0.00    -0.360 NA
ATOM      3  O   LIG    1        1.022  -0.980  -3.991  0.00  0.00    +0.070 OA
ATOM      4  C   LIG    1        1.909  -0.538  -3.088  0.00  0.00    +0.320 A 
ATOM      5  N   LIG    1        3.060  -0.402  -3.724  0.00  0.00    -0.460 NA
ENDROOT
BRANCH   4   6
ATOM      6  N   LIG    1        1.668  -0.274  -1.762  0.00  0.00    -0.430 N 
ATOM      7  C   LIG    1        0.260  -0.540  -1.419  0.00  0.00    +0.270 C 
ATOM      8  C   LIG    1        0.002  -0.004   0.002  0.00  0.00    +0.230 C 
ATOM      9  C   LIG    1       -0.019   1.538   0.011  0.00  0.00    +0.100 C 
ATOM     10  C   LIG    1        1.519   1.414  -0.005  0.00  0.00    +0.230 C 
ATOM     11  N   LIG    1        1.286   0.147   0.735  0.00  0.00    -0.530 N 
ATOM     12  H   LIG    1        1.958  -0.573   0.514  0.00  0.00    +0.430 HD
ATOM     13  H   LIG    1        1.165   0.281   1.727  0.00  0.00    +0.450 HD
ATOM     14  C   LIG    1        2.029   1.115  -1.427  0.00  0.00    +0.290 C 
ENDBRANCH   4   6
BRANCH   1  15
ATOM     15  C   LIG    1        3.818  -0.804  -6.117  0.00  0.00    +0.230 C 
BRANCH  15  20
ATOM     16  F   LIG    1        3.815   4.167  -8.746  0.00  0.00    -0.130 F 
ATOM     17  C   LIG    1        3.816   2.973  -8.114  0.00  0.00    +0.110 A 
ATOM     18  C   LIG    1        4.668   2.755  -7.045  0.00  0.00    -0.010 A 
ATOM     19  C   LIG    1        4.667   1.533  -6.399  0.00  0.00    +0.070 A 
ATOM     20  C   LIG    1        3.817   0.528  -6.822  0.00  0.00    -0.110 A 
ATOM     21  C   LIG    1        2.970   0.743  -7.893  0.00  0.00    +0.070 A 
ATOM     22  C   LIG    1        2.965   1.966  -8.537  0.00  0.00    -0.010 A 
ENDBRANCH  15  20
ENDBRANCH   1  15
TORSDOF 3
