REMARK  Name = ZINCrH00000No4P7.0
REMARK                            x       y       z     vdW  Elec       q    Type
REMARK                         _______ _______ _______ _____ _____    ______ ____
ROOT
ATOM      1  N   LIG    1       -5.529   0.722  -1.083  0.00  0.00    -0.620 N 
ATOM      2  C   LIG    1       -4.961   0.389   0.105  0.00  0.00    +0.520 C 
ATOM      3  C   LIG    1       -4.215   1.706   0.169  0.00  0.00    +0.170 C 
ATOM      4  O   LIG    1       -5.026  -0.582   0.830  0.00  0.00    -0.480 OA
ATOM      5  C   LIG    1       -4.880   2.042  -1.176  0.00  0.00    +0.310 C 
ENDROOT
BRANCH   5   6
ATOM      6  C   LIG    1       -5.843   3.200  -1.103  0.00  0.00    -0.060 A 
ATOM      7  C   LIG    1       -7.125   3.003  -0.625  0.00  0.00    -0.010 A 
ATOM      8  C   LIG    1       -8.009   4.064  -0.552  0.00  0.00    +0.050 A 
ATOM      9  C   LIG    1       -7.616   5.321  -0.968  0.00  0.00    -0.070 A 
ATOM     10  C   LIG    1       -6.332   5.520  -1.454  0.00  0.00    +0.130 A 
ATOM     11  C   LIG    1       -5.445   4.455  -1.521  0.00  0.00    +0.010 A 
BRANCH  10  12
ATOM     12  O   LIG    1       -5.943   6.756  -1.865  0.00  0.00    -0.320 OA
ATOM     13  C   LIG    1       -6.909   7.805  -1.767  0.00  0.00    +0.250 C 
ENDBRANCH  10  12
ENDBRANCH   5   6
BRANCH   1  14
ATOM     14  C   LIG    1       -6.462   0.016  -1.964  0.00  0.00    +0.310 C 
BRANCH  14  15
ATOM     15  C   LIG    1       -5.675  -0.826  -2.970  0.00  0.00    +0.010 C 
BRANCH  15  16
ATOM     16  C   LIG    1       -6.649  -1.564  -3.891  0.00  0.00    +0.020 C 
BRANCH  16  17
ATOM     17  C   LIG    1       -5.862  -2.406  -4.897  0.00  0.00    +0.160 C 
BRANCH  17  19
ATOM     18  C   LIG    1       -6.136  -3.914  -6.739  0.00  0.00    +0.200 C 
ATOM     19  O   LIG    1       -6.772  -3.095  -5.757  0.00  0.00    -0.390 OA
ENDBRANCH  17  19
ENDBRANCH  16  17
ENDBRANCH  15  16
ENDBRANCH  14  15
ENDBRANCH   1  14
BRANCH   3  20
ATOM     20  O   LIG    1       -2.796   1.566   0.088  0.00  0.00    -0.280 OA
BRANCH  20  21
ATOM     21  C   LIG    1       -2.093   1.731   1.240  0.00  0.00    +0.120 A 
ATOM     22  C   LIG    1       -2.762   1.896   2.444  0.00  0.00    -0.070 A 
ATOM     23  C   LIG    1       -2.046   2.070   3.613  0.00  0.00    +0.040 A 
ATOM     24  C   LIG    1       -0.663   2.072   3.584  0.00  0.00    -0.020 A 
ATOM     25  C   LIG    1        0.006   1.901   2.385  0.00  0.00    +0.040 A 
ATOM     26  C   LIG    1       -0.706   1.728   1.214  0.00  0.00    -0.110 A 
ATOM     27  C   LIG    1        0.024   1.542  -0.091  0.00  0.00    +0.100 C 
ENDBRANCH  20  21
ENDBRANCH   3  20
TORSDOF 9
