REMARK  Name = ZINCpk00000kBxyr.0
REMARK                            x       y       z     vdW  Elec       q    Type
REMARK                         _______ _______ _______ _____ _____    ______ ____
ROOT
ATOM      1  C   LIG    1        1.153   3.176   0.008  0.00  0.00    -0.140 A 
ATOM      2  C   LIG    1        1.174   1.780   0.000  0.00  0.00    +0.060 A 
ATOM      3  C   LIG    1       -0.013   1.076   0.008  0.00  0.00    +0.010 A 
ATOM      4  C   LIG    1       -1.221   1.750   0.017  0.00  0.00    +0.060 A 
ATOM      5  C   LIG    1       -1.248   3.133   0.030  0.00  0.00    -0.120 A 
ATOM      6  C   LIG    1       -0.070   3.849   0.022  0.00  0.00    +0.100 A 
ENDROOT
BRANCH   1   9
ATOM      7  N   LIG    1        3.599   3.284  -0.016  0.00  0.00    -0.720 N 
ATOM      8  H   LIG    1        3.616   2.314  -0.021  0.00  0.00    +0.400 HD
ATOM      9  C   LIG    1        2.420   3.937  -0.001  0.00  0.00    +0.560 C 
ATOM     10  O   LIG    1        2.399   5.153   0.005  0.00  0.00    -0.530 OA
BRANCH   7  19
ATOM     11  C   LIG    1        5.973   1.811  -0.146  0.00  0.00    +0.030 C 
ATOM     12  C   LIG    1        5.977   3.173   0.551  0.00  0.00    +0.230 C 
ATOM     13  N   LIG    1        7.270   3.814   0.348  0.00  0.00    -0.710 N 
ATOM     14  H   LIG    1        8.014   3.522   0.898  0.00  0.00    +0.400 HD
ATOM     15  C   LIG    1        7.495   4.777  -0.547  0.00  0.00    +0.520 C 
ATOM     16  C   LIG    1        6.426   5.356  -1.428  0.00  0.00    +0.090 C 
ATOM     17  C   LIG    1        5.217   4.418  -1.465  0.00  0.00    +0.030 C 
ATOM     18  O   LIG    1        8.624   5.207  -0.655  0.00  0.00    -0.550 OA
ATOM     19  C   LIG    1        4.855   4.038  -0.024  0.00  0.00    +0.240 C 
ENDBRANCH   7  19
ENDBRANCH   1   9
BRANCH   5  20
ATOM     20  C   LIG    1       -2.569   3.859   0.046  0.00  0.00    +0.330 C 
BRANCH  20  21
ATOM     21  N   LIG    1       -3.010   4.101  -1.330  0.00  0.00    -0.710 N 
ATOM     22  H   LIG    1       -2.464   3.801  -2.074  0.00  0.00    +0.410 HD
BRANCH  21  23
ATOM     23  C   LIG    1       -4.206   4.758  -1.569  0.00  0.00    +0.440 A 
ATOM     24  C   LIG    1       -5.003   5.189  -0.506  0.00  0.00    -0.150 A 
ATOM     25  C   LIG    1       -6.184   5.843  -0.796  0.00  0.00    +0.350 A 
ATOM     26  N   LIG    1       -6.525   6.030  -2.063  0.00  0.00    -0.560 NA
ATOM     27  C   LIG    1       -5.753   5.607  -3.044  0.00  0.00    +0.540 A 
ATOM     28  N   LIG    1       -4.616   4.983  -2.813  0.00  0.00    -0.580 NA
ENDBRANCH  21  23
ENDBRANCH  20  21
ENDBRANCH   5  20
TORSDOF 5
