REMARK  Name = ZINCrg00001JduNf.0
REMARK                            x       y       z     vdW  Elec       q    Type
REMARK                         _______ _______ _______ _____ _____    ______ ____
ROOT
ATOM      1  N   LIG    1        3.506   2.208  -0.051  0.00  0.00    -0.480 N 
ENDROOT
BRANCH   1   2
ATOM      2  C   LIG    1        2.296   1.530  -0.070  0.00  0.00    +0.310 A 
ATOM      3  N   LIG    1        1.364   1.784   0.842  0.00  0.00    -0.520 NA
ATOM      4  C   LIG    1        0.213   1.142   0.826  0.00  0.00    +0.510 A 
ATOM      5  N   LIG    1       -0.062   0.230  -0.083  0.00  0.00    -0.490 NA
ATOM      6  C   LIG    1        0.816  -0.081  -1.027  0.00  0.00    +0.310 A 
ATOM      7  C   LIG    1        2.037   0.566  -1.051  0.00  0.00    +0.030 A 
ATOM      8  F   LIG    1        2.957   0.276  -1.997  0.00  0.00    -0.110 F 
ENDBRANCH   1   2
BRANCH   1   9
ATOM      9  C   LIG    1        3.300   3.655  -0.194  0.00  0.00    +0.230 C 
BRANCH   9  12
ATOM     10  N   LIG    1        3.008   5.264  -3.151  0.00  0.00    -1.040 NA
ATOM     11  C   LIG    1        2.411   5.443  -1.813  0.00  0.00    +0.310 C 
ATOM     12  C   LIG    1        2.736   3.956  -1.584  0.00  0.00    -0.020 C 
ATOM     13  C   LIG    1        3.816   4.125  -2.667  0.00  0.00    +0.320 C 
BRANCH  10  14
ATOM     14  S   LIG    1        2.839   6.030  -4.609  0.00  0.00    +2.620 S 
ATOM     15  O   LIG    1        1.531   6.584  -4.564  0.00  0.00    -0.950 OA
ATOM     16  O   LIG    1        3.182   5.038  -5.568  0.00  0.00    -0.950 OA
BRANCH  14  18
ATOM     17  C   LIG    1        4.031   8.133  -5.888  0.00  0.00    +0.070 C 
ATOM     18  C   LIG    1        4.088   7.344  -4.578  0.00  0.00    -0.370 C 
ENDBRANCH  14  18
ENDBRANCH  10  14
ENDBRANCH   9  12
ENDBRANCH   1   9
BRANCH   1  19
ATOM     19  C   LIG    1        4.261   1.901   1.171  0.00  0.00    +0.340 C 
BRANCH  19  20
ATOM     20  C   LIG    1        4.853   0.520   1.062  0.00  0.00    -0.040 A 
ATOM     21  C   LIG    1        6.082   0.199   0.590  0.00  0.00    +0.010 A 
ATOM     22  C   LIG    1        6.135  -1.209   0.705  0.00  0.00    +0.010 A 
ATOM     23  N   LIG    1        4.993  -1.580   1.209  0.00  0.00    -0.350 NA
ATOM     24  O   LIG    1        4.271  -0.633   1.418  0.00  0.00    +0.100 OA
BRANCH  22  25
ATOM     25  C   LIG    1        7.286  -2.103   0.322  0.00  0.00    +0.280 C 
BRANCH  25  26
ATOM     26  O   LIG    1        8.356  -1.309  -0.193  0.00  0.00    -0.380 OA
ATOM     27  C   LIG    1        9.503  -2.064  -0.588  0.00  0.00    +0.220 C 
ENDBRANCH  25  26
ENDBRANCH  22  25
ENDBRANCH  19  20
ENDBRANCH   1  19
TORSDOF 9
