REMARK  Name = ZINCpe000000WFYU.0
REMARK                            x       y       z     vdW  Elec       q    Type
REMARK                         _______ _______ _______ _____ _____    ______ ____
ROOT
ATOM      1  C   LIG    1        6.879   5.862  -0.378  0.00  0.00    +0.150 A 
ATOM      2  N   LIG    1        7.045   4.574  -0.437  0.00  0.00    -0.360 NA
ATOM      3  O   LIG    1        5.978   4.004  -0.357  0.00  0.00    +0.090 OA
ATOM      4  C   LIG    1        4.992   4.906  -0.236  0.00  0.00    +0.220 A 
ATOM      5  N   LIG    1        5.563   6.097  -0.254  0.00  0.00    -0.450 NA
ENDROOT
BRANCH   4   6
ATOM      6  C   LIG    1        3.546   4.622  -0.112  0.00  0.00    -0.010 A 
ATOM      7  C   LIG    1        2.634   5.671   0.007  0.00  0.00    +0.100 A 
ATOM      8  C   LIG    1        1.285   5.403   0.122  0.00  0.00    +0.070 A 
ATOM      9  C   LIG    1        0.833   4.097   0.120  0.00  0.00    +0.060 A 
ATOM     10  C   LIG    1        1.733   3.046   0.002  0.00  0.00    +0.130 A 
ATOM     11  C   LIG    1        3.090   3.304  -0.109  0.00  0.00    +0.080 A 
BRANCH  10  12
ATOM     12  N   LIG    1        1.268   1.722  -0.001  0.00  0.00    -0.330 N 
ATOM     13  C   LIG    1       -0.016   1.303   0.009  0.00  0.00    +0.470 A 
ATOM     14  N   LIG    1        0.002  -0.004   0.002  0.00  0.00    -0.320 NA
ATOM     15  N   LIG    1        1.210  -0.441  -0.012  0.00  0.00    -0.030 NA
ATOM     16  N   LIG    1        2.040   0.546  -0.015  0.00  0.00    -0.070 NA
ENDBRANCH  10  12
ENDBRANCH   4   6
BRANCH   1  21
ATOM     17  N   LIG    1        9.087   6.512   0.422  0.00  0.00    -1.000 NA
ATOM     18  C   LIG    1       10.290   6.339  -0.412  0.00  0.00    +0.270 C 
ATOM     19  C   LIG    1       10.033   7.213  -1.665  0.00  0.00    +0.040 C 
ATOM     20  C   LIG    1        8.511   7.003  -1.884  0.00  0.00    +0.060 C 
ATOM     21  C   LIG    1        7.966   6.904  -0.444  0.00  0.00    +0.360 C 
BRANCH  17  23
ATOM     22  C   LIG    1        8.583   4.548   2.272  0.00  0.00    -0.290 C 
ATOM     23  S   LIG    1        9.011   6.298   2.062  0.00  0.00    +2.620 S 
ATOM     24  O   LIG    1        7.934   7.128   2.474  0.00  0.00    -0.940 OA
ATOM     25  O   LIG    1       10.338   6.544   2.510  0.00  0.00    -0.940 OA
ENDBRANCH  17  23
ENDBRANCH   1  21
TORSDOF 4
