REMARK  Name = ZINCpk000005KPEX.0
REMARK                            x       y       z     vdW  Elec       q    Type
REMARK                         _______ _______ _______ _____ _____    ______ ____
ROOT
ATOM      1  N   LIG    1       -1.286   4.184  -0.872  0.00  0.00    -0.520 NA
ATOM      2  C   LIG    1       -2.136   5.246  -0.315  0.00  0.00    +0.150 C 
ATOM      3  C   LIG    1       -1.826   5.412   1.175  0.00  0.00    +0.220 C 
ATOM      4  O   LIG    1       -2.019   4.160   1.839  0.00  0.00    -0.380 OA
ATOM      5  C   LIG    1       -1.206   3.103   1.323  0.00  0.00    +0.160 C 
ATOM      6  C   LIG    1       -1.509   2.913  -0.166  0.00  0.00    +0.170 C 
ENDROOT
BRANCH   1   7
ATOM      7  C   LIG    1       -1.512   4.031  -2.315  0.00  0.00    +0.270 C 
BRANCH   7  15
ATOM      8  C   LIG    1       -3.929   5.584  -2.614  0.00  0.00    +0.080 C 
ATOM      9  C   LIG    1       -3.986   4.080  -2.690  0.00  0.00    -0.080 A 
ATOM     10  C   LIG    1       -5.195   3.444  -2.902  0.00  0.00    +0.040 A 
ATOM     11  C   LIG    1       -5.249   2.065  -2.971  0.00  0.00    -0.010 A 
ATOM     12  C   LIG    1       -4.091   1.320  -2.828  0.00  0.00    +0.090 A 
ATOM     13  C   LIG    1       -2.880   1.958  -2.621  0.00  0.00    +0.000 A 
ATOM     14  F   LIG    1       -4.142  -0.029  -2.896  0.00  0.00    -0.140 F 
ATOM     15  C   LIG    1       -2.829   3.337  -2.546  0.00  0.00    -0.100 A 
ENDBRANCH   7  15
ENDBRANCH   1   7
BRANCH   5  16
ATOM     16  C   LIG    1       -1.514   1.807   2.076  0.00  0.00    +0.300 C 
BRANCH  16  17
ATOM     17  N   LIG    1       -1.226   1.990   3.501  0.00  0.00    -0.710 N 
ATOM     18  H   LIG    1       -0.893   2.842   3.823  0.00  0.00    +0.410 HD
ATOM     19  C   LIG    1       -1.424   0.974   4.364  0.00  0.00    +0.610 C 
ATOM     20  O   LIG    1       -1.841  -0.095   3.960  0.00  0.00    -0.530 OA
BRANCH  19  21
ATOM     21  C   LIG    1       -1.133   1.158   5.800  0.00  0.00    -0.020 A 
ATOM     22  N   LIG    1       -0.674   2.252   6.373  0.00  0.00    -0.260 NA
ATOM     23  N   LIG    1       -0.540   2.065   7.637  0.00  0.00    -0.280 N 
ATOM     24  C   LIG    1       -0.904   0.806   7.964  0.00  0.00    +0.160 A 
ATOM     25  C   LIG    1       -0.055   3.070   8.586  0.00  0.00    +0.380 C 
ATOM     26  C   LIG    1       -1.290   0.191   6.822  0.00  0.00    -0.020 A 
ENDBRANCH  19  21
ENDBRANCH  16  17
ENDBRANCH   5  16
TORSDOF 5
