REMARK  Name = ZINCpe000000YBn6.0
REMARK                            x       y       z     vdW  Elec       q    Type
REMARK                         _______ _______ _______ _____ _____    ______ ____
ROOT
ATOM      1  C   LIG    1        0.002  -0.004   0.002  0.00  0.00    +0.210 C 
ATOM      2  C   LIG    1       -0.019   1.537   0.011  0.00  0.00    +0.130 C 
ATOM      3  C   LIG    1        1.443   1.922  -0.001  0.00  0.00    +0.020 C 
ATOM      4  N   LIG    1        2.171   0.852  -0.014  0.00  0.00    -0.170 NA
ATOM      5  N   LIG    1        1.436  -0.332  -0.013  0.00  0.00    -0.440 N 
ENDROOT
BRANCH   5   6
ATOM      6  C   LIG    1        1.974  -1.621  -0.025  0.00  0.00    +0.220 A 
ATOM      7  C   LIG    1        1.132  -2.727  -0.017  0.00  0.00    -0.050 A 
ATOM      8  C   LIG    1        1.668  -3.999  -0.034  0.00  0.00    +0.050 A 
ATOM      9  C   LIG    1        3.039  -4.174  -0.048  0.00  0.00    -0.030 A 
ATOM     10  C   LIG    1        3.880  -3.076  -0.050  0.00  0.00    +0.050 A 
ATOM     11  C   LIG    1        3.352  -1.800  -0.039  0.00  0.00    -0.020 A 
ENDBRANCH   5   6
BRANCH   1  15
ATOM     12  N   LIG    1       -2.025  -0.602  -1.283  0.00  0.00    -0.850 N 
ATOM     13  H   LIG    1       -2.464  -0.944  -2.078  0.00  0.00    +0.410 HD
ATOM     14  H   LIG    1       -2.554  -0.306  -0.526  0.00  0.00    +0.400 HD
ATOM     15  C   LIG    1       -0.680  -0.536  -1.232  0.00  0.00    +0.510 C 
ATOM     16  O   LIG    1       -0.018  -0.906  -2.179  0.00  0.00    -0.510 OA
ENDBRANCH   1  15
BRANCH   3  17
ATOM     17  C   LIG    1        1.956   3.292   0.001  0.00  0.00    +0.600 C 
ATOM     18  N   LIG    1        3.285   3.514  -0.011  0.00  0.00    -0.710 N 
ATOM     19  H   LIG    1        3.902   2.766  -0.020  0.00  0.00    +0.410 HD
ATOM     20  O   LIG    1        1.182   4.232   0.013  0.00  0.00    -0.520 OA
BRANCH  18  21
ATOM     21  C   LIG    1        3.799   4.886  -0.009  0.00  0.00    +0.290 C 
BRANCH  21  22
ATOM     22  C   LIG    1        5.329   4.859  -0.023  0.00  0.00    +0.100 C 
BRANCH  22  23
ATOM     23  C   LIG    1        5.857   6.270  -0.021  0.00  0.00    +0.130 A 
ATOM     24  C   LIG    1        6.746   6.665   0.960  0.00  0.00    -0.030 A 
ATOM     25  C   LIG    1        7.230   7.964   0.950  0.00  0.00    +0.070 A 
ATOM     26  C   LIG    1        6.791   8.824  -0.045  0.00  0.00    -0.030 A 
ATOM     27  C   LIG    1        5.896   8.360  -0.990  0.00  0.00    +0.260 A 
ATOM     28  N   LIG    1        5.460   7.115  -0.953  0.00  0.00    -0.480 NA
ENDBRANCH  22  23
ENDBRANCH  21  22
ENDBRANCH  18  21
ENDBRANCH   3  17
TORSDOF 6
