REMARK  Name = ZINCrg000000slQ8.0
REMARK                            x       y       z     vdW  Elec       q    Type
REMARK                         _______ _______ _______ _____ _____    ______ ____
ROOT
ATOM      1  N   LIG    1        1.177  -0.662  -0.013  0.00  0.00    -0.490 N 
ATOM      2  C   LIG    1        2.353   0.017  -0.020  0.00  0.00    +0.450 A 
ATOM      3  C   LIG    1        2.369   1.370  -0.013  0.00  0.00    -0.780 A 
ATOM      4  C   LIG    1        1.163   2.085   0.002  0.00  0.00    +0.170 A 
ATOM      5  C   LIG    1       -0.017   1.401   0.010  0.00  0.00    -0.070 A 
ATOM      6  C   LIG    1        0.002  -0.004   0.002  0.00  0.00    +0.530 A 
ATOM      7  O   LIG    1       -1.047  -0.628   0.009  0.00  0.00    -0.500 OA
ENDROOT
BRANCH   3   8
ATOM      8  S   LIG    1        3.905   2.233  -0.022  0.00  0.00    +2.730 S 
ATOM      9  O   LIG    1        4.922   1.243   0.048  0.00  0.00    -0.950 OA
ATOM     10  O   LIG    1        3.780   3.286   0.924  0.00  0.00    -0.940 OA
BRANCH   8  11
ATOM     11  N   LIG    1        4.055   2.953  -1.506  0.00  0.00    -1.010 NA
ATOM     12  C   LIG    1        4.684   2.351  -2.690  0.00  0.00    +0.260 C 
ATOM     13  C   LIG    1        4.614   3.393  -3.826  0.00  0.00    +0.030 C 
ATOM     14  C   LIG    1        4.465   4.733  -3.057  0.00  0.00    +0.040 C 
ATOM     15  C   LIG    1        3.585   4.306  -1.856  0.00  0.00    +0.270 C 
ENDBRANCH   8  11
ENDBRANCH   3   8
BRANCH   1  16
ATOM     16  C   LIG    1        1.187  -2.127  -0.021  0.00  0.00    +0.410 C 
BRANCH  16  23
ATOM     17  C   LIG    1        1.996  -4.648  -6.095  0.00  0.00    +0.170 C 
ATOM     18  C   LIG    1        0.934  -3.877  -5.354  0.00  0.00    +0.080 A 
ATOM     19  C   LIG    1       -0.195  -3.543  -5.955  0.00  0.00    +0.000 A 
ATOM     20  S   LIG    1       -1.136  -2.662  -4.739  0.00  0.00    +0.190 S 
ATOM     21  C   LIG    1        0.099  -2.816  -3.478  0.00  0.00    +0.320 A 
ATOM     22  N   LIG    1        0.127  -2.397  -2.227  0.00  0.00    -0.490 NA
ATOM     23  C   LIG    1        1.176  -2.622  -1.444  0.00  0.00    +0.180 A 
ATOM     24  C   LIG    1        2.253  -3.318  -1.949  0.00  0.00    -0.120 A 
ATOM     25  C   LIG    1        2.219  -3.766  -3.271  0.00  0.00    +0.530 A 
ATOM     26  O   LIG    1        3.165  -4.384  -3.733  0.00  0.00    -0.510 OA
ATOM     27  N   LIG    1        1.125  -3.510  -4.045  0.00  0.00    -0.460 N 
ENDBRANCH  16  23
ENDBRANCH   1  16
TORSDOF 4
