REMARK  Name = ZINCqH0000051DVY.0
REMARK                            x       y       z     vdW  Elec       q    Type
REMARK                         _______ _______ _______ _____ _____    ______ ____
ROOT
ATOM      1  C   LIG    1        2.648   7.686  -0.085  0.00  0.00    +0.070 A 
ATOM      2  N   LIG    1        3.590   8.624  -0.073  0.00  0.00    -0.400 NA
ATOM      3  C   LIG    1        4.860   8.282   0.014  0.00  0.00    +0.250 A 
ATOM      4  C   LIG    1        5.223   6.944   0.094  0.00  0.00    +0.270 A 
ATOM      5  N   LIG    1        4.300   6.001   0.088  0.00  0.00    -0.420 NA
ATOM      6  C   LIG    1        3.014   6.331  -0.005  0.00  0.00    +0.190 A 
ENDROOT
BRANCH   1   8
ATOM      7  O   LIG    1        0.358   7.215  -0.089  0.00  0.00    -0.500 OA
ATOM      8  C   LIG    1        1.221   8.066  -0.182  0.00  0.00    +0.580 C 
ATOM      9  N   LIG    1        0.878   9.355  -0.374  0.00  0.00    -0.600 N 
ATOM     10  C   LIG    1        1.820  10.491  -0.499  0.00  0.00    +0.290 C 
ATOM     11  C   LIG    1        0.963  11.724  -0.774  0.00  0.00    -0.020 C 
ATOM     12  C   LIG    1        1.424  13.025  -0.140  0.00  0.00    +0.090 C 
ATOM     13  C   LIG    1        0.286  14.014  -0.254  0.00  0.00    -0.050 C 
ATOM     14  C   LIG    1       -0.948  13.686  -0.486  0.00  0.00    -0.040 C 
ATOM     15  C   LIG    1       -1.431  12.280  -0.641  0.00  0.00    +0.080 C 
ATOM     16  C   LIG    1       -0.377  11.346  -0.070  0.00  0.00    -0.020 C 
ATOM     17  C   LIG    1       -0.506   9.877  -0.490  0.00  0.00    +0.270 C 
ENDBRANCH   1   8
BRANCH   6  18
ATOM     18  C   LIG    1        1.977   5.278  -0.017  0.00  0.00    +0.160 A 
ATOM     19  N   LIG    1        1.119   5.099  -0.965  0.00  0.00    -0.410 NA
ATOM     20  C   LIG    1        0.238   4.102  -0.836  0.00  0.00    +0.090 A 
ATOM     21  C   LIG    1       -0.787   3.707  -1.726  0.00  0.00    +0.070 A 
ATOM     22  C   LIG    1       -1.597   2.656  -1.424  0.00  0.00    +0.030 A 
ATOM     23  C   LIG    1       -1.438   1.953  -0.237  0.00  0.00    +0.040 A 
ATOM     24  C   LIG    1       -0.446   2.311   0.647  0.00  0.00    +0.050 A 
ATOM     25  C   LIG    1        0.395   3.384   0.357  0.00  0.00    -0.170 A 
ATOM     26  S   LIG    1        1.734   4.091   1.257  0.00  0.00    +0.100 S 
ENDBRANCH   6  18
TORSDOF 2
