REMARK  Name = ZINCqH0000008w7i.0
REMARK                            x       y       z     vdW  Elec       q    Type
REMARK                         _______ _______ _______ _____ _____    ______ ____
ROOT
ATOM      1  C   LIG    1        1.648   2.464   1.435  0.00  0.00    +0.090 C 
ATOM      2  C   LIG    1        1.313   1.903   0.051  0.00  0.00    -0.010 C 
ENDROOT
BRANCH   2   3
ATOM      3  C   LIG    1        0.059   1.072   0.136  0.00  0.00    +0.450 C 
ATOM      4  O   LIG    1        0.137  -0.130   0.285  0.00  0.00    -0.450 OA
BRANCH   3   5
ATOM      5  C   LIG    1       -1.211   1.693   0.036  0.00  0.00    -0.270 A 
ATOM      6  C   LIG    1       -1.464   3.037  -0.134  0.00  0.00    +0.340 A 
ATOM      7  N   LIG    1       -2.794   3.244  -0.184  0.00  0.00    -0.560 N 
ATOM      8  H   LIG    1       -3.213   4.112  -0.298  0.00  0.00    +0.420 HD
ATOM      9  C   LIG    1       -3.479   2.054  -0.050  0.00  0.00    +0.070 A 
ATOM     10  C   LIG    1       -4.832   1.733  -0.035  0.00  0.00    +0.000 A 
ATOM     11  C   LIG    1       -5.227   0.422   0.119  0.00  0.00    +0.030 A 
ATOM     12  C   LIG    1       -4.287  -0.587   0.260  0.00  0.00    +0.000 A 
ATOM     13  C   LIG    1       -2.941  -0.290   0.248  0.00  0.00    +0.060 A 
ATOM     14  C   LIG    1       -2.529   1.029   0.087  0.00  0.00    -0.050 A 
ENDBRANCH   3   5
ENDBRANCH   2   3
BRANCH   2  15
ATOM     15  S   LIG    1        2.683   0.872  -0.530  0.00  0.00    +0.060 S 
BRANCH  15  16
ATOM     16  C   LIG    1        3.944   2.094  -0.678  0.00  0.00    +0.160 A 
ATOM     17  N   LIG    1        3.823   3.376  -0.414  0.00  0.00    -0.290 NA
ATOM     18  N   LIG    1        4.937   3.978  -0.630  0.00  0.00    -0.260 NA
ATOM     19  C   LIG    1        5.838   3.118  -1.045  0.00  0.00    +0.230 A 
ATOM     20  N   LIG    1        5.231   1.884  -1.083  0.00  0.00    -0.460 N 
ATOM     21  C   LIG    1        5.838   0.611  -1.479  0.00  0.00    +0.350 C 
BRANCH  19  22
ATOM     22  C   LIG    1        7.242   3.418  -1.399  0.00  0.00    -0.070 A 
ATOM     23  C   LIG    1        7.991   2.517  -2.165  0.00  0.00    +0.070 A 
ATOM     24  C   LIG    1        9.300   2.846  -2.470  0.00  0.00    -0.030 A 
ATOM     25  C   LIG    1        9.822   4.042  -2.012  0.00  0.00    +0.270 A 
ATOM     26  N   LIG    1        9.092   4.872  -1.292  0.00  0.00    -0.480 NA
ATOM     27  C   LIG    1        7.841   4.607  -0.981  0.00  0.00    +0.320 A 
ENDBRANCH  19  22
ENDBRANCH  15  16
ENDBRANCH   2  15
TORSDOF 5
