REMARK  Name = ZINCrD00000bGMO5.0
REMARK                            x       y       z     vdW  Elec       q    Type
REMARK                         _______ _______ _______ _____ _____    ______ ____
ROOT
ATOM      1  C   LIG    1       -6.694   5.597   0.519  0.00  0.00    +0.230 C 
ATOM      2  C   LIG    1       -6.063   6.715  -0.316  0.00  0.00    +0.040 C 
ATOM      3  C   LIG    1       -4.587   6.864   0.073  0.00  0.00    +0.170 C 
ATOM      4  C   LIG    1       -3.955   5.491   0.064  0.00  0.00    +0.210 A 
ATOM      5  N   LIG    1       -2.685   5.211   0.057  0.00  0.00    -0.470 NA
ATOM      6  C   LIG    1       -2.528   3.870   0.044  0.00  0.00    +0.040 A 
ATOM      7  C   LIG    1       -3.766   3.307   0.053  0.00  0.00    +0.150 A 
ATOM      8  N   LIG    1       -4.660   4.333   0.066  0.00  0.00    -0.450 N 
ATOM      9  C   LIG    1       -6.122   4.245   0.080  0.00  0.00    +0.280 C 
ENDROOT
BRANCH   6  10
ATOM     10  C   LIG    1       -1.235   3.142   0.029  0.00  0.00    -0.000 A 
ATOM     11  C   LIG    1       -1.218   1.748   0.017  0.00  0.00    +0.010 A 
ATOM     12  C   LIG    1       -0.013   1.076   0.008  0.00  0.00    +0.000 A 
ATOM     13  C   LIG    1        1.177   1.782   0.000  0.00  0.00    +0.000 A 
ATOM     14  C   LIG    1        1.165   3.166   0.007  0.00  0.00    +0.000 A 
ATOM     15  C   LIG    1       -0.034   3.848   0.022  0.00  0.00    +0.030 A 
ENDBRANCH   6  10
BRANCH   1  17
ATOM     16  C   LIG    1       -8.957   5.094   1.272  0.00  0.00    +0.520 C 
ATOM     17  N   LIG    1       -8.146   5.600   0.321  0.00  0.00    -0.730 N 
ATOM     18  H   LIG    1       -8.524   5.966  -0.494  0.00  0.00    +0.410 HD
ATOM     19  O   LIG    1       -8.485   4.636   2.291  0.00  0.00    -0.530 OA
BRANCH  16  20
ATOM     20  C   LIG    1      -10.450   5.098   1.068  0.00  0.00    +0.050 C 
BRANCH  20  21
ATOM     21  C   LIG    1      -11.132   4.472   2.286  0.00  0.00    +0.130 C 
BRANCH  21  22
ATOM     22  C   LIG    1      -12.648   4.475   2.079  0.00  0.00    +0.030 C 
ATOM     23  N   LIG    1      -13.169   4.534   0.711  0.00  0.00    -0.120 NA
ATOM     24  N   LIG    1      -13.254   5.593   1.351  0.00  0.00    -0.120 NA
BRANCH  22  25
ATOM     25  C   LIG    1      -13.478   3.763   3.149  0.00  0.00    +0.120 C 
BRANCH  25  26
ATOM     26  C   LIG    1      -14.963   3.860   2.792  0.00  0.00    +0.160 C 
BRANCH  26  28
ATOM     27  C   LIG    1      -16.398   2.628   4.643  0.00  0.00    +0.030 C 
ATOM     28  C   LIG    1      -15.761   3.175   3.822  0.00  0.00    -0.200 C 
ENDBRANCH  26  28
ENDBRANCH  25  26
ENDBRANCH  22  25
ENDBRANCH  21  22
ENDBRANCH  20  21
ENDBRANCH  16  20
ENDBRANCH   1  17
TORSDOF 8
