REMARK  Name = ZINCvU0000000HfA.0
REMARK                            x       y       z     vdW  Elec       q    Type
REMARK                         _______ _______ _______ _____ _____    ______ ____
ROOT
ATOM      1  C   LIG    1        4.280   5.939  -0.008  0.00  0.00    +0.240 C 
ENDROOT
BRANCH   1   2
ATOM      2  C   LIG    1        5.550   6.785   0.110  0.00  0.00    -0.010 C 
ATOM      3  C   LIG    1        6.279   6.433   1.408  0.00  0.00    +0.010 C 
ATOM      4  C   LIG    1        7.548   7.278   1.526  0.00  0.00    +0.000 C 
ATOM      5  C   LIG    1        7.174   8.762   1.537  0.00  0.00    +0.000 C 
ATOM      6  C   LIG    1        6.445   9.114   0.239  0.00  0.00    +0.000 C 
ATOM      7  C   LIG    1        5.175   8.268   0.121  0.00  0.00    +0.030 C 
ENDBRANCH   1   2
BRANCH   1  10
ATOM      8  O   LIG    1        2.517   7.977   0.114  0.00  0.00    -0.520 OA
ATOM      9  C   LIG    1        2.555   7.259   1.096  0.00  0.00    +0.600 C 
ATOM     10  N   LIG    1        3.404   6.213   1.134  0.00  0.00    -0.720 N 
ATOM     11  H   LIG    1        3.434   5.641   1.917  0.00  0.00    +0.400 HD
BRANCH   9  12
ATOM     12  C   LIG    1        1.678   7.533   2.239  0.00  0.00    -0.270 A 
ATOM     13  C   LIG    1        0.783   8.562   2.322  0.00  0.00    +0.110 A 
ATOM     14  C   LIG    1        0.086   8.581   3.507  0.00  0.00    +0.000 A 
ATOM     15  C   LIG    1        0.405   7.609   4.369  0.00  0.00    -0.180 A 
ATOM     16  S   LIG    1        1.615   6.594   3.724  0.00  0.00    +0.200 S 
BRANCH  15  17
ATOM     17  C   LIG    1       -0.221   7.434   5.729  0.00  0.00    +0.150 C 
BRANCH  17  18
ATOM     18  C   LIG    1       -1.450   6.529   5.612  0.00  0.00    -0.040 C 
ATOM     19  C   LIG    1       -2.811   7.139   5.955  0.00  0.00    +0.020 C 
ATOM     20  C   LIG    1       -2.161   6.133   6.907  0.00  0.00    +0.020 C 
ENDBRANCH  17  18
ENDBRANCH  15  17
ENDBRANCH   9  12
ENDBRANCH   1  10
BRANCH   1  21
ATOM     21  C   LIG    1        4.655   4.456  -0.020  0.00  0.00    +0.280 C 
BRANCH  21  22
ATOM     22  N   LIG    1        3.435   3.644  -0.012  0.00  0.00    -0.710 N 
ATOM     23  H   LIG    1        2.566   4.075  -0.001  0.00  0.00    +0.410 HD
ATOM     24  C   LIG    1        3.521   2.299  -0.020  0.00  0.00    +0.570 C 
ATOM     25  O   LIG    1        4.610   1.760  -0.034  0.00  0.00    -0.500 OA
BRANCH  24  26
ATOM     26  C   LIG    1        2.288   1.479  -0.012  0.00  0.00    +0.090 A 
ATOM     27  N   LIG    1        1.102   2.074   0.003  0.00  0.00    -0.430 NA
ATOM     28  C   LIG    1       -0.017   1.383   0.010  0.00  0.00    +0.300 A 
ATOM     29  C   LIG    1        0.002  -0.004   0.002  0.00  0.00    -0.060 A 
ATOM     30  C   LIG    1        1.220  -0.667  -0.013  0.00  0.00    +0.100 A 
ATOM     31 CL   LIG    1       -1.484  -0.901   0.011  0.00  0.00    -0.030 Cl
ATOM     32  C   LIG    1        2.384   0.087  -0.020  0.00  0.00    -0.030 A 
ATOM     33 CL   LIG    1        3.937  -0.689  -0.040  0.00  0.00    +0.000 Cl
ENDBRANCH  24  26
ENDBRANCH  21  22
ENDBRANCH   1  21
TORSDOF 8
