REMARK  Name = ZINCnE000001OR9y.0
REMARK                            x       y       z     vdW  Elec       q    Type
REMARK                         _______ _______ _______ _____ _____    ______ ____
ROOT
ATOM      1  S   LIG    1        0.849   2.991   0.323  0.00  0.00    +2.700 S 
ATOM      2  O   LIG    1        0.980   2.130   1.446  0.00  0.00    -0.970 OA
ATOM      3  O   LIG    1        1.619   4.173   0.156  0.00  0.00    -0.960 OA
ENDROOT
BRANCH   1   8
ATOM      4  C   LIG    1        1.868  -0.408  -4.557  0.00  0.00    +0.080 C 
ATOM      5  C   LIG    1        1.613   0.441  -3.338  0.00  0.00    -0.030 A 
ATOM      6  C   LIG    1        1.032  -0.118  -2.216  0.00  0.00    -0.040 A 
ATOM      7  C   LIG    1        0.799   0.660  -1.097  0.00  0.00    +0.090 A 
ATOM      8  C   LIG    1        1.147   1.998  -1.102  0.00  0.00    -0.670 A 
ATOM      9  C   LIG    1        1.722   2.559  -2.227  0.00  0.00    +0.030 A 
ATOM     10  C   LIG    1        2.095   4.019  -2.235  0.00  0.00    +0.090 C 
ATOM     11  C   LIG    1        0.166   0.051   0.127  0.00  0.00    +0.120 C 
ATOM     12  C   LIG    1        1.960   1.779  -3.344  0.00  0.00    -0.050 A 
ENDBRANCH   1   8
BRANCH   1  13
ATOM     13  N   LIG    1       -0.739   3.457   0.273  0.00  0.00    -1.020 N 
ATOM     14  H   LIG    1       -1.369   3.103   0.920  0.00  0.00    +0.420 HD
BRANCH  13  15
ATOM     15  C   LIG    1       -1.169   4.354  -0.695  0.00  0.00    +0.150 A 
ATOM     16  C   LIG    1       -0.842   5.700  -0.594  0.00  0.00    -0.090 A 
ATOM     17  C   LIG    1       -1.271   6.590  -1.557  0.00  0.00    -0.010 A 
ATOM     18  C   LIG    1       -2.029   6.152  -2.631  0.00  0.00    -0.010 A 
ATOM     19  C   LIG    1       -2.360   4.821  -2.753  0.00  0.00    +0.040 A 
ATOM     20  C   LIG    1       -0.018   6.189   0.570  0.00  0.00    +0.090 C 
ATOM     21  C   LIG    1       -1.938   3.905  -1.782  0.00  0.00    -0.120 A 
BRANCH  21  22
ATOM     22  C   LIG    1       -2.291   2.483  -1.903  0.00  0.00    +0.520 C 
ATOM     23  O   LIG    1       -1.855   1.674  -1.095  0.00  0.00    -0.670 OA
ATOM     24  O   LIG    1       -3.018   2.108  -2.813  0.00  0.00    -0.690 OA
ENDBRANCH  21  22
ENDBRANCH  13  15
ENDBRANCH   1  13
TORSDOF 4
