REMARK  Name = ZINCpk00000xHYOx.0
REMARK                            x       y       z     vdW  Elec       q    Type
REMARK                         _______ _______ _______ _____ _____    ______ ____
ROOT
ATOM      1  N   LIG    1        2.860   4.195  -1.386  0.00  0.00    -0.520 NA
ATOM      2  C   LIG    1        1.715   4.622  -2.201  0.00  0.00    +0.160 C 
ATOM      3  C   LIG    1        2.192   4.798  -3.643  0.00  0.00    +0.230 C 
ATOM      4  O   LIG    1        3.205   5.801  -3.660  0.00  0.00    -0.380 OA
ATOM      5  C   LIG    1        4.365   5.519  -2.874  0.00  0.00    +0.180 C 
ATOM      6  C   LIG    1        5.096   6.869  -2.658  0.00  0.00    +0.250 C 
ATOM      7  N   LIG    1        4.602   7.429  -1.386  0.00  0.00    -0.460 N 
ATOM      8  C   LIG    1        3.609   6.493  -0.816  0.00  0.00    +0.200 C 
ATOM      9  C   LIG    1        3.968   5.129  -1.437  0.00  0.00    +0.160 C 
ENDROOT
BRANCH   7  10
ATOM     10  C   LIG    1        4.047   8.675  -1.578  0.00  0.00    +0.470 A 
ATOM     11  N   LIG    1        2.777   8.918  -1.275  0.00  0.00    -0.600 NA
ATOM     12  C   LIG    1        2.228  10.108  -1.453  0.00  0.00    +0.570 A 
ATOM     13  N   LIG    1        2.855  11.150  -1.933  0.00  0.00    -0.530 NA
ATOM     14  C   LIG    1        4.151  11.075  -2.291  0.00  0.00    +0.300 A 
ATOM     15  N   LIG    1        5.041  11.905  -2.787  0.00  0.00    -0.280 NA
ATOM     16  N   LIG    1        6.261  11.234  -2.937  0.00  0.00    -0.420 N 
ATOM     17  H   LIG    1        7.076  11.630  -3.283  0.00  0.00    +0.450 HD
ATOM     18  C   LIG    1        6.132   9.960  -2.541  0.00  0.00    +0.350 A 
ATOM     19  C   LIG    1        4.835   9.780  -2.117  0.00  0.00    -0.320 A 
ENDBRANCH   7  10
BRANCH   1  20
ATOM     20  C   LIG    1        2.451   3.937   0.001  0.00  0.00    +0.230 C 
BRANCH  20  24
ATOM     21  C   LIG    1       -1.219   1.751   0.017  0.00  0.00    +0.000 A 
ATOM     22  C   LIG    1       -0.013   1.076   0.008  0.00  0.00    +0.000 A 
ATOM     23  C   LIG    1        1.175   1.783   0.000  0.00  0.00    +0.020 A 
ATOM     24  C   LIG    1        1.156   3.165   0.008  0.00  0.00    -0.090 A 
ATOM     25  C   LIG    1       -0.050   3.840   0.023  0.00  0.00    +0.010 A 
ATOM     26  C   LIG    1       -1.238   3.133   0.029  0.00  0.00    +0.000 A 
ENDBRANCH  20  24
ENDBRANCH   1  20
TORSDOF 3
