REMARK  Name = ZINCpe00000MDYIY.0
REMARK                            x       y       z     vdW  Elec       q    Type
REMARK                         _______ _______ _______ _____ _____    ______ ____
ROOT
ATOM      1  O   LIG    1       -1.766   3.028   2.158  0.00  0.00    -0.530 OA
ATOM      2  C   LIG    1       -1.384   2.600   1.090  0.00  0.00    +0.510 C 
ATOM      3  C   LIG    1       -1.861   3.275  -0.167  0.00  0.00    +0.330 C 
ATOM      4  N   LIG    1       -1.052   2.801  -1.299  0.00  0.00    -0.610 N 
ATOM      5  C   LIG    1       -0.754   1.361  -1.360  0.00  0.00    +0.220 C 
ATOM      6  C   LIG    1        0.050   0.986  -0.113  0.00  0.00    +0.300 C 
ATOM      7  C   LIG    1       -0.601   3.651  -2.243  0.00  0.00    +0.560 C 
ATOM      8  O   LIG    1       -0.012   3.222  -3.216  0.00  0.00    -0.460 OA
ATOM      9  N   LIG    1       -0.561   1.551   1.083  0.00  0.00    -0.710 N 
ATOM     10  H   LIG    1       -0.353   1.135   1.934  0.00  0.00    +0.410 HD
ENDROOT
BRANCH   7  11
ATOM     11  C   LIG    1       -0.823   5.103  -2.096  0.00  0.00    -0.050 A 
ATOM     12  C   LIG    1       -2.120   5.602  -1.948  0.00  0.00    +0.090 A 
ATOM     13  C   LIG    1       -2.324   6.961  -1.810  0.00  0.00    +0.090 A 
ATOM     14  C   LIG    1       -1.235   7.833  -1.819  0.00  0.00    +0.060 A 
ATOM     15  O   LIG    1       -1.697   9.107  -1.669  0.00  0.00    -0.290 OA
ATOM     16  C   LIG    1       -3.037   8.973  -1.157  0.00  0.00    +0.460 C 
ATOM     17  C   LIG    1        0.053   7.337  -1.966  0.00  0.00    +0.140 A 
ATOM     18  O   LIG    1       -3.466   7.692  -1.654  0.00  0.00    -0.290 OA
ATOM     19  C   LIG    1        0.263   5.981  -2.099  0.00  0.00    +0.000 A 
BRANCH  19  20
ATOM     20  N   LIG    1        1.639   5.457  -2.249  0.00  0.00    +0.020 N 
ATOM     21  O   LIG    1        1.836   4.255  -2.243  0.00  0.00    -0.110 OA
ATOM     22  O   LIG    1        2.574   6.227  -2.380  0.00  0.00    -0.150 OA
ENDBRANCH  19  20
ENDBRANCH   7  11
BRANCH   5  23
ATOM     23  C   LIG    1        0.068   1.056  -2.614  0.00  0.00    +0.470 C 
ATOM     24  F   LIG    1        1.256   1.793  -2.584  0.00  0.00    -0.150 F 
ATOM     25  F   LIG    1       -0.669   1.405  -3.751  0.00  0.00    -0.160 F 
ATOM     26  F   LIG    1        0.368  -0.310  -2.655  0.00  0.00    -0.180 F 
ENDBRANCH   5  23
TORSDOF 3
