REMARK  Name = ZINCpe000015HKhl.0
REMARK                            x       y       z     vdW  Elec       q    Type
REMARK                         _______ _______ _______ _____ _____    ______ ____
ROOT
ATOM      1  N   LIG    1       -1.928   2.552   5.934  0.00  0.00    -0.990 NA
ATOM      2  C   LIG    1       -0.827   3.397   6.444  0.00  0.00    +0.280 C 
ATOM      3  C   LIG    1        0.200   3.618   5.333  0.00  0.00    +0.000 C 
ATOM      4  C   LIG    1        1.609   3.618   5.932  0.00  0.00    +0.040 C 
ATOM      5  C   LIG    1        2.301   2.293   5.604  0.00  0.00    +0.040 C 
ATOM      6  C   LIG    1        1.475   1.153   6.145  0.00  0.00    +0.510 C 
ATOM      7  N   LIG    1        0.620   0.507   5.307  0.00  0.00    -0.750 N 
ATOM      8  H   LIG    1        0.581   0.719   4.359  0.00  0.00    +0.410 HD
ATOM      9  C   LIG    1       -0.245  -0.531   5.900  0.00  0.00    +0.330 C 
ATOM     10  C   LIG    1       -1.706  -0.171   5.615  0.00  0.00    -0.370 C 
ATOM     11  O   LIG    1        1.577   0.822   7.307  0.00  0.00    -0.510 OA
ATOM     12  S   LIG    1       -2.244   1.135   6.752  0.00  0.00    +2.590 S 
ATOM     13  O   LIG    1       -3.660   1.121   6.890  0.00  0.00    -0.950 OA
ATOM     14  O   LIG    1       -1.403   1.184   7.895  0.00  0.00    -0.930 OA
ENDROOT
BRANCH   1  15
ATOM     15  C   LIG    1       -2.717   2.949   4.763  0.00  0.00    +0.340 C 
BRANCH  15  19
ATOM     16  C   LIG    1       -5.803   5.644   5.972  0.00  0.00    -0.070 A 
ATOM     17  C   LIG    1       -6.072   4.293   5.857  0.00  0.00    +0.020 A 
ATOM     18  C   LIG    1       -5.074   3.421   5.461  0.00  0.00    +0.040 A 
ATOM     19  C   LIG    1       -3.806   3.900   5.189  0.00  0.00    -0.110 A 
ATOM     20  C   LIG    1       -3.536   5.250   5.310  0.00  0.00    +0.020 A 
ATOM     21  C   LIG    1       -4.535   6.122   5.701  0.00  0.00    +0.010 A 
BRANCH  16  22
ATOM     22  C   LIG    1       -6.892   6.595   6.399  0.00  0.00    +0.170 C 
BRANCH  22  23
ATOM     23  C   LIG    1       -7.619   7.105   5.181  0.00  0.00    +0.460 C 
ATOM     24  O   LIG    1       -7.286   6.736   4.080  0.00  0.00    -0.500 OA
BRANCH  23  26
ATOM     25  C   LIG    1       -9.288   8.421   4.104  0.00  0.00    +0.260 C 
ATOM     26  O   LIG    1       -8.635   7.971   5.320  0.00  0.00    -0.360 OA
ENDBRANCH  23  26
ENDBRANCH  22  23
ENDBRANCH  16  22
ENDBRANCH  15  19
ENDBRANCH   1  15
TORSDOF 5
