REMARK  Name = ZINCpk00000KfLcm.0
REMARK                            x       y       z     vdW  Elec       q    Type
REMARK                         _______ _______ _______ _____ _____    ______ ____
ROOT
ATOM      1  N   LIG    1        2.560   6.960   2.951  0.00  0.00    -0.520 NA
ATOM      2  C   LIG    1        3.863   7.269   2.348  0.00  0.00    +0.170 C 
ATOM      3  C   LIG    1        3.853   6.864   0.872  0.00  0.00    +0.040 C 
ATOM      4  C   LIG    1        3.561   5.364   0.761  0.00  0.00    -0.030 C 
ATOM      5  C   LIG    1        2.222   5.062   1.439  0.00  0.00    +0.190 C 
ATOM      6  C   LIG    1        2.278   5.519   2.899  0.00  0.00    +0.190 C 
ENDROOT
BRANCH   5   7
ATOM      7  N   LIG    1        1.961   3.617   1.388  0.00  0.00    -0.530 NA
ATOM      8  C   LIG    1        3.032   2.865   2.055  0.00  0.00    +0.200 C 
BRANCH   7   9
ATOM      9  C   LIG    1        1.784   3.163   0.002  0.00  0.00    +0.310 C 
BRANCH   9  10
ATOM     10  C   LIG    1        1.281   1.743  -0.001  0.00  0.00    +0.180 A 
ATOM     11  N   LIG    1        2.013   0.662  -0.014  0.00  0.00    -0.290 NA
ATOM     12  N   LIG    1        1.253  -0.375  -0.012  0.00  0.00    -0.290 NA
ATOM     13  C   LIG    1        0.002  -0.004   0.002  0.00  0.00    +0.210 A 
ATOM     14  N   LIG    1       -0.016   1.351   0.009  0.00  0.00    -0.460 N 
ATOM     15  C   LIG    1       -1.198   2.216   0.020  0.00  0.00    +0.340 C 
BRANCH  13  16
ATOM     16  C   LIG    1       -1.199  -0.914   0.009  0.00  0.00    +0.030 C 
ATOM     17  C   LIG    1       -0.951  -2.411   0.205  0.00  0.00    +0.070 C 
ATOM     18  C   LIG    1       -1.364  -1.876  -1.169  0.00  0.00    +0.050 C 
ENDBRANCH  13  16
ENDBRANCH   9  10
ENDBRANCH   7   9
ENDBRANCH   5   7
BRANCH   1  19
ATOM     19  C   LIG    1        2.486   7.461   4.330  0.00  0.00    +0.370 C 
BRANCH  19  23
ATOM     20  C   LIG    1        6.620   6.041   6.773  0.00  0.00    +0.250 C 
ATOM     21  C   LIG    1        5.221   6.120   6.218  0.00  0.00    +0.180 A 
ATOM     22  N   LIG    1        4.749   7.046   5.420  0.00  0.00    -0.480 NA
ATOM     23  C   LIG    1        3.467   6.708   5.191  0.00  0.00    +0.130 A 
ATOM     24  N   LIG    1        3.229   5.616   5.854  0.00  0.00    -0.370 NA
ATOM     25  O   LIG    1        4.225   5.259   6.447  0.00  0.00    +0.080 OA
ENDBRANCH  19  23
ENDBRANCH   1  19
TORSDOF 6
