REMARK  Name = ZINCpe000000Y3Ay.2
REMARK                            x       y       z     vdW  Elec       q    Type
REMARK                         _______ _______ _______ _____ _____    ______ ____
ROOT
ATOM      1  C   LIG    1        3.480   2.895   1.820  0.00  0.00    +0.180 C 
ENDROOT
BRANCH   1   2
ATOM      2  N   LIG    1        3.526   3.222   0.389  0.00  0.00    -0.520 NA
ATOM      3  C   LIG    1        3.612   2.001  -0.429  0.00  0.00    +0.220 C 
ATOM      4  C   LIG    1        2.485   1.054  -0.011  0.00  0.00    +0.060 C 
ATOM      5  C   LIG    1        1.175   1.794   0.001  0.00  0.00    -0.250 A 
ATOM      6  C   LIG    1       -0.013   1.076   0.008  0.00  0.00    +0.370 A 
ATOM      7  N   LIG    1       -1.162   1.729   0.017  0.00  0.00    -0.570 NA
ATOM      8  C   LIG    1       -1.185   3.054   0.030  0.00  0.00    +0.570 A 
ATOM      9  N   LIG    1       -0.069   3.767   0.023  0.00  0.00    -0.560 NA
ATOM     10  C   LIG    1        1.117   3.173   0.007  0.00  0.00    +0.200 A 
ATOM     11  C   LIG    1        2.360   4.020  -0.006  0.00  0.00    +0.300 C 
BRANCH   8  12
ATOM     12  N   LIG    1       -2.405   3.708   0.047  0.00  0.00    -0.820 N 
ATOM     13  H   LIG    1       -3.229   3.197   0.052  0.00  0.00    +0.410 HD
ATOM     14  H   LIG    1       -2.435   4.678   0.053  0.00  0.00    +0.410 HD
ENDBRANCH   8  12
ENDBRANCH   1   2
BRANCH   1  15
ATOM     15  C   LIG    1        3.642   4.175   2.641  0.00  0.00    +0.120 C 
BRANCH  15  18
ATOM     16  C   LIG    1        6.081   3.735   4.136  0.00  0.00    +0.150 C 
ATOM     17  C   LIG    1        4.740   3.629   4.816  0.00  0.00    +0.190 A 
ATOM     18  C   LIG    1        3.595   3.840   4.110  0.00  0.00    -0.270 A 
ATOM     19  C   LIG    1        2.367   3.731   4.787  0.00  0.00    +0.520 A 
ATOM     20  N   LIG    1        2.361   3.439   6.113  0.00  0.00    -0.510 N 
ATOM     21  C   LIG    1        1.055   3.385   6.772  0.00  0.00    +0.280 C 
ATOM     22  C   LIG    1        1.133   2.615   8.087  0.00  0.00    +0.040 C 
ATOM     23  C   LIG    1        2.283   3.199   8.917  0.00  0.00    +0.040 C 
ATOM     24  C   LIG    1        3.595   2.860   8.213  0.00  0.00    +0.150 C 
ATOM     25  C   LIG    1        3.523   3.228   6.751  0.00  0.00    +0.400 A 
ATOM     26  O   LIG    1        1.317   3.897   4.188  0.00  0.00    -0.530 OA
ATOM     27  N   LIG    1        4.668   3.333   6.112  0.00  0.00    -0.550 NA
ENDBRANCH  15  18
ENDBRANCH   1  15
TORSDOF 4
