REMARK  Name = ZINCnE000001IFt5.0
REMARK                            x       y       z     vdW  Elec       q    Type
REMARK                         _______ _______ _______ _____ _____    ______ ____
ROOT
ATOM      1  C   LIG    1        4.576   3.402   1.285  0.00  0.00    -0.010 C 
ATOM      2  C   LIG    1        5.877   2.605   1.395  0.00  0.00    +0.040 C 
ATOM      3  C   LIG    1        3.671   3.069   2.473  0.00  0.00    +0.030 C 
ENDROOT
BRANCH   1   7
ATOM      4  C   LIG    1        5.418   7.546   1.224  0.00  0.00    +0.390 A 
ATOM      5  C   LIG    1        5.807   6.809   2.337  0.00  0.00    -0.110 A 
ATOM      6  C   LIG    1        5.539   5.452   2.373  0.00  0.00    +0.100 A 
ATOM      7  C   LIG    1        4.888   4.877   1.290  0.00  0.00    -0.160 A 
ATOM      8  C   LIG    1        4.536   5.668   0.214  0.00  0.00    +0.310 A 
ATOM      9  N   LIG    1        4.799   6.960   0.211  0.00  0.00    -0.540 NA
BRANCH   4  11
ATOM     10  C   LIG    1        6.461   9.544   2.241  0.00  0.00    +0.290 C 
ATOM     11  N   LIG    1        5.681   8.910   1.175  0.00  0.00    -0.630 N 
ATOM     12  C   LIG    1        5.178   9.713   0.058  0.00  0.00    +0.280 C 
ENDBRANCH   4  11
ENDBRANCH   1   7
BRANCH   1  13
ATOM     13  C   LIG    1        3.862   3.037  -0.018  0.00  0.00    +0.190 C 
BRANCH  13  14
ATOM     14  N   LIG    1        3.558   1.603  -0.023  0.00  0.00    -0.610 NA
ATOM     15  C   LIG    1        2.312   1.198  -0.014  0.00  0.00    +0.330 A 
ATOM     16  N   LIG    1        1.181   1.965   0.001  0.00  0.00    -0.490 NA
ATOM     17  N   LIG    1       -0.015   1.284   0.009  0.00  0.00    -0.190 NA
ATOM     18  C   LIG    1        0.002  -0.004   0.002  0.00  0.00    -0.170 A 
ATOM     19  S   LIG    1        1.712  -0.472  -0.017  0.00  0.00    -0.100 S 
BRANCH  18  20
ATOM     20  C   LIG    1       -1.190  -0.926   0.009  0.00  0.00    +0.580 C 
ATOM     21  F   LIG    1       -1.144  -1.739   1.147  0.00  0.00    -0.180 F 
ATOM     22  F   LIG    1       -1.166  -1.728  -1.138  0.00  0.00    -0.180 F 
ATOM     23  F   LIG    1       -2.366  -0.169   0.024  0.00  0.00    -0.170 F 
ENDBRANCH  18  20
ENDBRANCH  13  14
ENDBRANCH   1  13
TORSDOF 5
