REMARK  Name = ZINCkj000005k7OU.0
REMARK                            x       y       z     vdW  Elec       q    Type
REMARK                         _______ _______ _______ _____ _____    ______ ____
ROOT
ATOM      1  N   LIG    1       -0.986   2.018   1.039  0.00  0.00    -0.700 N 
ATOM      2  H   LIG    1       -1.543   1.410   1.550  0.00  0.00    +0.410 HD
ATOM      3  C   LIG    1       -0.843   3.297   1.437  0.00  0.00    +0.510 C 
ATOM      4  O   LIG    1       -0.147   4.058   0.798  0.00  0.00    -0.520 OA
ENDROOT
BRANCH   3   5
ATOM      5  C   LIG    1       -1.548   3.783   2.677  0.00  0.00    +0.170 C 
ATOM      6  C   LIG    1       -3.029   3.378   2.626  0.00  0.00    +0.070 C 
ATOM      7  C   LIG    1       -3.726   4.026   1.428  0.00  0.00    +0.040 C 
ATOM      8  C   LIG    1       -3.500   5.546   1.429  0.00  0.00    +0.060 C 
ATOM      9  C   LIG    1       -1.997   5.785   1.459  0.00  0.00    +0.180 C 
ATOM     10  C   LIG    1       -1.610   7.270   1.563  0.00  0.00    +0.080 C 
ATOM     11  C   LIG    1       -0.195   7.191   2.199  0.00  0.00    +0.070 C 
ATOM     12  C   LIG    1       -0.149   5.812   2.903  0.00  0.00    +0.260 C 
ATOM     13  N   LIG    1       -1.485   5.236   2.743  0.00  0.00    -0.370 N 
ATOM     14  H   LIG    1       -2.070   5.561   3.498  0.00  0.00    +0.420 HD
ENDBRANCH   3   5
BRANCH   1  15
ATOM     15  C   LIG    1       -0.300   1.545  -0.167  0.00  0.00    +0.370 C 
BRANCH  15  18
ATOM     16  C   LIG    1       -2.922   0.416  -1.445  0.00  0.00    +0.150 C 
ATOM     17  C   LIG    1       -1.757  -0.398  -0.943  0.00  0.00    +0.110 A 
ATOM     18  C   LIG    1       -0.623   0.090  -0.391  0.00  0.00    -0.280 A 
ATOM     19  C   LIG    1        0.195  -0.994  -0.058  0.00  0.00    +0.260 A 
ATOM     20  N   LIG    1       -0.424  -2.094  -0.404  0.00  0.00    -0.290 NA
ATOM     21  N   LIG    1       -1.657  -1.743  -0.968  0.00  0.00    -0.360 N 
ATOM     22  C   LIG    1       -2.663  -2.673  -1.488  0.00  0.00    +0.360 C 
ENDBRANCH  15  18
ENDBRANCH   1  15
TORSDOF 3
