REMARK  Name = ZINCkj000005k7OU.1
REMARK                            x       y       z     vdW  Elec       q    Type
REMARK                         _______ _______ _______ _____ _____    ______ ____
ROOT
ATOM      1  N   LIG    1        3.775   3.358  -1.210  0.00  0.00    -0.700 N 
ATOM      2  H   LIG    1        3.048   3.991  -1.107  0.00  0.00    +0.410 HD
ATOM      3  C   LIG    1        3.512   2.042  -1.327  0.00  0.00    +0.500 C 
ATOM      4  O   LIG    1        4.422   1.250  -1.456  0.00  0.00    -0.530 OA
ENDROOT
BRANCH   3   5
ATOM      5  C   LIG    1        2.087   1.553  -1.298  0.00  0.00    +0.160 C 
ATOM      6  C   LIG    1        1.435   2.013  -0.001  0.00  0.00    +0.080 C 
ATOM      7  C   LIG    1       -0.019   1.523   0.010  0.00  0.00    +0.050 C 
ATOM      8  C   LIG    1        0.002  -0.004   0.002  0.00  0.00    +0.070 C 
ATOM      9  C   LIG    1        0.841  -0.559  -1.111  0.00  0.00    +0.140 C 
ATOM     10  C   LIG    1        0.048  -0.807  -2.398  0.00  0.00    +0.080 C 
ATOM     11  C   LIG    1        0.974  -0.318  -3.532  0.00  0.00    +0.060 C 
ATOM     12  C   LIG    1        2.364  -0.208  -2.870  0.00  0.00    +0.270 C 
ATOM     13  N   LIG    1        2.083   0.104  -1.443  0.00  0.00    -0.360 N 
ATOM     14  H   LIG    1        2.822  -0.276  -0.872  0.00  0.00    +0.430 HD
ENDBRANCH   3   5
BRANCH   1  15
ATOM     15  C   LIG    1        5.161   3.833  -1.238  0.00  0.00    +0.370 C 
BRANCH  15  18
ATOM     16  C   LIG    1        4.883   5.421   1.443  0.00  0.00    +0.150 C 
ATOM     17  C   LIG    1        5.061   6.019   0.071  0.00  0.00    +0.110 A 
ATOM     18  C   LIG    1        5.181   5.333  -1.089  0.00  0.00    -0.280 A 
ATOM     19  C   LIG    1        5.334   6.261  -2.125  0.00  0.00    +0.260 A 
ATOM     20  N   LIG    1        5.296   7.461  -1.606  0.00  0.00    -0.290 NA
ATOM     21  N   LIG    1        5.128   7.335  -0.221  0.00  0.00    -0.360 N 
ATOM     22  C   LIG    1        5.042   8.437   0.740  0.00  0.00    +0.360 C 
ENDBRANCH  15  18
ENDBRANCH   1  15
TORSDOF 3
