REMARK  Name = ZINCkj000005hoWk.0
REMARK                            x       y       z     vdW  Elec       q    Type
REMARK                         _______ _______ _______ _____ _____    ______ ____
ROOT
ATOM      1  C   LIG    1       -6.361   5.820  -0.817  0.00  0.00    +0.310 C 
ATOM      2  N   LIG    1       -5.098   5.072  -0.887  0.00  0.00    -0.390 N 
ATOM      3  C   LIG    1       -5.078   4.058   0.172  0.00  0.00    +0.240 C 
ATOM      4  C   LIG    1       -3.790   3.232   0.090  0.00  0.00    +0.110 C 
ATOM      5  C   LIG    1       -2.603   4.181   0.244  0.00  0.00    +0.230 C 
ATOM      6  C   LIG    1       -2.664   5.231  -0.866  0.00  0.00    -0.030 C 
ATOM      7  C   LIG    1       -1.455   6.154  -0.744  0.00  0.00    +0.050 C 
ATOM      8  C   LIG    1       -0.178   5.330  -0.941  0.00  0.00    +0.020 C 
ATOM      9  C   LIG    1       -0.090   4.240   0.130  0.00  0.00    +0.290 C 
ATOM     10  N   LIG    1       -1.335   3.455   0.129  0.00  0.00    -0.590 N 
ATOM     11  C   LIG    1       -1.310   2.112   0.020  0.00  0.00    +0.580 C 
ATOM     12  O   LIG    1       -2.343   1.497  -0.161  0.00  0.00    -0.510 OA
ATOM     13  C   LIG    1       -3.973   6.005  -0.729  0.00  0.00    +0.260 C 
ATOM     14  H   LIG    1       -5.030   4.618  -1.785  0.00  0.00    +0.420 HD
ENDROOT
BRANCH  11  15
ATOM     15  C   LIG    1       -0.026   1.386   0.120  0.00  0.00    +0.030 A 
ATOM     16  N   LIG    1        1.078   2.041   0.462  0.00  0.00    -0.440 NA
ATOM     17  C   LIG    1        2.239   1.435   0.557  0.00  0.00    +0.260 A 
ATOM     18  C   LIG    1        2.361   0.076   0.303  0.00  0.00    +0.030 A 
ATOM     19  C   LIG    1        1.240  -0.651  -0.056  0.00  0.00    +0.040 A 
ATOM     20  C   LIG    1        0.020   0.014  -0.151  0.00  0.00    +0.130 A 
BRANCH  20  21
ATOM     21  O   LIG    1       -1.106  -0.658  -0.500  0.00  0.00    -0.470 OA
ATOM     22  H   LIG    1       -1.272  -0.679  -1.452  0.00  0.00    +0.400 HD
ENDBRANCH  20  21
ENDBRANCH  11  15
TORSDOF 2
