REMARK  Name = ZINCkj000005hoWk.1
REMARK                            x       y       z     vdW  Elec       q    Type
REMARK                         _______ _______ _______ _____ _____    ______ ____
ROOT
ATOM      1  C   LIG    1       -3.030   2.418  -4.363  0.00  0.00    +0.310 C 
ATOM      2  N   LIG    1       -1.600   2.114  -4.222  0.00  0.00    -0.380 N 
ATOM      3  C   LIG    1       -0.885   3.331  -3.824  0.00  0.00    +0.250 C 
ATOM      4  C   LIG    1       -1.448   3.870  -2.504  0.00  0.00    +0.090 C 
ATOM      5  C   LIG    1       -1.290   2.793  -1.431  0.00  0.00    +0.230 C 
ATOM      6  C   LIG    1       -2.031   1.532  -1.893  0.00  0.00    -0.030 C 
ATOM      7  C   LIG    1       -1.911   0.463  -0.810  0.00  0.00    +0.050 C 
ATOM      8  C   LIG    1       -2.588   0.968   0.469  0.00  0.00    +0.020 C 
ATOM      9  C   LIG    1       -1.907   2.253   0.947  0.00  0.00    +0.290 C 
ATOM     10  N   LIG    1       -1.868   3.226  -0.156  0.00  0.00    -0.590 N 
ATOM     11  C   LIG    1       -2.349   4.475   0.001  0.00  0.00    +0.590 C 
ATOM     12  O   LIG    1       -2.240   5.286  -0.898  0.00  0.00    -0.510 OA
ATOM     13  C   LIG    1       -1.425   1.060  -3.212  0.00  0.00    +0.270 C 
ATOM     14  H   LIG    1       -1.240   1.791  -5.107  0.00  0.00    +0.430 HD
ENDROOT
BRANCH  11  15
ATOM     15  C   LIG    1       -3.009   4.859   1.267  0.00  0.00    +0.040 A 
ATOM     16  N   LIG    1       -2.524   4.421   2.424  0.00  0.00    -0.440 NA
ATOM     17  C   LIG    1       -3.077   4.743   3.571  0.00  0.00    +0.260 A 
ATOM     18  C   LIG    1       -4.205   5.550   3.620  0.00  0.00    +0.030 A 
ATOM     19  C   LIG    1       -4.751   6.028   2.443  0.00  0.00    +0.050 A 
ATOM     20  C   LIG    1       -4.144   5.677   1.239  0.00  0.00    +0.120 A 
BRANCH  20  21
ATOM     21  O   LIG    1       -4.644   6.122   0.059  0.00  0.00    -0.470 OA
ATOM     22  H   LIG    1       -5.304   5.535  -0.334  0.00  0.00    +0.390 HD
ENDBRANCH  20  21
ENDBRANCH  11  15
TORSDOF 2
