REMARK  Name = ZINCrH000004qMEo.0
REMARK                            x       y       z     vdW  Elec       q    Type
REMARK                         _______ _______ _______ _____ _____    ______ ____
ROOT
ATOM      1  N   LIG    1       -6.301   5.781   2.145  0.00  0.00    -0.690 N 
ATOM      2  H   LIG    1       -6.918   5.522   1.443  0.00  0.00    +0.410 HD
ATOM      3  C   LIG    1       -5.041   5.303   2.147  0.00  0.00    +0.710 C 
ATOM      4  N   LIG    1       -4.609   4.539   1.125  0.00  0.00    -0.620 N 
ATOM      5  C   LIG    1       -5.530   4.128   0.056  0.00  0.00    +0.270 C 
ATOM      6  C   LIG    1       -4.928   4.527  -1.295  0.00  0.00    +0.010 C 
ATOM      7  C   LIG    1       -3.521   3.938  -1.416  0.00  0.00    +0.030 C 
ATOM      8  C   LIG    1       -2.632   4.503  -0.305  0.00  0.00    +0.030 C 
ATOM      9  C   LIG    1       -3.207   4.103   1.057  0.00  0.00    +0.310 C 
ATOM     10  O   LIG    1       -4.295   5.561   3.071  0.00  0.00    -0.570 OA
ENDROOT
BRANCH   8  11
ATOM     11  C   LIG    1       -1.238   3.947  -0.445  0.00  0.00    -0.060 A 
ATOM     12  C   LIG    1       -0.170   4.802  -0.638  0.00  0.00    +0.050 A 
ATOM     13  C   LIG    1        1.110   4.295  -0.766  0.00  0.00    +0.030 A 
ATOM     14  C   LIG    1        1.322   2.929  -0.701  0.00  0.00    +0.070 A 
ATOM     15  C   LIG    1        0.250   2.071  -0.507  0.00  0.00    +0.070 A 
ATOM     16  F   LIG    1        0.455   0.737  -0.443  0.00  0.00    -0.130 F 
ATOM     17  F   LIG    1        2.572   2.432  -0.826  0.00  0.00    -0.130 F 
ATOM     18  C   LIG    1       -1.030   2.581  -0.385  0.00  0.00    +0.030 A 
ENDBRANCH   8  11
BRANCH   1  22
ATOM     19  C   LIG    1       -8.984   9.661   3.534  0.00  0.00    +0.100 C 
ATOM     20  C   LIG    1       -8.024   8.546   3.860  0.00  0.00    -0.070 A 
ATOM     21  C   LIG    1       -7.606   7.683   2.864  0.00  0.00    +0.010 A 
ATOM     22  C   LIG    1       -6.721   6.652   3.157  0.00  0.00    +0.160 A 
ATOM     23  C   LIG    1       -6.259   6.484   4.453  0.00  0.00    +0.050 A 
ATOM     24  C   LIG    1       -6.675   7.358   5.457  0.00  0.00    -0.120 A 
ATOM     25  C   LIG    1       -7.564   8.390   5.152  0.00  0.00    +0.070 A 
BRANCH  24  26
ATOM     26  C   LIG    1       -6.181   7.189   6.840  0.00  0.00    +0.570 C 
ATOM     27  O   LIG    1       -6.549   7.949   7.714  0.00  0.00    -0.540 OA
ATOM     28  N   LIG    1       -5.322   6.192   7.131  0.00  0.00    -0.850 N 
ATOM     29  H   LIG    1       -4.998   6.081   8.039  0.00  0.00    +0.410 HD
ATOM     30  H   LIG    1       -5.029   5.585   6.434  0.00  0.00    +0.400 HD
ENDBRANCH  24  26
ENDBRANCH   1  22
TORSDOF 3
