REMARK  Name = ZINCrD00000F5LGo.0
REMARK                            x       y       z     vdW  Elec       q    Type
REMARK                         _______ _______ _______ _____ _____    ______ ____
ROOT
ATOM      1  C   LIG    1       -3.786  -1.041  -2.846  0.00  0.00    +0.330 C 
ATOM      2  C   LIG    1       -3.524  -2.500  -2.467  0.00  0.00    +0.040 C 
ENDROOT
BRANCH   1   3
ATOM      3  C   LIG    1       -5.157  -0.920  -3.461  0.00  0.00    +0.060 A 
ATOM      4  C   LIG    1       -5.388  -1.138  -4.759  0.00  0.00    -0.070 A 
ATOM      5  S   LIG    1       -7.108  -0.892  -5.052  0.00  0.00    +0.150 S 
ATOM      6  C   LIG    1       -7.344  -0.514  -3.401  0.00  0.00    +0.050 A 
ATOM      7  N   LIG    1       -6.224  -0.586  -2.764  0.00  0.00    -0.460 NA
BRANCH   6   8
ATOM      8  C   LIG    1       -8.668  -0.148  -2.780  0.00  0.00    +0.210 C 
BRANCH   8   9
ATOM      9  C   LIG    1       -8.861   1.344  -2.853  0.00  0.00    -0.120 A 
ATOM     10  C   LIG    1       -8.518   2.139  -1.776  0.00  0.00    +0.070 A 
ATOM     11  C   LIG    1       -8.690   3.509  -1.845  0.00  0.00    +0.000 A 
ATOM     12  C   LIG    1       -9.217   4.084  -2.985  0.00  0.00    +0.040 A 
ATOM     13  C   LIG    1       -9.567   3.291  -4.061  0.00  0.00    -0.010 A 
ATOM     14  C   LIG    1       -9.390   1.919  -3.996  0.00  0.00    +0.100 A 
ATOM     15  F   LIG    1       -9.731   1.143  -5.048  0.00  0.00    -0.130 F 
ENDBRANCH   8   9
ENDBRANCH   6   8
ENDBRANCH   1   3
BRANCH   1  17
ATOM     16  C   LIG    1       -2.523   0.256  -1.215  0.00  0.00    +0.500 C 
ATOM     17  N   LIG    1       -3.715  -0.204  -1.645  0.00  0.00    -0.720 N 
ATOM     18  H   LIG    1       -4.524   0.018  -1.160  0.00  0.00    +0.410 HD
ATOM     19  O   LIG    1       -1.511  -0.022  -1.822  0.00  0.00    -0.510 OA
BRANCH  16  20
ATOM     20  C   LIG    1       -2.449   1.117   0.020  0.00  0.00    +0.250 C 
BRANCH  20  21
ATOM     21  N   LIG    1       -1.191   1.867   0.018  0.00  0.00    -0.730 N 
ATOM     22  H   LIG    1       -1.204   2.837   0.023  0.00  0.00    +0.400 HD
ATOM     23  C   LIG    1       -0.014   1.209   0.009  0.00  0.00    +0.520 C 
ATOM     24  O   LIG    1        0.002  -0.004   0.002  0.00  0.00    -0.510 OA
ATOM     25  C   LIG    1        1.280   1.980   0.001  0.00  0.00    +0.090 C 
ENDBRANCH  20  21
BRANCH  20  26
ATOM     26  C   LIG    1       -2.512   0.230   1.264  0.00  0.00    +0.060 C 
BRANCH  26  27
ATOM     27  C   LIG    1       -2.563   1.109   2.516  0.00  0.00    +0.080 C 
BRANCH  27  29
ATOM     28  C   LIG    1       -2.691   1.260   5.348  0.00  0.00    +0.140 C 
ATOM     29  S   LIG    1       -2.638   0.057   3.991  0.00  0.00    -0.260 S 
ENDBRANCH  27  29
ENDBRANCH  26  27
ENDBRANCH  20  26
ENDBRANCH  16  20
ENDBRANCH   1  17
TORSDOF 9
