REMARK  Name = ZINCpe000027pHxz.0
REMARK                            x       y       z     vdW  Elec       q    Type
REMARK                         _______ _______ _______ _____ _____    ______ ____
ROOT
ATOM      1  C   LIG    1       -0.172   1.459  -2.427  0.00  0.00    +0.510 C 
ATOM      2  N   LIG    1       -0.609   1.807  -1.201  0.00  0.00    -0.730 N 
ATOM      3  H   LIG    1       -1.460   2.262  -1.100  0.00  0.00    +0.400 HD
ATOM      4  O   LIG    1        0.892   0.891  -2.553  0.00  0.00    -0.520 OA
ENDROOT
BRANCH   1   5
ATOM      5  C   LIG    1       -1.006   1.776  -3.642  0.00  0.00    +0.120 C 
BRANCH   5   9
ATOM      6  C   LIG    1        1.001   0.384  -7.150  0.00  0.00    +0.150 A 
ATOM      7  C   LIG    1        0.120  -0.451  -6.475  0.00  0.00    -0.010 A 
ATOM      8  C   LIG    1       -0.527   0.002  -5.341  0.00  0.00    +0.040 A 
ATOM      9  C   LIG    1       -0.298   1.285  -4.879  0.00  0.00    -0.090 A 
ATOM     10  C   LIG    1        0.574   2.120  -5.552  0.00  0.00    +0.040 A 
ATOM     11  C   LIG    1        1.228   1.672  -6.683  0.00  0.00    +0.010 A 
BRANCH   6  13
ATOM     12  C   LIG    1        2.906   0.354  -8.573  0.00  0.00    +0.540 C 
ATOM     13  N   LIG    1        1.657  -0.071  -8.298  0.00  0.00    -0.670 N 
ATOM     14  H   LIG    1        1.213  -0.692  -8.896  0.00  0.00    +0.410 HD
ATOM     15  O   LIG    1        3.498   1.057  -7.777  0.00  0.00    -0.520 OA
BRANCH  12  17
ATOM     16  C   LIG    1        4.784   0.388 -10.109  0.00  0.00    +0.160 C 
ATOM     17  C   LIG    1        3.552  -0.031  -9.837  0.00  0.00    -0.090 C 
ENDBRANCH  12  17
ENDBRANCH   6  13
ENDBRANCH   5   9
ENDBRANCH   1   5
BRANCH   2  18
ATOM     18  C   LIG    1        0.201   1.499  -0.020  0.00  0.00    +0.290 C 
BRANCH  18  19
ATOM     19  C   LIG    1       -0.518   1.998   1.236  0.00  0.00    -0.370 C 
BRANCH  19  20
ATOM     20  S   LIG    1        0.486   1.617   2.698  0.00  0.00    +2.630 S 
ATOM     21  O   LIG    1        1.672   2.398   2.706  0.00  0.00    -0.940 OA
ATOM     22  O   LIG    1        0.531   0.214   2.920  0.00  0.00    -0.940 OA
BRANCH  20  23
ATOM     23  N   LIG    1       -0.398   2.203   3.970  0.00  0.00    -1.010 NA
ATOM     24  C   LIG    1       -0.300   3.559   4.529  0.00  0.00    +0.270 C 
ATOM     25  C   LIG    1       -1.290   3.641   5.710  0.00  0.00    +0.030 C 
ATOM     26  C   LIG    1       -1.472   2.153   6.112  0.00  0.00    +0.040 C 
ATOM     27  C   LIG    1       -1.409   1.449   4.733  0.00  0.00    +0.270 C 
ENDBRANCH  20  23
ENDBRANCH  19  20
ENDBRANCH  18  19
ENDBRANCH   2  18
TORSDOF 8
