REMARK  Name = ZINCpk000004ANMv.0
REMARK                            x       y       z     vdW  Elec       q    Type
REMARK                         _______ _______ _______ _____ _____    ______ ____
ROOT
ATOM      1  C   LIG    1       -8.614   5.893   1.335  0.00  0.00    +0.520 C 
ATOM      2  N   LIG    1       -7.377   5.401   1.548  0.00  0.00    -0.620 N 
ATOM      3  C   LIG    1       -6.248   6.303   1.813  0.00  0.00    +0.280 C 
ATOM      4  C   LIG    1       -5.122   5.987   0.824  0.00  0.00    +0.040 C 
ATOM      5  C   LIG    1       -4.772   4.500   0.913  0.00  0.00    +0.150 C 
ATOM      6  C   LIG    1       -5.997   3.663   0.535  0.00  0.00    +0.000 C 
ATOM      7  C   LIG    1       -7.133   3.952   1.521  0.00  0.00    +0.280 C 
ATOM      8  O   LIG    1       -9.525   5.143   1.056  0.00  0.00    -0.530 OA
ENDROOT
BRANCH   1  13
ATOM      9  C   LIG    1      -11.116  10.359   3.145  0.00  0.00    +0.550 C 
ATOM     10  N   LIG    1      -10.216   9.655   2.430  0.00  0.00    -0.610 N 
ATOM     11  C   LIG    1      -10.533   9.196   1.071  0.00  0.00    +0.280 C 
ATOM     12  C   LIG    1      -10.294   7.685   0.993  0.00  0.00    +0.050 C 
ATOM     13  C   LIG    1       -8.864   7.375   1.443  0.00  0.00    -0.010 C 
ATOM     14  C   LIG    1       -8.678   7.819   2.896  0.00  0.00    +0.040 C 
ATOM     15  C   LIG    1       -8.899   9.331   2.996  0.00  0.00    +0.270 C 
ATOM     16  O   LIG    1      -12.235  10.540   2.704  0.00  0.00    -0.540 OA
BRANCH   9  18
ATOM     17  C   LIG    1      -11.599  11.686   5.119  0.00  0.00    +0.140 C 
ATOM     18  C   LIG    1      -10.745  10.910   4.457  0.00  0.00    -0.090 C 
ENDBRANCH   9  18
ENDBRANCH   1  13
BRANCH   5  19
ATOM     19  O   LIG    1       -3.700   4.208   0.014  0.00  0.00    -0.380 OA
BRANCH  19  20
ATOM     20  C   LIG    1       -2.859   3.135   0.443  0.00  0.00    +0.180 C 
BRANCH  20  21
ATOM     21  C   LIG    1       -1.752   2.912  -0.590  0.00  0.00    -0.020 C 
ATOM     22  C   LIG    1       -0.840   1.720  -0.186  0.00  0.00    +0.020 C 
ATOM     23  C   LIG    1       -0.340   1.213  -1.555  0.00  0.00    +0.190 C 
ATOM     24  O   LIG    1       -1.261   1.672  -2.552  0.00  0.00    -0.390 OA
ATOM     25  C   LIG    1       -2.334   2.398  -1.930  0.00  0.00    +0.210 C 
ENDBRANCH  20  21
ENDBRANCH  19  20
ENDBRANCH   5  19
TORSDOF 5
