REMARK  Name = ZINCpk00000kLkse.0
REMARK                            x       y       z     vdW  Elec       q    Type
REMARK                         _______ _______ _______ _____ _____    ______ ____
ROOT
ATOM      1  C   LIG    1       -1.187   1.624   0.017  0.00  0.00    +0.560 C 
ATOM      2  N   LIG    1       -0.011   0.966   0.007  0.00  0.00    -0.720 N 
ATOM      3  H   LIG    1        0.002  -0.004   0.002  0.00  0.00    +0.400 HD
ATOM      4  O   LIG    1       -1.204   2.840   0.023  0.00  0.00    -0.510 OA
ENDROOT
BRANCH   1  11
ATOM      5  C   LIG    1       -6.538  -2.471   0.022  0.00  0.00    +0.160 C 
ATOM      6  C   LIG    1       -6.094  -1.031   0.028  0.00  0.00    -0.060 A 
ATOM      7  C   LIG    1       -6.899   0.058   0.038  0.00  0.00    +0.230 A 
ATOM      8  N   LIG    1       -6.137   1.151   0.039  0.00  0.00    -0.470 NA
ATOM      9  C   LIG    1       -4.860   0.789   0.031  0.00  0.00    +0.200 A 
ATOM     10  C   LIG    1       -3.668   1.536   0.034  0.00  0.00    +0.180 A 
ATOM     11  C   LIG    1       -2.456   0.868   0.018  0.00  0.00    -0.130 A 
ATOM     12  C   LIG    1       -2.446  -0.549   0.011  0.00  0.00    +0.030 A 
ATOM     13  C   LIG    1       -3.604  -1.233   0.013  0.00  0.00    +0.220 A 
ATOM     14  N   LIG    1       -4.806  -0.581   0.024  0.00  0.00    -0.350 N 
ENDBRANCH   1  11
BRANCH   2  15
ATOM     15  C   LIG    1        1.248   1.716  -0.001  0.00  0.00    +0.260 C 
ATOM     16  C   LIG    1        2.390   0.850  -0.587  0.00  0.00    +0.050 C 
ATOM     17  C   LIG    1        3.658   1.500   0.021  0.00  0.00    -0.010 C 
ATOM     18  C   LIG    1        3.237   1.882   1.455  0.00  0.00    +0.000 C 
ATOM     19  C   LIG    1        1.702   2.022   1.441  0.00  0.00    +0.150 C 
BRANCH  19  20
ATOM     20  O   LIG    1        1.326   3.353   1.801  0.00  0.00    -0.550 OA
ATOM     21  H   LIG    1        1.585   3.606   2.697  0.00  0.00    +0.380 HD
ENDBRANCH  19  20
BRANCH  17  22
ATOM     22  C   LIG    1        4.814   0.498   0.048  0.00  0.00    +0.310 C 
BRANCH  22  23
ATOM     23  N   LIG    1        6.030   1.168   0.514  0.00  0.00    -0.460 N 
ATOM     24  C   LIG    1        6.961   1.798  -0.268  0.00  0.00    +0.110 A 
ATOM     25  C   LIG    1        7.908   2.276   0.562  0.00  0.00    +0.140 A 
ATOM     26  N   LIG    1        7.570   1.938   1.815  0.00  0.00    -0.490 NA
ATOM     27  C   LIG    1        6.446   1.274   1.794  0.00  0.00    +0.380 A 
ENDBRANCH  22  23
ENDBRANCH  17  22
ENDBRANCH   2  15
TORSDOF 5
