REMARK  Name = ZINCqH0000004Rz9.0
REMARK                            x       y       z     vdW  Elec       q    Type
REMARK                         _______ _______ _______ _____ _____    ______ ____
ROOT
ATOM      1  N   LIG    1       -2.317  -0.266   0.065  0.00  0.00    -0.740 N 
ATOM      2  H   LIG    1       -2.425   0.698   0.073  0.00  0.00    +0.400 HD
ATOM      3  C   LIG    1       -1.082  -0.804   0.028  0.00  0.00    +0.730 C 
ATOM      4  N   LIG    1        0.002  -0.004   0.002  0.00  0.00    -0.640 N 
ATOM      5  C   LIG    1       -0.018   1.466   0.010  0.00  0.00    +0.240 C 
ATOM      6  C   LIG    1        1.449   1.944  -0.001  0.00  0.00    +0.050 C 
ATOM      7  C   LIG    1        2.219   0.718   0.556  0.00  0.00    +0.030 C 
ATOM      8  C   LIG    1        1.404  -0.458  -0.040  0.00  0.00    +0.280 C 
ATOM      9  O   LIG    1       -0.946  -2.013   0.017  0.00  0.00    -0.580 OA
ENDROOT
BRANCH   7  10
ATOM     10  C   LIG    1        3.640   0.698   0.056  0.00  0.00    -0.080 A 
ATOM     11  C   LIG    1        3.896   0.760  -1.302  0.00  0.00    +0.010 A 
ATOM     12  C   LIG    1        5.200   0.747  -1.760  0.00  0.00    +0.000 A 
ATOM     13  C   LIG    1        6.248   0.661  -0.863  0.00  0.00    +0.000 A 
ATOM     14  C   LIG    1        5.992   0.593   0.494  0.00  0.00    +0.000 A 
ATOM     15  C   LIG    1        4.688   0.612   0.953  0.00  0.00    +0.010 A 
ENDBRANCH   7  10
BRANCH   1  16
ATOM     16  C   LIG    1       -3.495  -1.136   0.093  0.00  0.00    +0.420 C 
BRANCH  16  25
ATOM     17  N   LIG    1       -5.360   0.135   1.267  0.00  0.00    -0.480 N 
ATOM     18  C   LIG    1       -6.457   0.880   0.883  0.00  0.00    +0.050 A 
ATOM     19  C   LIG    1       -7.451   1.562   1.570  0.00  0.00    +0.010 A 
ATOM     20  C   LIG    1       -8.439   2.220   0.868  0.00  0.00    +0.030 A 
ATOM     21  C   LIG    1       -8.444   2.205  -0.519  0.00  0.00    +0.000 A 
ATOM     22  C   LIG    1       -7.474   1.539  -1.213  0.00  0.00    +0.070 A 
ATOM     23  C   LIG    1       -6.463   0.865  -0.523  0.00  0.00    +0.040 A 
ATOM     24  N   LIG    1       -5.389   0.132  -0.915  0.00  0.00    -0.470 NA
ATOM     25  C   LIG    1       -4.742  -0.291   0.132  0.00  0.00    +0.260 A 
BRANCH  17  27
ATOM     26  C   LIG    1       -3.981   0.957   3.112  0.00  0.00    +0.030 C 
ATOM     27  C   LIG    1       -4.936  -0.141   2.642  0.00  0.00    +0.290 C 
ENDBRANCH  17  27
ENDBRANCH  16  25
ENDBRANCH   1  16
TORSDOF 4
