REMARK  Name = ZINCpk00000y6tFj.0
REMARK                            x       y       z     vdW  Elec       q    Type
REMARK                         _______ _______ _______ _____ _____    ______ ____
ROOT
ATOM      1  C   LIG    1        3.040   3.800  -0.509  0.00  0.00    +0.300 C 
ATOM      2  N   LIG    1        3.406   2.411  -0.222  0.00  0.00    -0.590 N 
ATOM      3  C   LIG    1        2.488   1.561   0.280  0.00  0.00    +0.590 C 
ATOM      4  O   LIG    1        2.799   0.414   0.542  0.00  0.00    -0.520 OA
ENDROOT
BRANCH   3   5
ATOM      5  C   LIG    1        1.114   2.019   0.509  0.00  0.00    +0.030 A 
ATOM      6  C   LIG    1        0.680   3.328   0.513  0.00  0.00    +0.020 A 
ATOM      7  C   LIG    1       -0.693   3.305   0.775  0.00  0.00    +0.090 A 
ATOM      8  C   LIG    1       -1.068   2.011   0.915  0.00  0.00    +0.070 A 
ATOM      9  N   LIG    1        0.021   1.220   0.758  0.00  0.00    -0.380 N 
ATOM     10  C   LIG    1        0.033  -0.243   0.841  0.00  0.00    +0.360 C 
BRANCH   8  11
ATOM     11  N   LIG    1       -2.442   1.539   1.198  0.00  0.00    +0.060 N 
ATOM     12  O   LIG    1       -3.349   2.343   1.320  0.00  0.00    -0.130 OA
ATOM     13  O   LIG    1       -2.665   0.347   1.310  0.00  0.00    -0.170 OA
ENDBRANCH   8  11
ENDBRANCH   3   5
BRANCH   2  14
ATOM     14  C   LIG    1        4.772   1.946  -0.478  0.00  0.00    +0.280 C 
BRANCH  14  15
ATOM     15  C   LIG    1        4.882   1.463  -1.926  0.00  0.00    +0.170 C 
ATOM     16  C   LIG    1        4.033   0.189  -2.120  0.00  0.00    +0.020 C 
ATOM     17  C   LIG    1        4.907  -0.672  -3.071  0.00  0.00    +0.030 C 
ATOM     18  C   LIG    1        6.335  -0.329  -2.579  0.00  0.00    +0.210 C 
ATOM     19  N   LIG    1        6.280   1.107  -2.231  0.00  0.00    -0.460 N 
BRANCH  19  20
ATOM     20  C   LIG    1        7.113   1.390  -1.154  0.00  0.00    +0.240 A 
ATOM     21  C   LIG    1        7.667   2.662  -1.012  0.00  0.00    +0.050 A 
ATOM     22  C   LIG    1        8.486   2.895   0.081  0.00  0.00    +0.050 A 
ATOM     23  C   LIG    1        8.712   1.847   0.962  0.00  0.00    +0.210 A 
ATOM     24  N   LIG    1        8.151   0.673   0.748  0.00  0.00    -0.230 NA
ATOM     25  N   LIG    1        7.388   0.452  -0.259  0.00  0.00    -0.270 NA
ENDBRANCH  19  20
ENDBRANCH  14  15
ENDBRANCH   2  14
TORSDOF 5
