REMARK  Name = ZINCqH0000051rBJ.0
REMARK                            x       y       z     vdW  Elec       q    Type
REMARK                         _______ _______ _______ _____ _____    ______ ____
ROOT
ATOM      1  O   LIG    1        2.365   4.066  -0.101  0.00  0.00    -0.560 OA
ATOM      2  C   LIG    1        3.445   3.509  -0.114  0.00  0.00    +0.710 C 
ATOM      3  N   LIG    1        4.576   4.233  -0.223  0.00  0.00    -0.720 N 
ATOM      4  H   LIG    1        5.438   3.788  -0.234  0.00  0.00    +0.400 HD
ATOM      5  N   LIG    1        3.511   2.166  -0.020  0.00  0.00    -0.680 N 
ATOM      6  H   LIG    1        4.374   1.726   0.046  0.00  0.00    +0.410 HD
ENDROOT
BRANCH   3   7
ATOM      7  C   LIG    1        4.504   5.693  -0.325  0.00  0.00    +0.260 C 
ATOM      8  C   LIG    1        5.756   6.248  -1.042  0.00  0.00    +0.050 C 
ATOM      9  C   LIG    1        6.000   7.567  -0.276  0.00  0.00    +0.270 C 
ATOM     10  N   LIG    1        5.402   7.365   1.050  0.00  0.00    -0.610 N 
ATOM     11  C   LIG    1        4.554   6.323   1.049  0.00  0.00    +0.500 C 
ATOM     12  O   LIG    1        3.920   5.943   2.011  0.00  0.00    -0.500 OA
BRANCH  10  13
ATOM     13  C   LIG    1        5.694   8.194   2.222  0.00  0.00    +0.240 C 
ATOM     14  C   LIG    1        5.758   7.399   3.537  0.00  0.00    +0.020 C 
ATOM     15  C   LIG    1        5.021   8.579   4.194  0.00  0.00    +0.010 C 
ATOM     16  C   LIG    1        4.456   8.900   2.800  0.00  0.00    +0.010 C 
ENDBRANCH  10  13
ENDBRANCH   3   7
BRANCH   5  17
ATOM     17  C   LIG    1        2.336   1.405  -0.019  0.00  0.00    +0.120 A 
ATOM     18  C   LIG    1        1.224   1.825  -0.748  0.00  0.00    +0.080 A 
ATOM     19  C   LIG    1        0.084   1.045  -0.720  0.00  0.00    +0.000 A 
ATOM     20  C   LIG    1        0.084  -0.131   0.034  0.00  0.00    +0.170 A 
ATOM     21  N   LIG    1        1.164  -0.498   0.717  0.00  0.00    -0.450 NA
ATOM     22  C   LIG    1        2.265   0.225   0.709  0.00  0.00    +0.250 A 
BRANCH  20  23
ATOM     23  C   LIG    1       -1.128  -0.974   0.073  0.00  0.00    -0.140 A 
ATOM     24  C   LIG    1       -1.252  -2.127   0.761  0.00  0.00    +0.070 A 
ATOM     25  C   LIG    1       -2.482  -2.738   0.645  0.00  0.00    +0.030 A 
ATOM     26  C   LIG    1       -3.363  -2.095  -0.131  0.00  0.00    -0.150 A 
ATOM     27 CL   LIG    1       -4.982  -2.629  -0.457  0.00  0.00    -0.010 Cl
ATOM     28  S   LIG    1       -2.635  -0.625  -0.764  0.00  0.00    +0.180 S 
ENDBRANCH  20  23
ENDBRANCH   5  17
TORSDOF 4
