REMARK  Name = ZINCrD00000s9nJ7.0
REMARK                            x       y       z     vdW  Elec       q    Type
REMARK                         _______ _______ _______ _____ _____    ______ ____
ROOT
ATOM      1  O   LIG    1        2.687  -1.066   5.737  0.00  0.00    -0.490 OA
ATOM      2  C   LIG    1        1.710  -0.348   5.827  0.00  0.00    +0.590 C 
ATOM      3  N   LIG    1        1.223  -0.022   7.041  0.00  0.00    -0.600 N 
ATOM      4  H   LIG    1        0.443   0.550   7.113  0.00  0.00    +0.430 HD
ENDROOT
BRANCH   2   5
ATOM      5  C   LIG    1        1.056   0.168   4.606  0.00  0.00    -0.020 A 
ATOM      6  C   LIG    1        1.560  -0.169   3.351  0.00  0.00    +0.350 A 
ATOM      7  N   LIG    1        0.976   0.293   2.260  0.00  0.00    -0.480 NA
ATOM      8  C   LIG    1       -0.090   1.077   2.359  0.00  0.00    +0.300 A 
ATOM      9  C   LIG    1       -0.592   1.419   3.620  0.00  0.00    +0.230 A 
ATOM     10  N   LIG    1       -0.015   0.955   4.706  0.00  0.00    -0.390 NA
BRANCH   8  11
ATOM     11  N   LIG    1       -0.703   1.561   1.216  0.00  0.00    -0.470 N 
ATOM     12  C   LIG    1       -0.013   1.086   0.008  0.00  0.00    +0.190 C 
ATOM     13  C   LIG    1       -0.755   1.594  -1.231  0.00  0.00    +0.230 C 
ATOM     14  O   LIG    1       -0.837   3.021  -1.180  0.00  0.00    -0.380 OA
ATOM     15  C   LIG    1       -1.504   3.518  -0.017  0.00  0.00    +0.240 C 
ATOM     16  C   LIG    1       -0.769   3.029   1.235  0.00  0.00    +0.180 C 
ENDBRANCH   8  11
ENDBRANCH   2   5
BRANCH   3  17
ATOM     17  C   LIG    1        1.837  -0.507   8.188  0.00  0.00    +0.270 A 
ATOM     18  N   LIG    1        1.456  -0.261   9.403  0.00  0.00    -0.470 NA
ATOM     19  C   LIG    1        2.165  -0.811  10.379  0.00  0.00    +0.120 A 
ATOM     20  C   LIG    1        3.204  -1.567   9.982  0.00  0.00    -0.100 A 
ATOM     21  S   LIG    1        3.249  -1.559   8.220  0.00  0.00    +0.200 S 
BRANCH  19  22
ATOM     22  C   LIG    1        1.835  -0.607  11.810  0.00  0.00    -0.020 A 
ATOM     23  C   LIG    1        2.608  -1.212  12.800  0.00  0.00    +0.040 A 
ATOM     24  C   LIG    1        2.300  -1.013  14.130  0.00  0.00    +0.010 A 
ATOM     25  C   LIG    1        1.219  -0.226  14.483  0.00  0.00    +0.030 A 
ATOM     26  C   LIG    1        0.444   0.373  13.507  0.00  0.00    +0.020 A 
ATOM     27  C   LIG    1        0.746   0.187  12.172  0.00  0.00    -0.010 A 
ATOM     28 CL   LIG    1       -0.228   0.938  10.947  0.00  0.00    -0.040 Cl
ENDBRANCH  19  22
ENDBRANCH   3  17
TORSDOF 4
