REMARK  Name = ZINCnE000001FMv1.0
REMARK                            x       y       z     vdW  Elec       q    Type
REMARK                         _______ _______ _______ _____ _____    ______ ____
ROOT
ATOM      1  C   LIG    1        1.655   3.007   2.841  0.00  0.00    +0.590 C 
ATOM      2  N   LIG    1        2.722   3.058   2.019  0.00  0.00    -0.620 N 
ATOM      3  H   LIG    1        3.118   2.238   1.687  0.00  0.00    +0.420 HD
ATOM      4  O   LIG    1        1.219   4.028   3.337  0.00  0.00    -0.520 OA
ENDROOT
BRANCH   2   5
ATOM      5  C   LIG    1        3.258   4.297   1.645  0.00  0.00    +0.020 A 
ATOM      6  C   LIG    1        2.461   5.432   1.659  0.00  0.00    +0.110 A 
ATOM      7  C   LIG    1        2.995   6.655   1.294  0.00  0.00    -0.140 A 
ATOM      8  C   LIG    1        4.319   6.747   0.904  0.00  0.00    +0.140 A 
ATOM      9  C   LIG    1        5.117   5.618   0.882  0.00  0.00    -0.180 A 
ATOM     10 CL   LIG    1        1.999   8.077   1.320  0.00  0.00    -0.090 Cl
ATOM     11  C   LIG    1        4.591   4.391   1.252  0.00  0.00    +0.310 A 
ATOM     12  O   LIG    1        5.375   3.280   1.231  0.00  0.00    -0.630 OA
BRANCH   9  13
ATOM     13  N   LIG    1        6.533   5.721   0.465  0.00  0.00    +0.070 N 
ATOM     14  O   LIG    1        7.236   4.726   0.446  0.00  0.00    -0.160 OA
ATOM     15  O   LIG    1        6.995   6.800   0.140  0.00  0.00    -0.260 OA
ENDBRANCH   9  13
ENDBRANCH   2   5
BRANCH   1  17
ATOM     16  C   LIG    1       -0.011   1.090   2.469  0.00  0.00    +0.020 A 
ATOM     17  C   LIG    1        1.015   1.712   3.138  0.00  0.00    -0.240 A 
ATOM     18  C   LIG    1        1.317   0.768   4.225  0.00  0.00    +0.060 A 
ATOM     19  N   LIG    1        0.490  -0.222   4.061  0.00  0.00    -0.360 NA
ATOM     20  C   LIG    1        2.365   0.915   5.299  0.00  0.00    +0.180 C 
ATOM     21  O   LIG    1       -0.235  -0.059   3.111  0.00  0.00    +0.100 OA
BRANCH  16  22
ATOM     22  C   LIG    1       -0.734   1.601   1.249  0.00  0.00    +0.160 C 
BRANCH  22  24
ATOM     23  C   LIG    1       -0.752   1.629  -1.249  0.00  0.00    +0.030 C 
ATOM     24  C   LIG    1       -0.017   1.111  -0.011  0.00  0.00    +0.020 C 
ENDBRANCH  22  24
ENDBRANCH  16  22
ENDBRANCH   1  17
TORSDOF 5
