REMARK  Name = ZINCqH0000000xZF.0
REMARK                            x       y       z     vdW  Elec       q    Type
REMARK                         _______ _______ _______ _____ _____    ______ ____
ROOT
ATOM      1  C   LIG    1        0.446  -2.600   0.962  0.00  0.00    +0.510 C 
ATOM      2  N   LIG    1        1.218  -2.255  -0.088  0.00  0.00    -0.690 N 
ATOM      3  H   LIG    1        2.174  -2.415  -0.060  0.00  0.00    +0.410 HD
ATOM      4  O   LIG    1       -0.761  -2.489   0.890  0.00  0.00    -0.510 OA
ENDROOT
BRANCH   1   7
ATOM      5  N   LIG    1        0.303  -3.463   3.263  0.00  0.00    -0.640 N 
ATOM      6  H   LIG    1       -0.663  -3.436   3.184  0.00  0.00    +0.430 HD
ATOM      7  C   LIG    1        1.075  -3.118   2.213  0.00  0.00    +0.510 C 
ATOM      8  O   LIG    1        2.282  -3.229   2.284  0.00  0.00    -0.500 OA
BRANCH   5  13
ATOM      9  C   LIG    1        0.903  -3.914   6.872  0.00  0.00    -0.150 A 
ATOM     10  C   LIG    1        2.090  -4.654   6.845  0.00  0.00    +0.060 A 
ATOM     11  C   LIG    1        2.666  -4.988   5.637  0.00  0.00    +0.030 A 
ATOM     12  C   LIG    1        2.073  -4.599   4.451  0.00  0.00    +0.050 A 
ATOM     13  C   LIG    1        0.896  -3.858   4.465  0.00  0.00    +0.130 A 
ATOM     14  C   LIG    1        0.307  -3.516   5.673  0.00  0.00    +0.060 A 
BRANCH   9  16
ATOM     15  C   LIG    1        0.931  -3.986   9.451  0.00  0.00    +0.080 C 
ATOM     16  C   LIG    1        0.285  -3.556   8.159  0.00  0.00    +0.400 C 
ATOM     17  O   LIG    1       -0.743  -2.914   8.180  0.00  0.00    -0.460 OA
ENDBRANCH   9  16
ENDBRANCH   5  13
ENDBRANCH   1   7
BRANCH   2  18
ATOM     18  C   LIG    1        0.612  -1.639  -1.271  0.00  0.00    +0.290 C 
BRANCH  18  19
ATOM     19  C   LIG    1        1.498  -1.872  -2.468  0.00  0.00    -0.090 A 
ATOM     20  C   LIG    1        2.871  -1.777  -2.340  0.00  0.00    +0.010 A 
ATOM     21  C   LIG    1        3.684  -1.994  -3.437  0.00  0.00    +0.020 A 
ATOM     22  C   LIG    1        3.124  -2.299  -4.663  0.00  0.00    +0.000 A 
ATOM     23  C   LIG    1        1.750  -2.388  -4.792  0.00  0.00    +0.020 A 
ATOM     24  C   LIG    1        0.938  -2.175  -3.695  0.00  0.00    +0.030 A 
ENDBRANCH  18  19
BRANCH  18  25
ATOM     25  C   LIG    1        0.454  -0.135  -1.039  0.00  0.00    +0.020 C 
BRANCH  25  26
ATOM     26  C   LIG    1       -0.275   0.491  -2.229  0.00  0.00    -0.010 C 
ATOM     27  C   LIG    1       -1.702  -0.055  -2.297  0.00  0.00    +0.020 C 
ATOM     28  C   LIG    1       -0.318   2.011  -2.058  0.00  0.00    +0.010 C 
ENDBRANCH  25  26
ENDBRANCH  18  25
ENDBRANCH   2  18
TORSDOF 7
