REMARK  Name = ZINCrD00000laPvT.0
REMARK                            x       y       z     vdW  Elec       q    Type
REMARK                         _______ _______ _______ _____ _____    ______ ____
ROOT
ATOM      1  N   LIG    1       -4.973   4.613   1.306  0.00  0.00    -0.530 NA
ATOM      2  C   LIG    1       -5.102   3.700   2.450  0.00  0.00    +0.180 C 
ATOM      3  C   LIG    1       -5.142   4.512   3.746  0.00  0.00    +0.170 C 
ATOM      4  N   LIG    1       -6.270   5.453   3.697  0.00  0.00    -0.530 NA
ATOM      5  C   LIG    1       -6.141   6.366   2.554  0.00  0.00    +0.190 C 
ATOM      6  C   LIG    1       -6.101   5.554   1.257  0.00  0.00    +0.200 C 
ENDROOT
BRANCH   1   7
ATOM      7  C   LIG    1       -4.856   3.867   0.046  0.00  0.00    +0.260 C 
BRANCH   7  11
ATOM      8  O   LIG    1       -2.336  -0.193   0.013  0.00  0.00    -0.530 OA
ATOM      9  C   LIG    1       -2.357   1.028   0.019  0.00  0.00    +0.510 A 
ATOM     10  C   LIG    1       -3.574   1.718   0.029  0.00  0.00    -0.170 A 
ATOM     11  C   LIG    1       -3.559   3.099   0.036  0.00  0.00    +0.220 A 
ATOM     12  N   LIG    1       -2.406   3.750   0.044  0.00  0.00    -0.520 NA
ATOM     13  C   LIG    1       -1.244   3.099   0.030  0.00  0.00    +0.390 A 
ATOM     14  C   LIG    1       -0.041   3.829   0.023  0.00  0.00    +0.040 A 
ATOM     15  C   LIG    1        1.147   3.162   0.008  0.00  0.00    +0.120 A 
ATOM     16  C   LIG    1        1.153   1.760   0.001  0.00  0.00    -0.010 A 
ATOM     17  C   LIG    1       -0.013   1.076   0.008  0.00  0.00    +0.280 A 
ATOM     18  N   LIG    1       -1.205   1.733   0.017  0.00  0.00    -0.430 N 
ENDBRANCH   7  11
ENDBRANCH   1   7
BRANCH   4  19
ATOM     19  C   LIG    1       -6.387   6.199   4.957  0.00  0.00    +0.230 C 
BRANCH  19  20
ATOM     20  C   LIG    1       -6.270   5.246   6.119  0.00  0.00    -0.070 A 
ATOM     21  C   LIG    1       -7.403   4.651   6.641  0.00  0.00    +0.060 A 
ATOM     22  C   LIG    1       -7.297   3.773   7.703  0.00  0.00    +0.040 A 
ATOM     23  C   LIG    1       -6.057   3.498   8.251  0.00  0.00    -0.030 A 
ATOM     24  C   LIG    1       -4.923   4.098   7.732  0.00  0.00    -0.030 A 
ATOM     25 CL   LIG    1       -3.366   3.753   8.418  0.00  0.00    -0.050 Cl
ATOM     26 CL   LIG    1       -5.924   2.400   9.589  0.00  0.00    -0.050 Cl
ATOM     27  C   LIG    1       -5.030   4.972   6.665  0.00  0.00    +0.050 A 
ENDBRANCH  19  20
ENDBRANCH   4  19
TORSDOF 4
