REMARK  Name = ZINCAx0000000fk2.0
REMARK                            x       y       z     vdW  Elec       q    Type
REMARK                         _______ _______ _______ _____ _____    ______ ____
ROOT
ATOM      1  C   LIG    1        4.478   0.832  -1.217  0.00  0.00    +0.310 C 
ENDROOT
BRANCH   1   2
ATOM      2  C   LIG    1        2.997   1.112  -1.230  0.00  0.00    +0.520 C 
ATOM      3  N   LIG    1        2.273   0.965  -0.102  0.00  0.00    -0.500 N 
ATOM      4  H   LIG    1        2.706   0.679   0.717  0.00  0.00    +0.430 HD
ATOM      5  O   LIG    1        2.457   1.470  -2.255  0.00  0.00    -0.480 OA
BRANCH   3   6
ATOM      6  N   LIG    1        0.897   1.226  -0.115  0.00  0.00    -0.370 N 
ATOM      7  C   LIG    1        0.365   2.453  -0.144  0.00  0.00    +0.710 C 
ATOM      8  N   LIG    1       -0.980   2.430  -0.150  0.00  0.00    -0.710 N 
ATOM      9  H   LIG    1       -1.573   3.197  -0.171  0.00  0.00    +0.450 HD
ATOM     10  C   LIG    1       -1.377   1.011  -0.127  0.00  0.00    +0.180 C 
ATOM     11  C   LIG    1       -2.193   0.704   1.130  0.00  0.00    +0.110 C 
ATOM     12  O   LIG    1        1.023   3.475  -0.163  0.00  0.00    -0.520 OA
ATOM     13  C   LIG    1       -0.055   0.272  -0.098  0.00  0.00    +0.540 C 
ATOM     14  O   LIG    1        0.113  -0.929  -0.072  0.00  0.00    -0.440 OA
BRANCH  10  15
ATOM     15  C   LIG    1       -2.157   0.656  -1.367  0.00  0.00    -0.100 A 
ATOM     16  C   LIG    1       -2.005  -0.590  -1.946  0.00  0.00    +0.030 A 
ATOM     17  C   LIG    1       -2.723  -0.918  -3.080  0.00  0.00    +0.020 A 
ATOM     18  C   LIG    1       -3.586   0.004  -3.642  0.00  0.00    +0.020 A 
ATOM     19  C   LIG    1       -3.735   1.252  -3.066  0.00  0.00    +0.010 A 
ATOM     20  C   LIG    1       -3.020   1.578  -1.929  0.00  0.00    +0.030 A 
ENDBRANCH  10  15
ENDBRANCH   3   6
ENDBRANCH   1   2
BRANCH   1  21
ATOM     21  O   LIG    1        5.025   1.061  -2.542  0.00  0.00    -0.330 OA
BRANCH  21  22
ATOM     22  C   LIG    1        6.348   0.854  -2.702  0.00  0.00    +0.530 C 
ATOM     23  O   LIG    1        7.025   0.491  -1.760  0.00  0.00    -0.510 OA
BRANCH  22  25
ATOM     24  C   LIG    1        8.326   0.853  -4.178  0.00  0.00    +0.310 C 
ATOM     25  C   LIG    1        6.971   1.066  -4.014  0.00  0.00    -0.160 C 
BRANCH  24  29
ATOM     26  C   LIG    1        8.883   0.931  -9.198  0.00  0.00    +0.140 C 
ATOM     27  C   LIG    1        9.139   0.950  -7.713  0.00  0.00    +0.020 A 
ATOM     28  C   LIG    1        8.197   0.852  -6.761  0.00  0.00    -0.010 A 
ATOM     29  C   LIG    1        8.902   0.917  -5.473  0.00  0.00    -0.220 A 
ATOM     30  C   LIG    1       10.245   1.059  -5.783  0.00  0.00    +0.120 A 
ATOM     31  C   LIG    1       11.374   1.177  -4.793  0.00  0.00    +0.160 C 
ATOM     32  N   LIG    1       10.365   1.071  -7.123  0.00  0.00    -0.420 N 
BRANCH  32  33
ATOM     33  C   LIG    1       11.631   1.201  -7.848  0.00  0.00    +0.290 C 
BRANCH  33  34
ATOM     34  C   LIG    1       11.929   2.681  -8.094  0.00  0.00    -0.030 C 
ATOM     35  C   LIG    1       10.867   3.266  -9.027  0.00  0.00    +0.020 C 
ATOM     36  C   LIG    1       13.309   2.824  -8.739  0.00  0.00    +0.030 C 
ENDBRANCH  33  34
ENDBRANCH  32  33
ENDBRANCH  24  29
BRANCH  25  37
ATOM     37  C   LIG    1        6.173   1.494  -5.124  0.00  0.00    +0.270 C 
ATOM     38  N   LIG    1        5.541   1.833  -6.005  0.00  0.00    -0.420 NA
ENDBRANCH  25  37
ENDBRANCH  22  25
ENDBRANCH  21  22
ENDBRANCH   1  21
TORSDOF 10
