REMARK  Name = ZINCrD00000qRhjE.1
REMARK                            x       y       z     vdW  Elec       q    Type
REMARK                         _______ _______ _______ _____ _____    ______ ____
ROOT
ATOM      1  C   LIG    1       -8.577   1.402   4.303  0.00  0.00    +0.130 A 
ATOM      2  C   LIG    1       -9.408   2.256   5.009  0.00  0.00    -0.040 A 
ATOM      3  C   LIG    1       -8.857   3.239   5.809  0.00  0.00    +0.030 A 
ATOM      4  C   LIG    1       -7.485   3.367   5.895  0.00  0.00    +0.060 A 
ATOM      5  C   LIG    1       -6.646   2.513   5.185  0.00  0.00    -0.070 A 
ATOM      6  C   LIG    1       -5.161   2.720   5.322  0.00  0.00    +0.090 C 
ATOM      7  C   LIG    1       -4.396   1.461   4.916  0.00  0.00    +0.290 C 
ATOM      8  N   LIG    1       -4.946   0.991   3.634  0.00  0.00    -0.610 N 
ATOM      9  C   LIG    1       -4.195   0.968   2.515  0.00  0.00    +0.540 C 
ATOM     10  O   LIG    1       -4.698   0.668   1.453  0.00  0.00    -0.520 OA
ATOM     11  C   LIG    1       -6.347   0.554   3.621  0.00  0.00    +0.360 C 
ATOM     12  F   LIG    1       -6.951   4.331   6.677  0.00  0.00    -0.140 F 
ATOM     13  C   LIG    1       -7.193   1.527   4.395  0.00  0.00    -0.100 A 
ENDROOT
BRANCH   9  14
ATOM     14  C   LIG    1       -2.730   1.316   2.583  0.00  0.00    +0.230 C 
ATOM     15  N   LIG    1       -1.967   0.365   1.770  0.00  0.00    -0.650 NA
ATOM     16  H   LIG    1       -2.375   0.269   0.853  0.00  0.00    +0.360 HD
ATOM     17  C   LIG    1       -0.560   0.785   1.681  0.00  0.00    +0.110 C 
ATOM     18  C   LIG    1       -0.475   2.029   0.797  0.00  0.00    +0.060 C 
ATOM     19  C   LIG    1       -1.477   3.057   1.257  0.00  0.00    -0.060 A 
ATOM     20  C   LIG    1       -1.325   4.367   0.829  0.00  0.00    +0.000 A 
ATOM     21  C   LIG    1       -2.223   5.338   1.224  0.00  0.00    +0.020 A 
ATOM     22  C   LIG    1       -3.279   5.003   2.051  0.00  0.00    +0.000 A 
ATOM     23  C   LIG    1       -3.431   3.699   2.478  0.00  0.00    +0.000 A 
ATOM     24  C   LIG    1       -0.031   1.111   3.079  0.00  0.00    +0.040 C 
ATOM     25  C   LIG    1        0.275  -0.341   1.066  0.00  0.00    +0.050 C 
ATOM     26  C   LIG    1       -2.529   2.722   2.084  0.00  0.00    -0.110 A 
ENDBRANCH   9  14
BRANCH   1  28
ATOM     27  C   LIG    1      -10.543   0.358   3.465  0.00  0.00    +0.250 C 
ATOM     28  O   LIG    1       -9.117   0.434   3.515  0.00  0.00    -0.310 OA
ENDBRANCH   1  28
TORSDOF 2
