REMARK  Name = ZINCvU00000007z5.0
REMARK                            x       y       z     vdW  Elec       q    Type
REMARK                         _______ _______ _______ _____ _____    ______ ____
ROOT
ATOM      1  N   LIG    1        1.248   6.162   2.219  0.00  0.00    -0.410 N 
ATOM      2  C   LIG    1        2.349   5.743   1.519  0.00  0.00    +0.200 A 
ATOM      3  N   LIG    1        3.401   6.117   2.192  0.00  0.00    -0.270 NA
ATOM      4  N   LIG    1        3.046   6.734   3.261  0.00  0.00    -0.250 NA
ATOM      5  C   LIG    1        1.736   6.789   3.333  0.00  0.00    +0.140 A 
ENDROOT
BRANCH   1  10
ATOM      6  C   LIG    1       -4.199   5.438   0.799  0.00  0.00    +0.100 C 
ATOM      7  C   LIG    1       -2.753   5.630   1.176  0.00  0.00    -0.060 A 
ATOM      8  C   LIG    1       -2.071   4.622   1.833  0.00  0.00    +0.020 A 
ATOM      9  C   LIG    1       -0.744   4.794   2.175  0.00  0.00    +0.040 A 
ATOM     10  C   LIG    1       -0.098   5.983   1.868  0.00  0.00    +0.080 A 
ATOM     11  C   LIG    1       -0.784   6.993   1.208  0.00  0.00    -0.050 A 
ATOM     12  C   LIG    1       -0.084   8.284   0.868  0.00  0.00    +0.100 C 
ATOM     13  C   LIG    1       -2.110   6.814   0.864  0.00  0.00    +0.030 A 
ENDBRANCH   1  10
BRANCH   2  14
ATOM     14  C   LIG    1        2.344   4.995   0.212  0.00  0.00    +0.210 C 
BRANCH  14  15
ATOM     15  C   LIG    1        2.495   5.971  -0.927  0.00  0.00    -0.070 A 
ATOM     16  C   LIG    1        1.399   6.401  -1.609  0.00  0.00    +0.010 A 
ATOM     17  C   LIG    1        1.519   7.303  -2.664  0.00  0.00    +0.000 A 
ATOM     18  C   LIG    1        2.736   7.780  -3.044  0.00  0.00    +0.030 A 
ATOM     19  C   LIG    1        3.891   7.358  -2.363  0.00  0.00    -0.050 A 
ATOM     20  C   LIG    1        5.165   7.827  -2.727  0.00  0.00    +0.020 A 
ATOM     21  C   LIG    1        6.262   7.392  -2.049  0.00  0.00    +0.010 A 
ATOM     22  C   LIG    1        6.141   6.495  -0.989  0.00  0.00    +0.010 A 
ATOM     23  C   LIG    1        4.924   6.019  -0.609  0.00  0.00    +0.040 A 
ATOM     24  C   LIG    1        3.769   6.441  -1.289  0.00  0.00    -0.040 A 
ENDBRANCH  14  15
ENDBRANCH   2  14
BRANCH   5  25
ATOM     25  S   LIG    1        0.787   7.535   4.616  0.00  0.00    +0.060 S 
BRANCH  25  26
ATOM     26  C   LIG    1        2.119   8.133   5.686  0.00  0.00    -0.020 C 
ATOM     27  C   LIG    1        1.535   8.889   6.900  0.00  0.00    +0.080 C 
ATOM     28  C   LIG    1        2.352   8.301   8.073  0.00  0.00    +0.270 C 
ATOM     29  O   LIG    1        2.738   6.971   7.617  0.00  0.00    -0.340 OA
ATOM     30  C   LIG    1        2.878   6.968   6.283  0.00  0.00    +0.480 C 
ATOM     31  O   LIG    1        3.514   6.157   5.653  0.00  0.00    -0.400 OA
ENDBRANCH  25  26
ENDBRANCH   5  25
TORSDOF 5
