REMARK  Name = ZINCrD000000gVlr.0
REMARK                            x       y       z     vdW  Elec       q    Type
REMARK                         _______ _______ _______ _____ _____    ______ ____
ROOT
ATOM      1  N   LIG    1        4.349   5.018   0.088  0.00  0.00    -0.660 N 
ATOM      2  H   LIG    1        3.828   4.438   0.665  0.00  0.00    +0.410 HD
ATOM      3  C   LIG    1        5.367   4.511  -0.635  0.00  0.00    +0.560 C 
ATOM      4  O   LIG    1        6.070   5.250  -1.297  0.00  0.00    -0.480 OA
ENDROOT
BRANCH   1   9
ATOM      5  C   LIG    1        4.706  10.821  -0.397  0.00  0.00    +0.260 A 
ATOM      6  N   LIG    1        5.499   9.792  -0.383  0.00  0.00    -0.470 NA
ATOM      7  C   LIG    1        4.752   8.665  -0.232  0.00  0.00    +0.040 A 
ATOM      8  C   LIG    1        5.061   7.307  -0.146  0.00  0.00    +0.090 A 
ATOM      9  C   LIG    1        4.044   6.382   0.007  0.00  0.00    +0.150 A 
ATOM     10  C   LIG    1        2.719   6.802   0.085  0.00  0.00    +0.030 A 
ATOM     11  C   LIG    1        2.405   8.142   0.006  0.00  0.00    +0.070 A 
ATOM     12  C   LIG    1        3.414   9.081  -0.152  0.00  0.00    -0.010 A 
ATOM     13  O   LIG    1        3.430  10.428  -0.260  0.00  0.00    -0.210 OA
BRANCH   5  15
ATOM     14  C   LIG    1        5.888  12.419  -1.881  0.00  0.00    +0.070 C 
ATOM     15  C   LIG    1        5.155  12.252  -0.548  0.00  0.00    +0.030 C 
ATOM     16  C   LIG    1        6.097  12.615   0.602  0.00  0.00    +0.070 C 
ATOM     17  C   LIG    1        3.935  13.175  -0.518  0.00  0.00    +0.050 C 
ENDBRANCH   5  15
ENDBRANCH   1   9
BRANCH   3  18
ATOM     18  C   LIG    1        5.630   3.058  -0.622  0.00  0.00    -0.120 A 
ATOM     19  C   LIG    1        5.818   2.389   0.589  0.00  0.00    +0.070 A 
ATOM     20  C   LIG    1        6.069   1.033   0.594  0.00  0.00    +0.030 A 
ATOM     21  C   LIG    1        6.130   0.330  -0.597  0.00  0.00    +0.080 A 
ATOM     22  C   LIG    1        5.939   0.978  -1.802  0.00  0.00    +0.010 A 
ATOM     23  C   LIG    1        5.686   2.341  -1.826  0.00  0.00    +0.180 A 
BRANCH  23  24
ATOM     24  N   LIG    1        5.494   2.999  -3.045  0.00  0.00    -0.340 N 
ATOM     25  C   LIG    1        5.633   2.484  -4.287  0.00  0.00    +0.470 A 
ATOM     26  N   LIG    1        5.364   3.440  -5.136  0.00  0.00    -0.330 NA
ATOM     27  N   LIG    1        5.056   4.523  -4.516  0.00  0.00    -0.030 NA
ATOM     28  N   LIG    1        5.115   4.339  -3.242  0.00  0.00    -0.040 NA
ENDBRANCH  23  24
ENDBRANCH   3  18
TORSDOF 4
