REMARK  Name = ZINCpk00000ebfgO.0
REMARK                            x       y       z     vdW  Elec       q    Type
REMARK                         _______ _______ _______ _____ _____    ______ ____
ROOT
ATOM      1  N   LIG    1       -1.182   8.487   1.825  0.00  0.00    -0.550 NA
ATOM      2  C   LIG    1       -1.823   7.195   2.067  0.00  0.00    +0.190 C 
ATOM      3  C   LIG    1       -2.562   6.768   0.818  0.00  0.00    +0.030 C 
ATOM      4  C   LIG    1       -1.643   5.893  -0.058  0.00  0.00    +0.260 C 
ATOM      5  N   LIG    1       -0.262   6.413  -0.065  0.00  0.00    -0.600 N 
ATOM      6  C   LIG    1        0.037   7.827  -0.168  0.00  0.00    +0.300 C 
ATOM      7  C   LIG    1        0.760   5.539   0.023  0.00  0.00    +0.560 C 
ATOM      8  O   LIG    1        1.902   5.947   0.120  0.00  0.00    -0.530 OA
ATOM      9  C   LIG    1        0.109   8.449   1.248  0.00  0.00    +0.170 C 
ENDROOT
BRANCH   7  10
ATOM     10  C   LIG    1        0.494   4.087   0.001  0.00  0.00    -0.120 A 
ATOM     11  C   LIG    1       -0.482   3.567  -0.852  0.00  0.00    +0.070 A 
ATOM     12  C   LIG    1       -0.726   2.211  -0.874  0.00  0.00    +0.040 A 
ATOM     13  C   LIG    1       -0.011   1.359  -0.043  0.00  0.00    +0.060 A 
ATOM     14  O   LIG    1       -0.066   0.006   0.122  0.00  0.00    -0.300 OA
ATOM     15  C   LIG    1        0.594  -0.256   1.374  0.00  0.00    +0.440 C 
ATOM     16  O   LIG    1        1.520   0.838   1.510  0.00  0.00    -0.300 OA
ATOM     17  C   LIG    1        0.965   1.872   0.811  0.00  0.00    +0.030 A 
ATOM     18  C   LIG    1        1.218   3.230   0.835  0.00  0.00    +0.090 A 
ENDBRANCH   7  10
BRANCH   1  19
ATOM     19  C   LIG    1       -1.192   9.315   3.039  0.00  0.00    +0.300 C 
BRANCH  19  23
ATOM     20  C   LIG    1        2.716   8.005   5.890  0.00  0.00    +0.360 C 
ATOM     21  N   LIG    1        1.363   8.095   5.337  0.00  0.00    -0.370 N 
ATOM     22  C   LIG    1        0.981   8.861   4.295  0.00  0.00    +0.240 A 
ATOM     23  C   LIG    1       -0.343   8.661   4.099  0.00  0.00    -0.280 A 
ATOM     24  C   LIG    1       -0.787   7.746   5.059  0.00  0.00    +0.240 A 
ATOM     25  N   LIG    1        0.236   7.401   5.798  0.00  0.00    -0.300 NA
ENDBRANCH  19  23
ENDBRANCH   1  19
TORSDOF 3
