REMARK  Name = ZINCrD000001WnlM.0
REMARK                            x       y       z     vdW  Elec       q    Type
REMARK                         _______ _______ _______ _____ _____    ______ ____
ROOT
ATOM      1  C   LIG    1       -1.695   0.707  -1.830  0.00  0.00    +0.340 A 
ATOM      2  N   LIG    1       -2.160   1.427  -2.824  0.00  0.00    -0.310 NA
ATOM      3  N   LIG    1       -1.552   2.559  -2.864  0.00  0.00    -0.290 NA
ATOM      4  C   LIG    1       -0.675   2.630  -1.903  0.00  0.00    +0.210 A 
ATOM      5  N   LIG    1       -0.737   1.454  -1.208  0.00  0.00    -0.460 N 
ENDROOT
BRANCH   1  12
ATOM      6  C   LIG    1       -1.855  -5.861  -1.184  0.00  0.00    -0.010 C 
ATOM      7  C   LIG    1       -2.200  -5.872  -2.684  0.00  0.00    +0.000 C 
ATOM      8  C   LIG    1       -3.452  -5.091  -2.982  0.00  0.00    +0.030 C 
ATOM      9  C   LIG    1       -3.046  -3.662  -3.381  0.00  0.00    +0.040 C 
ATOM     10  C   LIG    1       -2.767  -2.805  -2.233  0.00  0.00    +0.130 C 
ATOM     11  C   LIG    1       -2.401  -1.375  -2.668  0.00  0.00    +0.210 C 
ATOM     12  N   LIG    1       -2.102  -0.569  -1.477  0.00  0.00    -0.450 N 
ATOM     13  C   LIG    1       -3.260  -0.521  -0.572  0.00  0.00    +0.160 C 
ATOM     14  C   LIG    1       -3.643  -1.949  -0.171  0.00  0.00    +0.230 C 
ATOM     15  C   LIG    1       -1.583  -3.347  -1.395  0.00  0.00    +0.010 C 
ATOM     16  O   LIG    1       -3.899  -2.717  -1.348  0.00  0.00    -0.370 OA
ATOM     17  C   LIG    1       -2.067  -4.478  -0.533  0.00  0.00    +0.000 C 
ENDBRANCH   1  12
BRANCH   4  18
ATOM     18  C   LIG    1        0.238   3.793  -1.612  0.00  0.00    +0.200 C 
BRANCH  18  19
ATOM     19  C   LIG    1        1.548   3.619  -2.384  0.00  0.00    -0.040 C 
ATOM     20  C   LIG    1        2.831   3.449  -1.568  0.00  0.00    +0.000 C 
ATOM     21  C   LIG    1        2.566   4.759  -2.313  0.00  0.00    +0.030 C 
ENDBRANCH  18  19
ENDBRANCH   4  18
BRANCH   5  22
ATOM     22  C   LIG    1        0.063   1.073  -0.042  0.00  0.00    +0.320 C 
BRANCH  22  23
ATOM     23  C   LIG    1       -0.670   1.485   1.236  0.00  0.00    +0.130 C 
ATOM     24  C   LIG    1        0.106   0.985   2.470  0.00  0.00    +0.010 C 
ATOM     25  C   LIG    1        0.419   2.272   3.270  0.00  0.00    +0.010 C 
ATOM     26  C   LIG    1       -0.643   3.260   2.723  0.00  0.00    +0.210 C 
ATOM     27  O   LIG    1       -0.732   2.919   1.323  0.00  0.00    -0.370 OA
ENDBRANCH  22  23
ENDBRANCH   5  22
TORSDOF 5
