REMARK  Name = ZINCpk00000y6wZq.0
REMARK                            x       y       z     vdW  Elec       q    Type
REMARK                         _______ _______ _______ _____ _____    ______ ____
ROOT
ATOM      1  C   LIG    1        1.353   1.550  -0.003  0.00  0.00    +0.210 C 
ATOM      2  C   LIG    1        2.283   0.696  -0.895  0.00  0.00    +0.030 C 
ATOM      3  C   LIG    1        2.913  -0.291   0.063  0.00  0.00    +0.520 C 
ATOM      4  N   LIG    1        2.745   0.124   1.331  0.00  0.00    -0.590 N 
ATOM      5  O   LIG    1        3.486  -1.308  -0.265  0.00  0.00    -0.510 OA
ATOM      6  C   LIG    1        2.019   1.398   1.383  0.00  0.00    +0.340 C 
ENDROOT
BRANCH   6   7
ATOM      7  C   LIG    1        2.977   2.535   1.628  0.00  0.00    +0.060 A 
ATOM      8  C   LIG    1        2.658   3.756   2.117  0.00  0.00    -0.110 A 
ATOM      9  C   LIG    1        3.833   4.510   2.192  0.00  0.00    +0.240 A 
ATOM     10  N   LIG    1        4.821   3.772   1.756  0.00  0.00    -0.290 NA
ATOM     11  N   LIG    1        4.306   2.521   1.394  0.00  0.00    -0.350 N 
ATOM     12  C   LIG    1        5.074   1.395   0.856  0.00  0.00    +0.340 C 
ENDBRANCH   6   7
BRANCH   4  13
ATOM     13  C   LIG    1        3.226  -0.602   2.508  0.00  0.00    +0.200 C 
ATOM     14  C   LIG    1        4.140  -1.806   2.271  0.00  0.00    +0.040 C 
ATOM     15  C   LIG    1        2.696  -2.020   2.729  0.00  0.00    +0.020 C 
ENDBRANCH   4  13
BRANCH   1  16
ATOM     16  N   LIG    1       -0.012   1.005   0.008  0.00  0.00    -0.670 NA
ATOM     17  H   LIG    1        0.002  -0.004   0.002  0.00  0.00    +0.350 HD
BRANCH  16  18
ATOM     18  C   LIG    1       -0.795   1.527  -1.120  0.00  0.00    +0.270 C 
BRANCH  18  23
ATOM     19  C   LIG    1       -3.621  -0.779  -1.607  0.00  0.00    +0.320 A 
ATOM     20  C   LIG    1       -4.690  -0.122  -1.011  0.00  0.00    -0.050 A 
ATOM     21  C   LIG    1       -4.480   1.116  -0.430  0.00  0.00    +0.100 A 
ATOM     22  C   LIG    1       -3.201   1.656  -0.466  0.00  0.00    -0.050 A 
ATOM     23  C   LIG    1       -2.186   0.947  -1.076  0.00  0.00    +0.160 A 
ATOM     24  N   LIG    1       -2.418  -0.230  -1.626  0.00  0.00    -0.540 NA
BRANCH  19  26
ATOM     25  C   LIG    1       -2.676  -2.618  -2.777  0.00  0.00    +0.260 C 
ATOM     26  O   LIG    1       -3.814  -1.994  -2.181  0.00  0.00    -0.310 OA
ENDBRANCH  19  26
ENDBRANCH  18  23
ENDBRANCH  16  18
ENDBRANCH   1  16
TORSDOF 6
