REMARK  Name = ZINCpk00000xI9fQ.0
REMARK                            x       y       z     vdW  Elec       q    Type
REMARK                         _______ _______ _______ _____ _____    ______ ____
ROOT
ATOM      1  C   LIG    1       -0.078   2.260  -2.139  0.00  0.00    +0.570 C 
ATOM      2  N   LIG    1       -0.724   1.560  -1.185  0.00  0.00    -0.600 N 
ATOM      3  C   LIG    1       -2.162   1.284  -1.304  0.00  0.00    +0.260 C 
ATOM      4  C   LIG    1       -2.863   1.759  -0.028  0.00  0.00    +0.030 C 
ATOM      5  C   LIG    1       -2.196   1.110   1.187  0.00  0.00    +0.060 C 
ATOM      6  C   LIG    1       -0.725   1.536   1.256  0.00  0.00    +0.110 C 
ATOM      7  C   LIG    1       -0.003   1.058  -0.007  0.00  0.00    +0.290 C 
ATOM      8  O   LIG    1        1.087   2.571  -1.981  0.00  0.00    -0.520 OA
ENDROOT
BRANCH   1  15
ATOM      9  C   LIG    1       -0.819   3.993  -3.772  0.00  0.00    +0.110 A 
ATOM     10  C   LIG    1       -1.482   4.346  -4.941  0.00  0.00    +0.080 A 
ATOM     11  C   LIG    1       -2.113   3.378  -5.699  0.00  0.00    +0.030 A 
ATOM     12  C   LIG    1       -2.085   2.051  -5.304  0.00  0.00    +0.050 A 
ATOM     13  C   LIG    1       -1.427   1.682  -4.151  0.00  0.00    +0.050 A 
ATOM     14  F   LIG    1       -1.514   5.639  -5.333  0.00  0.00    -0.130 F 
ATOM     15  C   LIG    1       -0.784   2.650  -3.374  0.00  0.00    -0.120 A 
BRANCH   9  16
ATOM     16  O   LIG    1       -0.204   4.942  -3.023  0.00  0.00    -0.330 OA
BRANCH  16  18
ATOM     17  C   LIG    1        1.682   6.314  -2.389  0.00  0.00    +0.050 C 
ATOM     18  C   LIG    1        1.163   5.226  -3.331  0.00  0.00    +0.190 C 
ENDBRANCH  16  18
ENDBRANCH   9  16
ENDBRANCH   1  15
BRANCH   6  19
ATOM     19  O   LIG    1       -0.645   2.960   1.342  0.00  0.00    -0.540 OA
ATOM     20  H   LIG    1        0.259   3.302   1.383  0.00  0.00    +0.380 HD
ENDBRANCH   6  19
BRANCH   6  21
ATOM     21  C   LIG    1       -0.065   0.913   2.488  0.00  0.00    +0.320 C 
BRANCH  21  22
ATOM     22  N   LIG    1        1.342   1.318   2.546  0.00  0.00    -0.300 N 
ATOM     23  C   LIG    1        1.949   1.924   3.592  0.00  0.00    +0.140 A 
ATOM     24  C   LIG    1        3.237   2.116   3.221  0.00  0.00    +0.140 A 
ATOM     25  N   LIG    1        3.352   1.625   1.982  0.00  0.00    -0.260 NA
ATOM     26  N   LIG    1        2.213   1.154   1.613  0.00  0.00    -0.090 NA
ENDBRANCH  21  22
ENDBRANCH   6  21
TORSDOF 6
