REMARK  Name = ZINCrH000004rshU.1
REMARK                            x       y       z     vdW  Elec       q    Type
REMARK                         _______ _______ _______ _____ _____    ______ ____
ROOT
ATOM      1  C   LIG    1       -2.567   4.998   0.722  0.00  0.00    +0.520 C 
ATOM      2  N   LIG    1       -2.458   3.837   0.046  0.00  0.00    -0.660 N 
ATOM      3  H   LIG    1       -3.225   3.475  -0.424  0.00  0.00    +0.420 HD
ATOM      4  O   LIG    1       -1.589   5.492   1.242  0.00  0.00    -0.490 OA
ENDROOT
BRANCH   2   5
ATOM      5  C   LIG    1       -1.234   3.153   0.021  0.00  0.00    +0.180 A 
ATOM      6  C   LIG    1       -0.043   3.861   0.011  0.00  0.00    +0.040 A 
ATOM      7  C   LIG    1        1.164   3.184  -0.014  0.00  0.00    -0.020 A 
ATOM      8  C   LIG    1        1.185   1.801  -0.028  0.00  0.00    +0.030 A 
ATOM      9  C   LIG    1        0.000   1.088  -0.018  0.00  0.00    +0.030 A 
ATOM     10 CL   LIG    1        2.655   4.072  -0.026  0.00  0.00    -0.060 Cl
ATOM     11  C   LIG    1       -1.213   1.759   0.001  0.00  0.00    +0.070 A 
BRANCH  11  12
ATOM     12  N   LIG    1       -2.413   1.038   0.006  0.00  0.00    -0.500 N 
ATOM     13  C   LIG    1       -2.541   0.236   1.230  0.00  0.00    +0.190 C 
ATOM     14  C   LIG    1       -3.898  -0.472   1.233  0.00  0.00    +0.180 C 
ATOM     15  N   LIG    1       -4.008  -1.319   0.037  0.00  0.00    -0.550 NA
ATOM     16  C   LIG    1       -3.881  -0.517  -1.187  0.00  0.00    +0.180 C 
ATOM     17  C   LIG    1       -5.268  -2.075   0.042  0.00  0.00    +0.190 C 
ATOM     18  C   LIG    1       -2.524   0.191  -1.190  0.00  0.00    +0.190 C 
ENDBRANCH  11  12
ENDBRANCH   2   5
BRANCH   1  19
ATOM     19  C   LIG    1       -3.906   5.682   0.833  0.00  0.00    +0.250 C 
BRANCH  19  20
ATOM     20  O   LIG    1       -3.765   6.884   1.591  0.00  0.00    -0.290 OA
BRANCH  20  25
ATOM     21  C   LIG    1       -8.414   9.960   2.397  0.00  0.00    +0.090 C 
ATOM     22  C   LIG    1       -7.170   9.137   2.181  0.00  0.00    -0.120 A 
ATOM     23  C   LIG    1       -7.237   7.962   1.456  0.00  0.00    +0.050 A 
ATOM     24  C   LIG    1       -6.097   7.208   1.253  0.00  0.00    -0.080 A 
ATOM     25  C   LIG    1       -4.886   7.626   1.786  0.00  0.00    +0.130 A 
ATOM     26  C   LIG    1       -4.822   8.806   2.513  0.00  0.00    -0.010 A 
ATOM     27  C   LIG    1       -5.964   9.558   2.709  0.00  0.00    -0.050 A 
ATOM     28  C   LIG    1       -5.894  10.840   3.499  0.00  0.00    +0.100 C 
ENDBRANCH  20  25
ENDBRANCH  19  20
ENDBRANCH   1  19
TORSDOF 5
