REMARK  Name = ZINC9p0000002o0S.0
REMARK                            x       y       z     vdW  Elec       q    Type
REMARK                         _______ _______ _______ _____ _____    ______ ____
ROOT
ATOM      1  C   LIG    1       -2.164   1.050   1.278  0.00  0.00    +0.160 C 
ATOM      2  C   LIG    1       -2.923   1.627   2.484  0.00  0.00    +0.050 C 
ATOM      3  C   LIG    1       -4.369   1.634   2.301  0.00  0.00    +0.030 C 
ATOM      4  C   LIG    1       -4.912   0.195   2.114  0.00  0.00    +0.020 C 
ATOM      5  C   LIG    1       -4.581  -0.272   0.721  0.00  0.00    +0.060 C 
ATOM      6  C   LIG    1       -3.239  -1.020   0.628  0.00  0.00    +0.250 C 
ATOM      7  N   LIG    1       -2.154  -0.387   1.406  0.00  0.00    -0.500 N 
ATOM      8  H   LIG    1       -2.264  -0.631   2.379  0.00  0.00    +0.420 HD
ATOM      9  H   LIG    1       -1.266  -0.740   1.079  0.00  0.00    +0.420 HD
ENDROOT
BRANCH   1  11
ATOM     10  C   LIG    1       -0.013   1.086   0.008  0.00  0.00    +0.030 C 
ATOM     11  C   LIG    1       -0.729   1.579   1.267  0.00  0.00    +0.050 C 
ENDBRANCH   1  11
TORSDOF 1
