REMARK  Name = ZINCrH000004p84N.0
REMARK                            x       y       z     vdW  Elec       q    Type
REMARK                         _______ _______ _______ _____ _____    ______ ____
ROOT
ATOM      1  C   LIG    1       -3.871   9.519   0.434  0.00  0.00    +0.510 C 
ATOM      2  N   LIG    1       -2.688   8.908   0.226  0.00  0.00    -0.640 N 
ATOM      3  H   LIG    1       -1.878   9.434   0.146  0.00  0.00    +0.430 HD
ATOM      4  O   LIG    1       -4.896   8.868   0.452  0.00  0.00    -0.500 OA
ENDROOT
BRANCH   2   5
ATOM      5  C   LIG    1       -2.629   7.515   0.126  0.00  0.00    +0.150 A 
ATOM      6  C   LIG    1       -1.530   6.828   0.625  0.00  0.00    +0.000 A 
ATOM      7  C   LIG    1       -1.471   5.451   0.524  0.00  0.00    +0.050 A 
ATOM      8  C   LIG    1       -2.508   4.754  -0.065  0.00  0.00    +0.000 A 
ATOM      9  C   LIG    1       -3.607   5.436  -0.570  0.00  0.00    +0.110 A 
ATOM     10  C   LIG    1       -3.670   6.817  -0.472  0.00  0.00    +0.030 A 
BRANCH   9  11
ATOM     11  O   LIG    1       -4.623   4.749  -1.155  0.00  0.00    -0.250 OA
BRANCH  11  12
ATOM     12  C   LIG    1       -4.723   4.788  -2.507  0.00  0.00    +0.310 A 
ATOM     13  C   LIG    1       -5.683   4.016  -3.149  0.00  0.00    -0.040 A 
ATOM     14  C   LIG    1       -5.774   4.064  -4.529  0.00  0.00    +0.100 A 
ATOM     15  C   LIG    1       -4.897   4.887  -5.222  0.00  0.00    -0.070 A 
ATOM     16  C   LIG    1       -3.963   5.623  -4.519  0.00  0.00    +0.300 A 
ATOM     17  N   LIG    1       -3.904   5.560  -3.203  0.00  0.00    -0.530 NA
ENDBRANCH  11  12
ENDBRANCH   9  11
ENDBRANCH   2   5
BRANCH   1  20
ATOM     18  N   LIG    1       -5.105  11.608   0.852  0.00  0.00    -0.700 N 
ATOM     19  H   LIG    1       -5.923  11.088   0.866  0.00  0.00    +0.410 HD
ATOM     20  C   LIG    1       -3.922  10.997   0.644  0.00  0.00    +0.510 C 
ATOM     21  O   LIG    1       -2.897  11.647   0.626  0.00  0.00    -0.510 OA
BRANCH  18  22
ATOM     22  C   LIG    1       -5.154  13.058   1.057  0.00  0.00    +0.290 C 
BRANCH  22  24
ATOM     23  C   LIG    1       -7.137  12.883   2.567  0.00  0.00    +0.030 C 
ATOM     24  C   LIG    1       -6.605  13.493   1.269  0.00  0.00    +0.050 C 
BRANCH  24  25
ATOM     25  C   LIG    1       -6.670  14.996   1.358  0.00  0.00    -0.100 A 
ATOM     26  C   LIG    1       -6.019  15.689   2.293  0.00  0.00    -0.050 A 
ATOM     27  S   LIG    1       -6.332  17.407   2.081  0.00  0.00    +0.110 S 
ATOM     28  C   LIG    1       -7.361  17.078   0.693  0.00  0.00    -0.040 A 
ATOM     29  C   LIG    1       -7.407  15.763   0.471  0.00  0.00    +0.010 A 
ENDBRANCH  24  25
ENDBRANCH  22  24
ENDBRANCH  18  22
ENDBRANCH   1  20
TORSDOF 7
