REMARK  Name = ZINCtV000002sSMg.0
REMARK                            x       y       z     vdW  Elec       q    Type
REMARK                         _______ _______ _______ _____ _____    ______ ____
ROOT
ATOM      1  N   LIG    1        1.133   1.930   0.002  0.00  0.00    -0.480 N 
ATOM      2  C   LIG    1       -0.014   1.213   0.009  0.00  0.00    +0.550 A 
ATOM      3  C   LIG    1       -1.281   1.957   0.019  0.00  0.00    -0.200 A 
ATOM      4  C   LIG    1       -2.514   1.308   0.032  0.00  0.00    +0.100 A 
ATOM      5  C   LIG    1       -3.674   2.051   0.045  0.00  0.00    +0.000 A 
ATOM      6  C   LIG    1       -3.623   3.440   0.051  0.00  0.00    +0.070 A 
ATOM      7  C   LIG    1       -2.416   4.101   0.044  0.00  0.00    +0.030 A 
ATOM      8  C   LIG    1       -1.226   3.370   0.030  0.00  0.00    +0.160 A 
ATOM      9  N   LIG    1       -0.018   3.983   0.023  0.00  0.00    -0.530 NA
ATOM     10  O   LIG    1        0.002  -0.004   0.002  0.00  0.00    -0.490 OA
ATOM     11  C   LIG    1        1.098   3.297   0.009  0.00  0.00    +0.370 A 
ENDROOT
BRANCH   1  17
ATOM     12  C   LIG    1        2.991   0.931   1.181  0.00  0.00    -0.040 A 
ATOM     13  C   LIG    1        4.207   0.277   1.163  0.00  0.00    +0.020 A 
ATOM     14  C   LIG    1        4.804  -0.043  -0.043  0.00  0.00    +0.040 A 
ATOM     15  C   LIG    1        4.185   0.290  -1.233  0.00  0.00    +0.010 A 
ATOM     16  C   LIG    1        2.966   0.938  -1.222  0.00  0.00    +0.040 A 
ATOM     17  C   LIG    1        2.367   1.267  -0.013  0.00  0.00    +0.090 A 
BRANCH  12  19
ATOM     18  C   LIG    1        2.084  -0.001   3.293  0.00  0.00    +0.040 C 
ATOM     19  C   LIG    1        2.341   1.280   2.495  0.00  0.00    +0.010 C 
ATOM     20  C   LIG    1        3.267   2.200   3.293  0.00  0.00    +0.040 C 
ENDBRANCH  12  19
ENDBRANCH   1  17
BRANCH  11  21
ATOM     21  S   LIG    1        2.624   4.177   0.000  0.00  0.00    +0.020 S 
BRANCH  21  22
ATOM     22  C   LIG    1        2.006   5.878   0.015  0.00  0.00    +0.150 C 
BRANCH  22  23
ATOM     23  C   LIG    1        3.170   6.836   0.009  0.00  0.00    -0.080 A 
ATOM     24  C   LIG    1        3.711   7.273   1.204  0.00  0.00    +0.050 A 
ATOM     25  C   LIG    1        4.782   8.147   1.200  0.00  0.00    +0.030 A 
ATOM     26  C   LIG    1        5.305   8.593  -0.001  0.00  0.00    -0.030 A 
ATOM     27  C   LIG    1        4.760   8.160  -1.196  0.00  0.00    +0.030 A 
ATOM     28 CL   LIG    1        6.645   9.697  -0.007  0.00  0.00    -0.060 Cl
ATOM     29  C   LIG    1        3.693   7.281  -1.191  0.00  0.00    +0.050 A 
ENDBRANCH  22  23
ENDBRANCH  21  22
ENDBRANCH  11  21
TORSDOF 5
