REMARK  Name = ZINCpe00000RahPk.0
REMARK                            x       y       z     vdW  Elec       q    Type
REMARK                         _______ _______ _______ _____ _____    ______ ____
ROOT
ATOM      1  C   LIG    1       -0.731   1.580   1.266  0.00  0.00    +0.290 C 
ATOM      2  C   LIG    1       -0.013   1.086   0.008  0.00  0.00    +0.200 C 
ATOM      3  N   LIG    1       -0.725   1.574  -1.182  0.00  0.00    -0.530 NA
ATOM      4  C   LIG    1       -0.792   3.042  -1.183  0.00  0.00    +0.160 C 
ATOM      5  C   LIG    1       -1.503   3.517   0.086  0.00  0.00    +0.250 C 
ATOM      6  O   LIG    1       -0.815   3.008   1.231  0.00  0.00    -0.390 OA
ENDROOT
BRANCH   1  11
ATOM      7  C   LIG    1        1.806   1.576   5.635  0.00  0.00    +0.200 C 
ATOM      8  C   LIG    1        1.127   1.148   4.359  0.00  0.00    +0.180 A 
ATOM      9  N   LIG    1        1.038  -0.071   3.902  0.00  0.00    -0.290 NA
ATOM     10  N   LIG    1        0.391  -0.070   2.790  0.00  0.00    -0.280 NA
ATOM     11  C   LIG    1        0.040   1.150   2.488  0.00  0.00    +0.180 A 
ATOM     12  N   LIG    1        0.501   1.959   3.472  0.00  0.00    -0.560 N 
ATOM     13  H   LIG    1        0.401   2.922   3.531  0.00  0.00    +0.430 HD
ENDBRANCH   1  11
BRANCH   3  14
ATOM     14  C   LIG    1       -0.099   1.073  -2.413  0.00  0.00    +0.180 C 
BRANCH  14  15
ATOM     15  C   LIG    1       -1.000   1.389  -3.608  0.00  0.00    +0.310 C 
BRANCH  15  16
ATOM     16  N   LIG    1       -0.376   0.890  -4.836  0.00  0.00    -0.550 N 
ATOM     17  C   LIG    1       -0.638  -0.374  -5.259  0.00  0.00    +0.580 A 
ATOM     18  N   LIG    1       -0.124  -0.889  -6.334  0.00  0.00    -0.520 NA
ATOM     19  C   LIG    1        0.726  -0.185  -7.123  0.00  0.00    +0.150 A 
ATOM     20  C   LIG    1        1.279  -0.737  -8.280  0.00  0.00    +0.030 A 
ATOM     21  C   LIG    1        2.136   0.015  -9.052  0.00  0.00    +0.070 A 
ATOM     22  C   LIG    1        2.459   1.317  -8.694  0.00  0.00    -0.010 A 
ATOM     23  C   LIG    1        1.926   1.884  -7.557  0.00  0.00    +0.100 A 
ATOM     24  C   LIG    1        1.057   1.141  -6.762  0.00  0.00    -0.200 A 
ATOM     25  C   LIG    1        0.453   1.694  -5.541  0.00  0.00    +0.550 A 
ATOM     26  O   LIG    1        0.693   2.831  -5.176  0.00  0.00    -0.510 OA
ENDBRANCH  15  16
ENDBRANCH  14  15
ENDBRANCH   3  14
TORSDOF 4
