REMARK  Name = ZINCpe00000RahPk.1
REMARK                            x       y       z     vdW  Elec       q    Type
REMARK                         _______ _______ _______ _____ _____    ______ ____
ROOT
ATOM      1  C   LIG    1       -1.504   3.518  -0.017  0.00  0.00    +0.290 C 
ATOM      2  C   LIG    1       -0.769   3.029   1.235  0.00  0.00    +0.170 C 
ATOM      3  N   LIG    1       -0.703   1.561   1.216  0.00  0.00    -0.520 NA
ATOM      4  C   LIG    1       -0.013   1.086   0.008  0.00  0.00    +0.160 C 
ATOM      5  C   LIG    1       -0.755   1.594  -1.231  0.00  0.00    +0.250 C 
ATOM      6  O   LIG    1       -0.837   3.021  -1.180  0.00  0.00    -0.370 OA
ENDROOT
BRANCH   1  10
ATOM      7  C   LIG    1       -3.116   8.245   0.342  0.00  0.00    +0.200 C 
ATOM      8  C   LIG    1       -2.213   7.061   0.115  0.00  0.00    +0.290 A 
ATOM      9  N   LIG    1       -2.554   5.802   0.226  0.00  0.00    -0.530 NA
ATOM     10  C   LIG    1       -1.506   5.025  -0.043  0.00  0.00    +0.230 A 
ATOM     11  N   LIG    1       -0.481   5.780  -0.338  0.00  0.00    -0.290 NA
ATOM     12  N   LIG    1       -0.918   7.112  -0.242  0.00  0.00    -0.480 N 
ATOM     13  H   LIG    1       -0.390   7.910  -0.402  0.00  0.00    +0.440 HD
ENDBRANCH   1  10
BRANCH   3  14
ATOM     14  C   LIG    1       -0.053   1.047   2.430  0.00  0.00    +0.220 C 
BRANCH  14  15
ATOM     15  C   LIG    1        1.349   1.648   2.551  0.00  0.00    +0.250 C 
BRANCH  15  16
ATOM     16  N   LIG    1        1.997   1.136   3.761  0.00  0.00    -0.540 N 
ATOM     17  C   LIG    1        1.859   1.808   4.934  0.00  0.00    +0.570 A 
ATOM     18  N   LIG    1        2.397   1.416   6.049  0.00  0.00    -0.520 NA
ATOM     19  C   LIG    1        3.157   0.294   6.116  0.00  0.00    +0.150 A 
ATOM     20  C   LIG    1        3.741  -0.124   7.313  0.00  0.00    +0.030 A 
ATOM     21  C   LIG    1        4.506  -1.269   7.335  0.00  0.00    +0.070 A 
ATOM     22  C   LIG    1        4.704  -2.014   6.180  0.00  0.00    +0.000 A 
ATOM     23  C   LIG    1        4.138  -1.621   4.987  0.00  0.00    +0.100 A 
ATOM     24  C   LIG    1        3.361  -0.466   4.943  0.00  0.00    -0.200 A 
ATOM     25  C   LIG    1        2.733   0.002   3.699  0.00  0.00    +0.550 A 
ATOM     26  O   LIG    1        2.869  -0.607   2.653  0.00  0.00    -0.510 OA
ENDBRANCH  15  16
ENDBRANCH  14  15
ENDBRANCH   3  14
TORSDOF 4
