REMARK  Name = ZINCqH0000005ja6.0
REMARK                            x       y       z     vdW  Elec       q    Type
REMARK                         _______ _______ _______ _____ _____    ______ ____
ROOT
ATOM      1  C   LIG    1        0.744   1.904   0.103  0.00  0.00    +0.200 A 
ATOM      2  N   LIG    1       -0.553   1.790   0.249  0.00  0.00    -0.450 NA
ATOM      3  C   LIG    1       -0.802   0.461   0.257  0.00  0.00    +0.200 A 
ATOM      4  N   LIG    1        0.346  -0.148   0.115  0.00  0.00    -0.360 NA
ATOM      5  O   LIG    1        1.242   0.666   0.026  0.00  0.00    +0.090 OA
ENDROOT
BRANCH   3   6
ATOM      6  C   LIG    1       -2.131  -0.186   0.397  0.00  0.00    +0.030 A 
ATOM      7  C   LIG    1       -3.275   0.595   0.546  0.00  0.00    +0.090 A 
ATOM      8  C   LIG    1       -4.509  -0.012   0.671  0.00  0.00    +0.110 A 
ATOM      9  C   LIG    1       -4.609  -1.391   0.660  0.00  0.00    -0.030 A 
ATOM     10  C   LIG    1       -3.475  -2.171   0.518  0.00  0.00    +0.110 A 
ATOM     11  C   LIG    1       -2.237  -1.575   0.387  0.00  0.00    +0.070 A 
BRANCH   9  12
ATOM     12  N   LIG    1       -5.934  -2.036   0.801  0.00  0.00    +0.020 N 
ATOM     13  O   LIG    1       -6.934  -1.352   0.926  0.00  0.00    -0.150 OA
ATOM     14  O   LIG    1       -6.024  -3.251   0.792  0.00  0.00    -0.150 OA
ENDBRANCH   9  12
ENDBRANCH   3   6
BRANCH   1  15
ATOM     15  C   LIG    1        1.527   3.189   0.034  0.00  0.00    +0.340 C 
BRANCH  15  17
ATOM     16  C   LIG    1        3.047   2.748   1.866  0.00  0.00    +0.200 C 
ATOM     17  N   LIG    1        1.939   3.585   1.387  0.00  0.00    -0.530 NA
BRANCH  17  18
ATOM     18  C   LIG    1        2.296   5.009   1.433  0.00  0.00    +0.240 C 
ATOM     19  C   LIG    1        3.314   5.342   0.322  0.00  0.00    +0.000 C 
ATOM     20  C   LIG    1        2.907   6.775  -0.083  0.00  0.00    +0.080 C 
ATOM     21  C   LIG    1        1.436   6.880   0.259  0.00  0.00    -0.090 A 
ATOM     22  C   LIG    1        0.480   7.790  -0.159  0.00  0.00    +0.010 A 
ATOM     23  C   LIG    1       -0.821   7.688   0.292  0.00  0.00    +0.010 A 
ATOM     24  C   LIG    1       -1.172   6.674   1.163  0.00  0.00    +0.000 A 
ATOM     25  C   LIG    1       -0.220   5.764   1.581  0.00  0.00    +0.040 A 
ATOM     26  C   LIG    1        1.085   5.865   1.130  0.00  0.00    -0.100 A 
ENDBRANCH  17  18
ENDBRANCH  15  17
ENDBRANCH   1  15
TORSDOF 5
