REMARK  Name = ZINCbw0000000Hmb.0
REMARK                            x       y       z     vdW  Elec       q    Type
REMARK                         _______ _______ _______ _____ _____    ______ ____
ROOT
ATOM      1  C   LIG    1        0.002  -0.004   0.002  0.00  0.00    +0.130 A 
ATOM      2  C   LIG    1       -0.017   1.383   0.010  0.00  0.00    -0.020 A 
ATOM      3  C   LIG    1        1.171   2.089   0.002  0.00  0.00    +0.050 A 
ATOM      4  C   LIG    1        2.377   1.414  -0.013  0.00  0.00    -0.040 A 
ATOM      5  C   LIG    1        2.399   0.031  -0.021  0.00  0.00    +0.050 A 
ATOM      6  C   LIG    1        1.214  -0.679  -0.013  0.00  0.00    -0.080 A 
ENDROOT
BRANCH   1   7
ATOM      7  O   LIG    1       -1.165  -0.701   0.010  0.00  0.00    -0.310 OA
BRANCH   7   8
ATOM      8  C   LIG    1       -1.069  -2.126   0.001  0.00  0.00    +0.200 C 
BRANCH   8   9
ATOM      9  C   LIG    1       -2.474  -2.732   0.012  0.00  0.00    +0.050 C 
BRANCH   9  11
ATOM     10 CL   LIG    1       -4.028  -4.972   0.015  0.00  0.00    -0.170 Cl
ATOM     11  C   LIG    1       -2.372  -4.258   0.003  0.00  0.00    +0.170 C 
ENDBRANCH   9  11
ENDBRANCH   8   9
ENDBRANCH   7   8
ENDBRANCH   1   7
TORSDOF 4
