REMARK  Name = ZINCvU00000004ys.0
REMARK                            x       y       z     vdW  Elec       q    Type
REMARK                         _______ _______ _______ _____ _____    ______ ____
ROOT
ATOM      1  C   LIG    1        1.236  -0.614  -0.226  0.00  0.00    +0.130 A 
ATOM      2  C   LIG    1        2.414   0.113  -0.256  0.00  0.00    +0.100 A 
ATOM      3  C   LIG    1        2.378   1.498  -0.087  0.00  0.00    +0.000 A 
ATOM      4  C   LIG    1        1.157   2.141   0.112  0.00  0.00    +0.030 A 
ATOM      5  C   LIG    1       -0.013   1.409   0.141  0.00  0.00    +0.030 A 
ATOM      6  C   LIG    1        0.021   0.036  -0.027  0.00  0.00    +0.080 A 
ATOM      7  F   LIG    1       -1.127  -0.675   0.003  0.00  0.00    -0.130 F 
ENDROOT
BRANCH   3   8
ATOM      8  C   LIG    1        3.633   2.280  -0.118  0.00  0.00    +0.210 A 
ATOM      9  N   LIG    1        4.853   1.815   0.046  0.00  0.00    -0.260 NA
ATOM     10  N   LIG    1        5.703   2.777  -0.051  0.00  0.00    -0.290 NA
ATOM     11  C   LIG    1        5.080   3.898  -0.283  0.00  0.00    +0.190 A 
ATOM     12  C   LIG    1        5.697   5.258  -0.482  0.00  0.00    +0.160 C 
ATOM     13  C   LIG    1        4.935   6.282   0.365  0.00  0.00    +0.030 C 
ATOM     14  C   LIG    1        3.760   6.836  -0.435  0.00  0.00    +0.020 C 
ATOM     15  C   LIG    1        3.187   5.764  -1.360  0.00  0.00    +0.030 C 
ATOM     16  C   LIG    1        2.667   4.588  -0.528  0.00  0.00    +0.280 C 
ATOM     17  N   LIG    1        3.749   3.624  -0.329  0.00  0.00    -0.470 N 
ENDBRANCH   3   8
BRANCH   1  19
ATOM     18  C   LIG    1        2.385  -2.695  -0.100  0.00  0.00    +0.520 C 
ATOM     19  N   LIG    1        1.266  -2.004  -0.396  0.00  0.00    -0.660 N 
ATOM     20  H   LIG    1        0.482  -2.470  -0.726  0.00  0.00    +0.420 HD
ATOM     21  O   LIG    1        3.332  -2.129   0.405  0.00  0.00    -0.470 OA
BRANCH  18  23
ATOM     22  C   LIG    1        2.396  -4.391  -1.909  0.00  0.00    +0.060 C 
ATOM     23  C   LIG    1        2.461  -4.170  -0.396  0.00  0.00    +0.180 C 
BRANCH  23  24
ATOM     24  O   LIG    1        3.689  -4.696   0.109  0.00  0.00    -0.270 OA
BRANCH  24  25
ATOM     25  C   LIG    1        3.721  -6.025   0.396  0.00  0.00    +0.150 A 
ATOM     26  C   LIG    1        2.568  -6.786   0.285  0.00  0.00    -0.030 A 
ATOM     27  C   LIG    1        2.602  -8.137   0.576  0.00  0.00    +0.060 A 
ATOM     28  C   LIG    1        3.786  -8.730   0.978  0.00  0.00    +0.070 A 
ATOM     29  C   LIG    1        4.939  -7.971   1.090  0.00  0.00    +0.060 A 
ATOM     30  F   LIG    1        3.817 -10.050   1.262  0.00  0.00    -0.130 F 
ATOM     31  C   LIG    1        4.910  -6.621   0.794  0.00  0.00    -0.100 A 
ATOM     32 BR   LIG    1        6.486  -5.587   0.938  0.00  0.00    -0.010 Br
ENDBRANCH  24  25
ENDBRANCH  23  24
ENDBRANCH  18  23
ENDBRANCH   1  19
TORSDOF 5
