REMARK  Name = ZINCpe00000MJLf8.0
REMARK                            x       y       z     vdW  Elec       q    Type
REMARK                         _______ _______ _______ _____ _____    ______ ____
ROOT
ATOM      1  N   LIG    1        2.407   1.107  -0.015  0.00  0.00    -0.580 N 
ATOM      2  C   LIG    1        2.435  -0.358   0.094  0.00  0.00    +0.290 C 
ATOM      3  C   LIG    1        3.242  -0.920  -1.086  0.00  0.00    +0.020 C 
ATOM      4  C   LIG    1        4.625  -0.265  -1.108  0.00  0.00    +0.030 C 
ATOM      5  C   LIG    1        4.473   1.245  -1.305  0.00  0.00    +0.080 C 
ATOM      6  C   LIG    1        3.680   1.831  -0.133  0.00  0.00    +0.300 C 
ENDROOT
BRANCH   1  13
ATOM      7  C   LIG    1       -0.333   5.103  -0.364  0.00  0.00    +0.210 A 
ATOM      8  N   LIG    1       -1.634   5.211  -0.248  0.00  0.00    -0.260 NA
ATOM      9  N   LIG    1       -2.156   4.058  -0.013  0.00  0.00    -0.250 NA
ATOM     10  C   LIG    1       -1.198   3.146   0.032  0.00  0.00    +0.110 A 
ATOM     11  C   LIG    1       -1.187   1.755   0.245  0.00  0.00    +0.190 A 
ATOM     12  C   LIG    1       -0.000   1.093   0.234  0.00  0.00    -0.030 A 
ATOM     13  C   LIG    1        1.198   1.796   0.000  0.00  0.00    +0.420 A 
ATOM     14  N   LIG    1        1.189   3.092  -0.203  0.00  0.00    -0.340 NA
ATOM     15  N   LIG    1       -0.013   3.803  -0.192  0.00  0.00    -0.270 N 
BRANCH   7  17
ATOM     16  C   LIG    1        0.813   6.384  -2.151  0.00  0.00    +0.030 C 
ATOM     17  C   LIG    1        0.632   6.227  -0.640  0.00  0.00    +0.160 C 
ENDBRANCH   7  17
ENDBRANCH   1  13
BRANCH   5  18
ATOM     18  C   LIG    1        5.837   1.885  -1.359  0.00  0.00    +0.030 A 
ATOM     19  N   LIG    1        6.178   2.910  -2.098  0.00  0.00    -0.250 NA
ATOM     20  N   LIG    1        7.412   3.216  -1.915  0.00  0.00    -0.380 N 
ATOM     21  H   LIG    1        7.878   3.943  -2.356  0.00  0.00    +0.450 HD
ATOM     22  C   LIG    1        7.968   2.359  -1.009  0.00  0.00    -0.040 A 
ATOM     23  C   LIG    1        6.962   1.485  -0.635  0.00  0.00    +0.030 A 
BRANCH  22  24
ATOM     24  C   LIG    1        9.359   2.363  -0.527  0.00  0.00    +0.600 C 
ATOM     25  O   LIG    1        9.723   1.535   0.286  0.00  0.00    -0.520 OA
ATOM     26  N   LIG    1       10.229   3.283  -0.988  0.00  0.00    -0.850 N 
ATOM     27  H   LIG    1       11.145   3.286  -0.671  0.00  0.00    +0.410 HD
ATOM     28  H   LIG    1        9.938   3.943  -1.637  0.00  0.00    +0.400 HD
ENDBRANCH  22  24
ENDBRANCH   5  18
TORSDOF 4
