REMARK  Name = ZINCpk000000mXu0.0
REMARK                            x       y       z     vdW  Elec       q    Type
REMARK                         _______ _______ _______ _____ _____    ______ ____
ROOT
ATOM      1  C   LIG    1       -0.759   1.599  -1.229  0.00  0.00    +0.220 C 
ATOM      2  C   LIG    1       -2.228   1.178  -1.145  0.00  0.00    +0.020 C 
ATOM      3  C   LIG    1       -2.868   1.800   0.098  0.00  0.00    +0.020 C 
ATOM      4  C   LIG    1       -2.146   1.291   1.349  0.00  0.00    +0.260 C 
ATOM      5  N   LIG    1       -0.706   1.564   1.212  0.00  0.00    -0.630 N 
ATOM      6  C   LIG    1       -0.037   2.238   2.168  0.00  0.00    +0.710 C 
ATOM      7  N   LIG    1       -0.703   2.756   3.219  0.00  0.00    -0.740 N 
ATOM      8  H   LIG    1       -1.651   2.582   3.325  0.00  0.00    +0.400 HD
ATOM      9  O   LIG    1        1.168   2.378   2.083  0.00  0.00    -0.580 OA
ATOM     10  C   LIG    1       -0.013   1.088   0.007  0.00  0.00    +0.290 C 
ENDROOT
BRANCH   1  13
ATOM     11  C   LIG    1        1.539   1.034  -4.239  0.00  0.00    +0.100 C 
ATOM     12  C   LIG    1        0.917   1.621  -2.998  0.00  0.00    +0.510 C 
ATOM     13  N   LIG    1       -0.155   1.029  -2.436  0.00  0.00    -0.730 N 
ATOM     14  H   LIG    1       -0.527   0.225  -2.830  0.00  0.00    +0.400 HD
ATOM     15  O   LIG    1        1.382   2.627  -2.504  0.00  0.00    -0.540 OA
ENDBRANCH   1  13
BRANCH   7  16
ATOM     16  C   LIG    1        0.005   3.583   4.199  0.00  0.00    +0.340 C 
BRANCH  16  17
ATOM     17  C   LIG    1       -0.960   4.035   5.265  0.00  0.00    -0.040 A 
ATOM     18  C   LIG    1       -1.163   3.273   6.408  0.00  0.00    -0.040 A 
ATOM     19  C   LIG    1       -2.053   3.715   7.366  0.00  0.00    +0.290 A 
ATOM     20  N   LIG    1       -2.709   4.849   7.208  0.00  0.00    -0.510 NA
ATOM     21  C   LIG    1       -2.543   5.603   6.133  0.00  0.00    +0.300 A 
ATOM     22  C   LIG    1       -1.658   5.221   5.130  0.00  0.00    -0.020 A 
BRANCH  21  23
ATOM     23  N   LIG    1       -3.255   6.791   6.008  0.00  0.00    -0.460 N 
ATOM     24  C   LIG    1       -4.159   6.747   4.830  0.00  0.00    +0.180 C 
ATOM     25  C   LIG    1       -5.201   7.851   5.143  0.00  0.00    +0.040 C 
ATOM     26  C   LIG    1       -5.400   7.716   6.670  0.00  0.00    +0.020 C 
ATOM     27  C   LIG    1       -4.130   7.010   7.180  0.00  0.00    +0.200 C 
ENDBRANCH  21  23
ENDBRANCH  16  17
ENDBRANCH   7  16
TORSDOF 4
