REMARK  Name = ZINCrD0000073BMs.0
REMARK                            x       y       z     vdW  Elec       q    Type
REMARK                         _______ _______ _______ _____ _____    ______ ____
ROOT
ATOM      1  N   LIG    1       -7.597   0.931  -0.709  0.00  0.00    -0.630 N 
ATOM      2  H   LIG    1       -6.949   0.228  -0.871  0.00  0.00    +0.430 HD
ATOM      3  C   LIG    1       -7.197   2.217  -0.650  0.00  0.00    +0.520 C 
ATOM      4  O   LIG    1       -8.007   3.096  -0.449  0.00  0.00    -0.460 OA
ENDROOT
BRANCH   1  10
ATOM      5  C   LIG    1      -13.589  -0.300   0.070  0.00  0.00    +0.140 A 
ATOM      6  C   LIG    1      -13.518   1.084   0.187  0.00  0.00    -0.040 A 
ATOM      7  C   LIG    1      -12.315   1.733   0.068  0.00  0.00    +0.120 A 
ATOM      8  C   LIG    1      -11.130   1.007  -0.175  0.00  0.00    +0.070 A 
ATOM      9  N   LIG    1       -9.872   1.470  -0.320  0.00  0.00    -0.460 NA
ATOM     10  C   LIG    1       -8.936   0.614  -0.538  0.00  0.00    +0.330 A 
ATOM     11  S   LIG    1       -9.596  -1.014  -0.597  0.00  0.00    +0.080 S 
ATOM     12  C   LIG    1      -11.213  -0.384  -0.290  0.00  0.00    -0.140 A 
ATOM     13  C   LIG    1      -12.441  -1.030  -0.167  0.00  0.00    +0.030 A 
BRANCH   5  15
ATOM     14  C   LIG    1      -15.931  -0.114   0.436  0.00  0.00    +0.240 C 
ATOM     15  O   LIG    1      -14.786  -0.933   0.191  0.00  0.00    -0.310 OA
ENDBRANCH   5  15
ENDBRANCH   1  10
BRANCH   3  16
ATOM     16  C   LIG    1       -5.742   2.562  -0.836  0.00  0.00    -0.010 C 
ATOM     17  C   LIG    1       -5.557   4.076  -0.720  0.00  0.00    +0.060 C 
ATOM     18  C   LIG    1       -4.084   4.431  -0.941  0.00  0.00    +0.030 C 
ATOM     19  C   LIG    1       -3.233   3.756   0.145  0.00  0.00    +0.280 C 
ATOM     20  N   LIG    1       -3.515   2.314   0.131  0.00  0.00    -0.600 N 
ATOM     21  C   LIG    1       -2.513   1.419   0.020  0.00  0.00    +0.610 C 
ATOM     22  O   LIG    1       -2.765   0.237  -0.121  0.00  0.00    -0.520 OA
ATOM     23  C   LIG    1       -4.909   1.865   0.245  0.00  0.00    +0.300 C 
BRANCH  21  24
ATOM     24  C   LIG    1       -1.118   1.870   0.070  0.00  0.00    -0.090 A 
ATOM     25  C   LIG    1       -0.017   1.101  -0.172  0.00  0.00    +0.050 A 
ATOM     26  C   LIG    1        1.101   1.936  -0.021  0.00  0.00    -0.060 A 
ATOM     27  C   LIG    1        0.639   3.162   0.309  0.00  0.00    +0.200 A 
ATOM     28  O   LIG    1       -0.699   3.118   0.365  0.00  0.00    -0.160 OA
ENDBRANCH  21  24
ENDBRANCH   3  16
TORSDOF 4
