REMARK  Name = ZINCqH0000002np6.0
REMARK                            x       y       z     vdW  Elec       q    Type
REMARK                         _______ _______ _______ _____ _____    ______ ____
ROOT
ATOM      1  N   LIG    1        0.230   3.476  -3.913  0.00  0.00    -0.530 N 
ATOM      2  C   LIG    1        0.820   3.059  -5.057  0.00  0.00    +0.550 A 
ATOM      3  C   LIG    1        2.080   2.312  -4.940  0.00  0.00    -0.200 A 
ATOM      4  C   LIG    1        2.762   1.841  -6.061  0.00  0.00    +0.100 A 
ATOM      5  C   LIG    1        3.939   1.146  -5.897  0.00  0.00    -0.010 A 
ATOM      6  C   LIG    1        4.451   0.912  -4.627  0.00  0.00    +0.070 A 
ATOM      7  C   LIG    1        3.795   1.368  -3.507  0.00  0.00    +0.040 A 
ATOM      8  C   LIG    1        2.598   2.076  -3.646  0.00  0.00    +0.160 A 
ATOM      9  N   LIG    1        1.923   2.545  -2.570  0.00  0.00    -0.510 NA
ATOM     10  O   LIG    1        0.325   3.294  -6.144  0.00  0.00    -0.500 OA
ATOM     11  C   LIG    1        0.798   3.204  -2.701  0.00  0.00    +0.340 A 
ENDROOT
BRANCH   1  12
ATOM     12  C   LIG    1       -1.028   4.224  -3.974  0.00  0.00    +0.290 C 
BRANCH  12  13
ATOM     13  C   LIG    1       -0.727   5.721  -4.064  0.00  0.00    +0.000 C 
BRANCH  13  14
ATOM     14  C   LIG    1       -2.040   6.503  -4.129  0.00  0.00    +0.030 C 
BRANCH  14  15
ATOM     15  C   LIG    1       -1.739   8.000  -4.219  0.00  0.00    +0.000 C 
BRANCH  15  17
ATOM     16  C   LIG    1       -2.752  10.279  -4.374  0.00  0.00    +0.000 C 
ATOM     17  C   LIG    1       -3.053   8.782  -4.283  0.00  0.00    -0.010 C 
ENDBRANCH  15  17
ENDBRANCH  14  15
ENDBRANCH  13  14
ENDBRANCH  12  13
ENDBRANCH   1  12
BRANCH  11  18
ATOM     18  S   LIG    1       -0.016   3.772  -1.245  0.00  0.00    +0.040 S 
BRANCH  18  19
ATOM     19  C   LIG    1        1.128   3.158   0.015  0.00  0.00    +0.040 C 
ATOM     20  C   LIG    1        0.675   3.627   1.400  0.00  0.00    +0.080 C 
ATOM     21  C   LIG    1       -0.840   3.668   1.484  0.00  0.00    +0.020 C 
ATOM     22  C   LIG    1       -1.496   2.302   1.407  0.00  0.00    +0.010 C 
ATOM     23  C   LIG    1       -1.298   1.680   0.017  0.00  0.00    +0.270 C 
ATOM     24  N   LIG    1       -0.011   0.966   0.007  0.00  0.00    -0.720 N 
ATOM     25  H   LIG    1        0.002  -0.004   0.002  0.00  0.00    +0.400 HD
ATOM     26  C   LIG    1        1.137   1.644   0.000  0.00  0.00    +0.540 C 
ATOM     27  O   LIG    1        2.192   1.046  -0.018  0.00  0.00    -0.520 OA
ENDBRANCH  18  19
ENDBRANCH  11  18
TORSDOF 7
