REMARK  Name = ZINCrD000000A5zS.0
REMARK                            x       y       z     vdW  Elec       q    Type
REMARK                         _______ _______ _______ _____ _____    ______ ____
ROOT
ATOM      1  N   LIG    1       -6.333   5.456  -1.893  0.00  0.00    -0.300 N 
ATOM      2  C   LIG    1       -5.067   5.141  -1.490  0.00  0.00    +0.170 A 
ATOM      3  N   LIG    1       -4.978   3.830  -1.473  0.00  0.00    -0.290 NA
ATOM      4  N   LIG    1       -6.094   3.308  -1.840  0.00  0.00    -0.250 NA
ATOM      5  C   LIG    1       -6.962   4.253  -2.114  0.00  0.00    +0.190 A 
ENDROOT
BRANCH   5   6
ATOM      6  C   LIG    1       -8.356   4.061  -2.569  0.00  0.00    -0.010 A 
ATOM      7  C   LIG    1       -9.069   5.130  -3.114  0.00  0.00    +0.010 A 
ATOM      8  C   LIG    1      -10.367   4.943  -3.541  0.00  0.00    +0.040 A 
ATOM      9  C   LIG    1      -10.967   3.701  -3.420  0.00  0.00    -0.020 A 
ATOM     10  C   LIG    1      -10.266   2.638  -2.875  0.00  0.00    +0.050 A 
ATOM     11 CL   LIG    1      -12.603   3.475  -3.953  0.00  0.00    -0.050 Cl
ATOM     12  C   LIG    1       -8.966   2.811  -2.449  0.00  0.00    +0.090 A 
ENDBRANCH   5   6
BRANCH   1  13
ATOM     13  N   LIG    1       -6.864   6.706  -2.046  0.00  0.00    -0.590 N 
ATOM     14  H   LIG    1       -7.844   6.714  -1.808  0.00  0.00    +0.380 HD
ATOM     15  H   LIG    1       -6.716   7.048  -2.984  0.00  0.00    +0.370 HD
ENDBRANCH   1  13
BRANCH   2  16
ATOM     16  S   LIG    1       -3.791   6.280  -1.065  0.00  0.00    +0.120 S 
BRANCH  16  17
ATOM     17  C   LIG    1       -2.464   5.123  -0.645  0.00  0.00    +0.100 C 
BRANCH  17  18
ATOM     18  C   LIG    1       -1.235   5.895  -0.239  0.00  0.00    +0.540 C 
ATOM     19  N   LIG    1       -0.082   5.244   0.011  0.00  0.00    -0.550 N 
ATOM     20  C   LIG    1       -0.041   3.775   0.021  0.00  0.00    +0.280 C 
ATOM     21  C   LIG    1        0.770   3.337   1.247  0.00  0.00    +0.020 C 
ATOM     22  C   LIG    1        2.204   3.845   1.099  0.00  0.00    +0.080 C 
ATOM     23  C   LIG    1        2.212   5.319   0.791  0.00  0.00    -0.110 A 
ATOM     24  C   LIG    1        3.362   6.049   1.038  0.00  0.00    +0.030 A 
ATOM     25  C   LIG    1        3.404   7.402   0.759  0.00  0.00    -0.020 A 
ATOM     26  C   LIG    1        2.292   8.037   0.237  0.00  0.00    +0.030 A 
ATOM     27  C   LIG    1        1.142   7.316  -0.016  0.00  0.00    +0.020 A 
ATOM     28  C   LIG    1        1.099   5.955   0.265  0.00  0.00    +0.150 A 
ATOM     29  O   LIG    1       -1.283   7.103  -0.137  0.00  0.00    -0.500 OA
ENDBRANCH  17  18
ENDBRANCH  16  17
ENDBRANCH   2  16
TORSDOF 5
