REMARK  Name = ZINCvU0000000BrH.0
REMARK                            x       y       z     vdW  Elec       q    Type
REMARK                         _______ _______ _______ _____ _____    ______ ____
ROOT
ATOM      1  C   LIG    1       -3.714  -0.054   0.038  0.00  0.00    +0.600 C 
ATOM      2  N   LIG    1       -4.656   0.910   0.052  0.00  0.00    -0.720 N 
ATOM      3  H   LIG    1       -4.393   1.844   0.054  0.00  0.00    +0.400 HD
ATOM      4  O   LIG    1       -4.043  -1.226   0.035  0.00  0.00    -0.520 OA
ENDROOT
BRANCH   1  11
ATOM      5  C   LIG    1        1.893  -1.808  -0.026  0.00  0.00    +0.180 C 
ATOM      6  C   LIG    1        1.379  -0.392  -0.013  0.00  0.00    +0.140 A 
ATOM      7  N   LIG    1        2.111   0.681  -0.014  0.00  0.00    -0.250 NA
ATOM      8  N   LIG    1        1.285   1.808  -0.001  0.00  0.00    -0.300 N 
ATOM      9  C   LIG    1       -0.017   1.381   0.010  0.00  0.00    +0.030 A 
ATOM     10  S   LIG    1       -1.680   1.954   0.035  0.00  0.00    +0.200 S 
ATOM     11  C   LIG    1       -2.294   0.309   0.026  0.00  0.00    -0.270 A 
ATOM     12  C   LIG    1       -1.280  -0.569   0.011  0.00  0.00    +0.190 A 
ATOM     13  C   LIG    1        0.002  -0.004   0.002  0.00  0.00    -0.220 A 
BRANCH   8  14
ATOM     14  C   LIG    1        1.713   3.142   0.002  0.00  0.00    +0.150 A 
ATOM     15  C   LIG    1        0.985   4.108  -0.681  0.00  0.00    +0.000 A 
ATOM     16  C   LIG    1        1.407   5.423  -0.672  0.00  0.00    +0.050 A 
ATOM     17  C   LIG    1        2.559   5.777   0.007  0.00  0.00    +0.010 A 
ATOM     18  C   LIG    1        3.289   4.816   0.683  0.00  0.00    +0.040 A 
ATOM     19  C   LIG    1        2.869   3.500   0.682  0.00  0.00    +0.030 A 
ENDBRANCH   8  14
ENDBRANCH   1  11
BRANCH   2  20
ATOM     20  C   LIG    1       -6.075   0.548   0.064  0.00  0.00    +0.340 C 
BRANCH  20  21
ATOM     21  C   LIG    1       -6.545   0.311  -1.348  0.00  0.00    -0.090 A 
ATOM     22  C   LIG    1       -6.114   1.139  -2.368  0.00  0.00    +0.010 A 
ATOM     23  C   LIG    1       -6.541   0.918  -3.664  0.00  0.00    +0.000 A 
ATOM     24  C   LIG    1       -7.408  -0.123  -3.939  0.00  0.00    +0.000 A 
ATOM     25  C   LIG    1       -7.843  -0.948  -2.918  0.00  0.00    +0.000 A 
ATOM     26  C   LIG    1       -7.412  -0.730  -1.623  0.00  0.00    +0.020 A 
ENDBRANCH  20  21
BRANCH  20  27
ATOM     27  C   LIG    1       -6.874   1.668   0.678  0.00  0.00    -0.090 A 
ATOM     28  C   LIG    1       -6.554   2.983   0.393  0.00  0.00    +0.010 A 
ATOM     29  C   LIG    1       -7.290   4.010   0.953  0.00  0.00    +0.020 A 
ATOM     30  C   LIG    1       -8.340   3.724   1.805  0.00  0.00    +0.000 A 
ATOM     31  C   LIG    1       -8.657   2.410   2.094  0.00  0.00    +0.020 A 
ATOM     32  C   LIG    1       -7.924   1.382   1.530  0.00  0.00    +0.030 A 
ENDBRANCH  20  27
ENDBRANCH   2  20
TORSDOF 5
