REMARK  Name = ZINCrg000000qjVU.0
REMARK                            x       y       z     vdW  Elec       q    Type
REMARK                         _______ _______ _______ _____ _____    ______ ____
ROOT
ATOM      1  C   LIG    1       -6.564  -2.625   2.648  0.00  0.00    +0.520 C 
ATOM      2  N   LIG    1       -7.880  -2.717   2.373  0.00  0.00    -0.710 N 
ATOM      3  H   LIG    1       -8.306  -2.052   1.810  0.00  0.00    +0.410 HD
ATOM      4  O   LIG    1       -6.032  -3.456   3.354  0.00  0.00    -0.500 OA
ENDROOT
BRANCH   1   5
ATOM      5  C   LIG    1       -5.761  -1.500   2.084  0.00  0.00    +0.490 C 
ATOM      6  O   LIG    1       -6.295  -0.666   1.377  0.00  0.00    -0.550 OA
BRANCH   5  11
ATOM      7  N   LIG    1       -2.062   0.977   1.338  0.00  0.00    -0.380 N 
ATOM      8  C   LIG    1       -3.185   1.448   0.727  0.00  0.00    +0.380 A 
ATOM      9  C   LIG    1       -4.221   0.629   1.022  0.00  0.00    -0.120 A 
ATOM     10  C   LIG    1       -3.743  -0.404   1.852  0.00  0.00    +0.480 A 
ATOM     11  N   LIG    1       -4.461  -1.409   2.356  0.00  0.00    -0.650 NA
ATOM     12  N   LIG    1       -2.401  -0.188   2.041  0.00  0.00    -0.470 N 
ATOM     13  H   LIG    1       -1.798  -0.737   2.567  0.00  0.00    +0.450 HD
BRANCH   7  14
ATOM     14  C   LIG    1       -0.729   1.579   1.267  0.00  0.00    +0.360 C 
BRANCH  14  15
ATOM     15  C   LIG    1       -0.013   1.086   0.008  0.00  0.00    +0.170 C 
BRANCH  15  17
ATOM     16  C   LIG    1       -0.114   1.152  -2.386  0.00  0.00    +0.210 C 
ATOM     17  O   LIG    1       -0.704   1.559  -1.150  0.00  0.00    -0.390 OA
ENDBRANCH  15  17
ENDBRANCH  14  15
ENDBRANCH   7  14
ENDBRANCH   5  11
ENDBRANCH   1   5
BRANCH   2  18
ATOM     18  C   LIG    1       -8.669  -3.821   2.927  0.00  0.00    +0.260 C 
BRANCH  18  19
ATOM     19  C   LIG    1      -10.122  -3.691   2.466  0.00  0.00    +0.040 C 
BRANCH  19  20
ATOM     20  C   LIG    1      -10.945  -4.844   3.043  0.00  0.00    +0.150 C 
BRANCH  20  21
ATOM     21  C   LIG    1      -12.376  -4.717   2.589  0.00  0.00    +0.290 A 
ATOM     22  N   LIG    1      -13.121  -3.663   2.759  0.00  0.00    -0.490 NA
ATOM     23  C   LIG    1      -14.352  -3.885   2.231  0.00  0.00    +0.050 A 
ATOM     24  C   LIG    1      -15.514  -3.114   2.137  0.00  0.00    +0.070 A 
ATOM     25  C   LIG    1      -16.625  -3.628   1.531  0.00  0.00    +0.000 A 
ATOM     26  C   LIG    1      -16.615  -4.912   1.006  0.00  0.00    +0.030 A 
ATOM     27  C   LIG    1      -15.480  -5.691   1.087  0.00  0.00    +0.010 A 
ATOM     28  C   LIG    1      -14.341  -5.186   1.700  0.00  0.00    +0.040 A 
ATOM     29  N   LIG    1      -13.075  -5.684   1.936  0.00  0.00    -0.600 N 
ATOM     30  H   LIG    1      -12.747  -6.561   1.686  0.00  0.00    +0.420 HD
ENDBRANCH  20  21
ENDBRANCH  19  20
ENDBRANCH  18  19
ENDBRANCH   2  18
TORSDOF 9
