REMARK  Name = ZINCqH0000008vO1.0
REMARK                            x       y       z     vdW  Elec       q    Type
REMARK                         _______ _______ _______ _____ _____    ______ ____
ROOT
ATOM      1  C   LIG    1        1.133   3.220   0.008  0.00  0.00    +0.460 A 
ATOM      2  N   LIG    1        1.132   1.916   0.002  0.00  0.00    -0.550 NA
ATOM      3  C   LIG    1       -0.015   1.217   0.009  0.00  0.00    +0.540 A 
ATOM      4  C   LIG    1       -1.294   1.950   0.019  0.00  0.00    -0.210 A 
ATOM      5  C   LIG    1       -1.234   3.332   0.031  0.00  0.00    +0.060 A 
ATOM      6  S   LIG    1       -2.856   4.006   0.049  0.00  0.00    +0.210 S 
ATOM      7  C   LIG    1       -3.594   2.415   0.032  0.00  0.00    -0.010 A 
ATOM      8  C   LIG    1       -2.665   1.456   0.023  0.00  0.00    +0.040 A 
ATOM      9  O   LIG    1        0.002  -0.004   0.002  0.00  0.00    -0.460 OA
ATOM     10  N   LIG    1        0.002   3.943   0.023  0.00  0.00    -0.580 N 
ATOM     11  H   LIG    1        0.055   4.911   0.028  0.00  0.00    +0.420 HD
ENDROOT
BRANCH   8  12
ATOM     12  C   LIG    1       -2.999   0.018   0.017  0.00  0.00    +0.040 A 
ATOM     13  C   LIG    1       -3.861  -0.605   0.865  0.00  0.00    -0.030 A 
ATOM     14  C   LIG    1       -3.877  -1.967   0.499  0.00  0.00    -0.070 A 
ATOM     15  C   LIG    1       -3.028  -2.108  -0.536  0.00  0.00    +0.180 A 
ATOM     16  O   LIG    1       -2.498  -0.906  -0.825  0.00  0.00    -0.150 OA
ENDBRANCH   8  12
BRANCH   1  17
ATOM     17  C   LIG    1        2.454   3.943  -0.001  0.00  0.00    +0.070 C 
ATOM     18  C   LIG    1        2.515   4.908   1.185  0.00  0.00    +0.080 C 
BRANCH  17  19
ATOM     19  S   LIG    1        3.804   2.739   0.130  0.00  0.00    -0.050 S 
BRANCH  19  21
ATOM     20  C   LIG    1        5.321   4.374  -1.454  0.00  0.00    +0.080 C 
ATOM     21  C   LIG    1        5.288   3.767  -0.050  0.00  0.00    -0.020 C 
BRANCH  21  22
ATOM     22  C   LIG    1        6.516   2.919   0.160  0.00  0.00    +0.540 C 
ATOM     23  N   LIG    1        7.665   3.488   0.573  0.00  0.00    -0.700 N 
ATOM     24  H   LIG    1        7.703   4.443   0.735  0.00  0.00    +0.400 HD
ATOM     25  O   LIG    1        6.469   1.724  -0.043  0.00  0.00    -0.510 OA
BRANCH  23  26
ATOM     26  C   LIG    1        8.859   2.663   0.776  0.00  0.00    +0.220 C 
ATOM     27  C   LIG    1        9.690   2.922   2.035  0.00  0.00    +0.010 C 
ATOM     28  C   LIG    1       10.221   3.351   0.665  0.00  0.00    +0.020 C 
ENDBRANCH  23  26
ENDBRANCH  21  22
ENDBRANCH  19  21
ENDBRANCH  17  19
ENDBRANCH   1  17
TORSDOF 6
