REMARK  Name = ZINCnE000008Jds0.0
REMARK                            x       y       z     vdW  Elec       q    Type
REMARK                         _______ _______ _______ _____ _____    ______ ____
ROOT
ATOM      1  C   LIG    1       -1.226   3.174   0.039  0.00  0.00    -0.670 A 
ATOM      2  C   LIG    1       -1.208   1.788   0.060  0.00  0.00    +0.100 A 
ATOM      3  C   LIG    1       -0.010   1.103   0.049  0.00  0.00    +0.040 A 
ATOM      4  C   LIG    1        1.191   1.802   0.004  0.00  0.00    -0.080 A 
ATOM      5  C   LIG    1        1.176   3.208  -0.024  0.00  0.00    -0.110 A 
ATOM      6  C   LIG    1       -0.047   3.885  -0.006  0.00  0.00    +0.160 A 
ENDROOT
BRANCH   1   7
ATOM      7  S   LIG    1       -2.765   4.030   0.062  0.00  0.00    +2.700 S 
ATOM      8  O   LIG    1       -2.495   5.328   0.574  0.00  0.00    -0.950 OA
ATOM      9  O   LIG    1       -3.708   3.144   0.649  0.00  0.00    -0.960 OA
BRANCH   7  11
ATOM     10  C   LIG    1       -4.058   3.220  -2.171  0.00  0.00    +0.300 C 
ATOM     11  N   LIG    1       -3.235   4.237  -1.513  0.00  0.00    -1.010 NA
ATOM     12  C   LIG    1       -2.826   5.437  -2.247  0.00  0.00    +0.310 C 
ENDBRANCH   7  11
ENDBRANCH   1   7
BRANCH   5  13
ATOM     13  C   LIG    1        2.438   3.960  -0.073  0.00  0.00    +0.510 C 
ATOM     14  O   LIG    1        3.506   3.363  -0.089  0.00  0.00    -0.640 OA
ATOM     15  O   LIG    1        2.421   5.184  -0.097  0.00  0.00    -0.680 OA
ENDBRANCH   5  13
BRANCH   4  16
ATOM     16  S   LIG    1        2.722   0.931  -0.018  0.00  0.00    +0.070 S 
BRANCH  16  17
ATOM     17  C   LIG    1        3.120   1.054  -1.730  0.00  0.00    -0.050 A 
ATOM     18  C   LIG    1        2.309   1.794  -2.582  0.00  0.00    +0.020 A 
ATOM     19  C   LIG    1        2.626   1.893  -3.922  0.00  0.00    +0.040 A 
ATOM     20  C   LIG    1        3.745   1.248  -4.420  0.00  0.00    -0.060 A 
ATOM     21  C   LIG    1        4.552   0.506  -3.575  0.00  0.00    +0.040 A 
ATOM     22 CL   LIG    1        4.137   1.369  -6.106  0.00  0.00    -0.090 Cl
ATOM     23  C   LIG    1        4.242   0.407  -2.233  0.00  0.00    +0.030 A 
ENDBRANCH  16  17
ENDBRANCH   4  16
TORSDOF 5
