REMARK  Name = ZINCrD000000C7ZC.0
REMARK                            x       y       z     vdW  Elec       q    Type
REMARK                         _______ _______ _______ _____ _____    ______ ____
ROOT
ATOM      1  O   LIG    1       -3.404   7.035  -1.048  0.00  0.00    -0.500 OA
ATOM      2  C   LIG    1       -2.309   6.956  -0.524  0.00  0.00    +0.590 C 
ATOM      3  N   LIG    1       -1.763   8.040   0.062  0.00  0.00    -0.670 N 
ATOM      4  H   LIG    1       -0.921   7.961   0.537  0.00  0.00    +0.410 HD
ENDROOT
BRANCH   2   5
ATOM      5  C   LIG    1       -1.581   5.678  -0.531  0.00  0.00    +0.010 A 
ATOM      6  C   LIG    1       -2.026   4.521  -1.088  0.00  0.00    +0.070 A 
ATOM      7  C   LIG    1       -1.034   3.533  -0.879  0.00  0.00    -0.100 A 
ATOM      8  C   LIG    1       -0.937   2.179  -1.227  0.00  0.00    +0.050 A 
ATOM      9  C   LIG    1        0.173   1.465  -0.874  0.00  0.00    +0.080 A 
ATOM     10  C   LIG    1        1.214   2.073  -0.179  0.00  0.00    +0.030 A 
ATOM     11  C   LIG    1        1.142   3.403   0.170  0.00  0.00    +0.040 A 
ATOM     12  F   LIG    1        0.263   0.159  -1.206  0.00  0.00    -0.140 F 
ATOM     13  C   LIG    1        0.019   4.150  -0.175  0.00  0.00    +0.110 A 
ATOM     14  N   LIG    1       -0.336   5.463   0.028  0.00  0.00    -0.580 N 
ATOM     15  H   LIG    1        0.199   6.129   0.487  0.00  0.00    +0.420 HD
ENDBRANCH   2   5
BRANCH   3  16
ATOM     16  C   LIG    1       -2.410   9.277  -0.015  0.00  0.00    +0.120 A 
ATOM     17  C   LIG    1       -3.797   9.339   0.004  0.00  0.00    +0.090 A 
ATOM     18  C   LIG    1       -4.433  10.563  -0.072  0.00  0.00    +0.020 A 
ATOM     19  C   LIG    1       -3.690  11.725  -0.167  0.00  0.00    +0.110 A 
ATOM     20  C   LIG    1       -2.308  11.666  -0.186  0.00  0.00    -0.660 A 
ATOM     21  C   LIG    1       -1.666  10.447  -0.105  0.00  0.00    +0.100 A 
BRANCH  20  22
ATOM     22  S   LIG    1       -1.366  13.151  -0.308  0.00  0.00    +2.710 S 
ATOM     23  O   LIG    1       -2.217  14.118  -0.907  0.00  0.00    -0.950 OA
ATOM     24  O   LIG    1       -0.105  12.782  -0.849  0.00  0.00    -0.950 OA
BRANCH  22  25
ATOM     25  N   LIG    1       -1.077  13.675   1.236  0.00  0.00    -1.010 NA
ATOM     26  C   LIG    1       -1.934  14.590   2.005  0.00  0.00    +0.270 C 
ATOM     27  C   LIG    1       -1.256  14.812   3.373  0.00  0.00    +0.030 C 
ATOM     28  C   LIG    1        0.229  14.466   3.083  0.00  0.00    +0.040 C 
ATOM     29  C   LIG    1        0.085  13.307   2.065  0.00  0.00    +0.270 C 
ENDBRANCH  22  25
ENDBRANCH  20  22
ENDBRANCH   3  16
TORSDOF 4
