REMARK  Name = ZINC550000002pGG.0
REMARK                            x       y       z     vdW  Elec       q    Type
REMARK                         _______ _______ _______ _____ _____    ______ ____
ROOT
ATOM      1  C   LIG    1       -0.015   1.220   0.009  0.00  0.00    +0.570 C 
ATOM      2  O   LIG    1        1.037   1.846   0.002  0.00  0.00    -0.670 OA
ATOM      3  O   LIG    1        0.002  -0.004   0.002  0.00  0.00    -0.670 OA
ENDROOT
BRANCH   1   5
ATOM      4  C   LIG    1       -2.289   2.492   0.026  0.00  0.00    -0.050 C 
ATOM      5  C   LIG    1       -1.264   1.919   0.018  0.00  0.00    -0.180 C 
ENDBRANCH   1   5
TORSDOF 1
