REMARK  Name = ZINCrH000004q9ha.0
REMARK                            x       y       z     vdW  Elec       q    Type
REMARK                         _______ _______ _______ _____ _____    ______ ____
ROOT
ATOM      1  C   LIG    1        3.005   0.643   2.505  0.00  0.00    +0.600 C 
ATOM      2  N   LIG    1        2.745   1.293   3.657  0.00  0.00    -0.710 N 
ATOM      3  H   LIG    1        1.834   1.544   3.876  0.00  0.00    +0.410 HD
ATOM      4  O   LIG    1        4.148   0.328   2.229  0.00  0.00    -0.480 OA
ENDROOT
BRANCH   1   7
ATOM      5  C   LIG    1        3.336  -0.846  -0.205  0.00  0.00    +0.140 C 
ATOM      6  C   LIG    1        2.053  -0.337   0.399  0.00  0.00    -0.060 A 
ATOM      7  C   LIG    1        1.909   0.314   1.583  0.00  0.00    -0.040 A 
ATOM      8  O   LIG    1        0.609   0.612   1.784  0.00  0.00    -0.180 OA
ATOM      9  C   LIG    1       -0.148   0.177   0.758  0.00  0.00    +0.080 A 
ATOM     10  C   LIG    1       -1.511   0.234   0.488  0.00  0.00    -0.030 A 
ATOM     11  C   LIG    1       -2.001  -0.300  -0.686  0.00  0.00    +0.080 A 
ATOM     12  C   LIG    1       -1.149  -0.908  -1.598  0.00  0.00    +0.010 A 
ATOM     13  C   LIG    1        0.193  -0.979  -1.352  0.00  0.00    +0.090 A 
ATOM     14 CL   LIG    1       -2.591   0.992   1.616  0.00  0.00    -0.050 Cl
ATOM     15  C   LIG    1        0.711  -0.437  -0.173  0.00  0.00    -0.130 A 
ENDBRANCH   1   7
BRANCH   2  16
ATOM     16  C   LIG    1        3.837   1.621   4.576  0.00  0.00    +0.270 C 
ATOM     17  C   LIG    1        3.282   1.761   5.996  0.00  0.00    +0.050 C 
ATOM     18  C   LIG    1        2.457   3.051   6.069  0.00  0.00    +0.030 C 
ATOM     19  C   LIG    1        3.401   4.245   5.921  0.00  0.00    +0.270 C 
ATOM     20  N   LIG    1        4.254   4.079   4.751  0.00  0.00    -0.560 N 
ATOM     21  C   LIG    1        4.478   2.910   4.149  0.00  0.00    +0.500 C 
ATOM     22  O   LIG    1        5.241   2.887   3.206  0.00  0.00    -0.510 OA
BRANCH  20  23
ATOM     23  C   LIG    1        4.878   5.217   4.227  0.00  0.00    +0.080 A 
ATOM     24  C   LIG    1        4.254   5.971   3.236  0.00  0.00    +0.060 A 
ATOM     25  C   LIG    1        4.911   7.089   2.748  0.00  0.00    -0.020 A 
ATOM     26  C   LIG    1        6.154   7.417   3.257  0.00  0.00    +0.260 A 
ATOM     27  N   LIG    1        6.717   6.682   4.196  0.00  0.00    -0.470 NA
ATOM     28  C   LIG    1        6.125   5.615   4.691  0.00  0.00    +0.280 A 
ENDBRANCH  20  23
ENDBRANCH   2  16
TORSDOF 3
