REMARK  Name = ZINCrH000004rDJD.2
REMARK                            x       y       z     vdW  Elec       q    Type
REMARK                         _______ _______ _______ _____ _____    ______ ____
ROOT
ATOM      1  N   LIG    1       -0.069   5.242   0.028  0.00  0.00    -0.670 N 
ATOM      2  H   LIG    1        0.761   5.737   0.103  0.00  0.00    +0.420 HD
ATOM      3  C   LIG    1       -1.242   5.900  -0.059  0.00  0.00    +0.510 C 
ATOM      4  O   LIG    1       -2.286   5.283  -0.052  0.00  0.00    -0.490 OA
ENDROOT
BRANCH   1  11
ATOM      5  C   LIG    1        2.132   3.913   1.248  0.00  0.00    +0.110 C 
ATOM      6  C   LIG    1        1.006   3.154   0.595  0.00  0.00    -0.070 A 
ATOM      7  C   LIG    1        1.023   1.774   0.575  0.00  0.00    +0.050 A 
ATOM      8  C   LIG    1       -0.009   1.076  -0.025  0.00  0.00    +0.090 A 
ATOM      9  C   LIG    1       -1.059   1.758  -0.611  0.00  0.00    -0.030 A 
ATOM     10  C   LIG    1       -1.085   3.139  -0.590  0.00  0.00    +0.100 A 
ATOM     11  C   LIG    1       -0.049   3.842   0.011  0.00  0.00    +0.150 A 
BRANCH   9  12
ATOM     12  N   LIG    1       -2.159   1.008  -1.258  0.00  0.00    +0.030 N 
ATOM     13  O   LIG    1       -3.084   1.609  -1.774  0.00  0.00    -0.150 OA
ATOM     14  O   LIG    1       -2.139  -0.209  -1.272  0.00  0.00    -0.160 OA
ENDBRANCH   9  12
ENDBRANCH   1  11
BRANCH   3  15
ATOM     15  C   LIG    1       -1.256   7.403  -0.166  0.00  0.00    +0.210 C 
BRANCH  15  16
ATOM     16  N   LIG    1       -2.644   7.875  -0.248  0.00  0.00    -0.490 NA
ATOM     17  C   LIG    1       -3.236   7.561  -1.574  0.00  0.00    +0.170 C 
ATOM     18  C   LIG    1       -4.426   8.548  -1.673  0.00  0.00    +0.030 C 
ATOM     19  C   LIG    1       -3.871   9.828  -1.008  0.00  0.00    -0.010 C 
ATOM     20  C   LIG    1       -2.713   9.347  -0.114  0.00  0.00    +0.130 C 
ATOM     21  C   LIG    1       -2.987   9.725   1.343  0.00  0.00    +0.040 C 
BRANCH  19  22
ATOM     22  C   LIG    1       -4.953  10.498  -0.159  0.00  0.00    +0.090 C 
BRANCH  22  23
ATOM     23  C   LIG    1       -6.017  11.070  -1.061  0.00  0.00    -0.080 A 
ATOM     24  C   LIG    1       -5.907  12.369  -1.521  0.00  0.00    +0.000 A 
ATOM     25  C   LIG    1       -6.880  12.892  -2.352  0.00  0.00    +0.000 A 
ATOM     26  C   LIG    1       -7.967  12.119  -2.715  0.00  0.00    -0.010 A 
ATOM     27  C   LIG    1       -8.080  10.822  -2.250  0.00  0.00    +0.000 A 
ATOM     28  C   LIG    1       -7.104  10.298  -1.423  0.00  0.00    +0.000 A 
ENDBRANCH  22  23
ENDBRANCH  19  22
ENDBRANCH  15  16
ENDBRANCH   3  15
TORSDOF 6
