REMARK  Name = ZINCrH000004pLVr.0
REMARK                            x       y       z     vdW  Elec       q    Type
REMARK                         _______ _______ _______ _____ _____    ______ ____
ROOT
ATOM      1  C   LIG    1        2.390   1.399  -0.001  0.00  0.00    +0.140 A 
ATOM      2  C   LIG    1        2.407   0.013  -0.000  0.00  0.00    +0.050 A 
ATOM      3  C   LIG    1        1.218  -0.692   0.019  0.00  0.00    +0.000 A 
ATOM      4  C   LIG    1        0.011  -0.019   0.039  0.00  0.00    +0.030 A 
ATOM      5  C   LIG    1       -0.013   1.364   0.038  0.00  0.00    -0.060 A 
ATOM      6  C   LIG    1        1.173   2.078   0.018  0.00  0.00    +0.100 A 
ENDROOT
BRANCH   1  13
ATOM      7  C   LIG    1        8.355   4.618   0.759  0.00  0.00    +0.040 C 
ATOM      8  C   LIG    1        7.514   3.345   0.886  0.00  0.00    -0.020 C 
ATOM      9  C   LIG    1        6.160   3.521   0.158  0.00  0.00    +0.260 C 
ATOM     10  N   LIG    1        5.889   2.195  -0.443  0.00  0.00    -0.640 N 
ATOM     11  C   LIG    1        7.209   1.739  -0.936  0.00  0.00    +0.300 C 
ATOM     12  C   LIG    1        4.708   1.551  -0.527  0.00  0.00    +0.730 C 
ATOM     13  N   LIG    1        3.594   2.117  -0.020  0.00  0.00    -0.670 N 
ATOM     14  H   LIG    1        3.626   3.021   0.331  0.00  0.00    +0.410 HD
ATOM     15  O   LIG    1        4.647   0.460  -1.060  0.00  0.00    -0.570 OA
ATOM     16  C   LIG    1        8.206   2.172   0.161  0.00  0.00    -0.070 C 
ATOM     17  C   LIG    1        9.521   2.636  -0.468  0.00  0.00    +0.050 C 
BRANCH  16  18
ATOM     18  C   LIG    1        8.458   1.019   1.135  0.00  0.00    +0.180 C 
BRANCH  18  19
ATOM     19  O   LIG    1        9.034  -0.083   0.430  0.00  0.00    -0.570 OA
ATOM     20  H   LIG    1        9.221  -0.851   0.987  0.00  0.00    +0.380 HD
ENDBRANCH  18  19
ENDBRANCH  16  18
ENDBRANCH   1  13
BRANCH   6  21
ATOM     21  O   LIG    1        1.151   3.438   0.018  0.00  0.00    -0.320 OA
BRANCH  21  22
ATOM     22  C   LIG    1       -0.133   4.065   0.038  0.00  0.00    +0.190 C 
BRANCH  22  23
ATOM     23  C   LIG    1        0.043   5.585   0.033  0.00  0.00    +0.080 C 
BRANCH  23  24
ATOM     24  C   LIG    1       -1.311   6.247   0.054  0.00  0.00    -0.090 A 
ATOM     25  C   LIG    1       -1.949   6.554  -1.133  0.00  0.00    +0.010 A 
ATOM     26  C   LIG    1       -3.193   7.157  -1.113  0.00  0.00    +0.000 A 
ATOM     27  C   LIG    1       -3.794   7.462   0.093  0.00  0.00    +0.000 A 
ATOM     28  C   LIG    1       -3.154   7.159   1.281  0.00  0.00    +0.000 A 
ATOM     29  C   LIG    1       -1.913   6.551   1.261  0.00  0.00    +0.010 A 
ENDBRANCH  23  24
ENDBRANCH  22  23
ENDBRANCH  21  22
ENDBRANCH   6  21
TORSDOF 7
