REMARK  Name = ZINCrg00001JduYW.0
REMARK                            x       y       z     vdW  Elec       q    Type
REMARK                         _______ _______ _______ _____ _____    ______ ____
ROOT
ATOM      1  C   LIG    1        4.744   5.303   0.403  0.00  0.00    +0.240 C 
ATOM      2  C   LIG    1        4.796   5.410  -1.123  0.00  0.00    +0.010 C 
ATOM      3  C   LIG    1        6.134   6.020  -1.546  0.00  0.00    +0.030 C 
ATOM      4  C   LIG    1        6.276   7.414  -0.932  0.00  0.00    +0.030 C 
ATOM      5  C   LIG    1        6.225   7.307   0.593  0.00  0.00    +0.000 C 
ATOM      6  C   LIG    1        4.887   6.697   1.017  0.00  0.00    +0.040 C 
ENDROOT
BRANCH   5   7
ATOM      7  C   LIG    1        6.365   8.680   1.198  0.00  0.00    +0.520 C 
ATOM      8  N   LIG    1        7.589   9.212   1.386  0.00  0.00    -0.600 N 
ATOM      9  C   LIG    1        8.760   8.500   0.908  0.00  0.00    +0.260 C 
ATOM     10  C   LIG    1        9.474   9.175  -0.253  0.00  0.00    +0.030 C 
ATOM     11  C   LIG    1       10.118  10.494   0.198  0.00  0.00    +0.110 C 
ATOM     12  C   LIG    1        9.038  11.554   0.194  0.00  0.00    +0.090 A 
ATOM     13  C   LIG    1        7.960  11.557   1.012  0.00  0.00    -0.260 A 
ATOM     14  C   LIG    1        7.168  12.654   0.693  0.00  0.00    +0.250 A 
ATOM     15  N   LIG    1        7.758  13.304  -0.282  0.00  0.00    -0.300 NA
ATOM     16  N   LIG    1        8.945  12.630  -0.607  0.00  0.00    -0.370 N 
ATOM     17  C   LIG    1        9.911  13.027  -1.634  0.00  0.00    +0.360 C 
ATOM     18  C   LIG    1        7.721  10.504   2.080  0.00  0.00    +0.370 C 
ATOM     19  O   LIG    1        5.376   9.307   1.516  0.00  0.00    -0.530 OA
ENDBRANCH   5   7
BRANCH   1  21
ATOM     20  C   LIG    1        3.312   3.381   0.838  0.00  0.00    +0.520 C 
ATOM     21  N   LIG    1        3.463   4.720   0.808  0.00  0.00    -0.730 N 
ATOM     22  H   LIG    1        2.724   5.297   1.055  0.00  0.00    +0.400 HD
ATOM     23  O   LIG    1        4.237   2.659   0.530  0.00  0.00    -0.510 OA
BRANCH  20  24
ATOM     24  C   LIG    1        1.994   2.780   1.256  0.00  0.00    +0.220 C 
BRANCH  24  25
ATOM     25  O   LIG    1        2.083   1.355   1.207  0.00  0.00    -0.360 OA
BRANCH  25  26
ATOM     26  C   LIG    1        0.880   0.684   1.586  0.00  0.00    +0.330 C 
BRANCH  26  28
ATOM     27  C   LIG    1        1.243  -1.932   1.433  0.00  0.00    +0.060 C 
ATOM     28  C   LIG    1        1.082  -0.771   1.501  0.00  0.00    -0.200 C 
ENDBRANCH  26  28
ENDBRANCH  25  26
ENDBRANCH  24  25
ENDBRANCH  20  24
ENDBRANCH   1  21
TORSDOF 6
