REMARK  Name = ZINCrD00000F5LAo.0
REMARK                            x       y       z     vdW  Elec       q    Type
REMARK                         _______ _______ _______ _____ _____    ______ ____
ROOT
ATOM      1  C   LIG    1       -0.410   1.392  -0.004  0.00  0.00    +0.080 C 
ATOM      2  C   LIG    1       -0.803   1.635   1.455  0.00  0.00    +0.150 C 
ATOM      3  C   LIG    1        0.159   0.913   2.363  0.00  0.00    +0.520 C 
ATOM      4  N   LIG    1        1.270   1.524   2.817  0.00  0.00    -0.650 N 
ATOM      5  H   LIG    1        1.895   1.033   3.373  0.00  0.00    +0.420 HD
ATOM      6  C   LIG    1        1.532   2.861   2.497  0.00  0.00    +0.130 A 
ATOM      7  C   LIG    1        2.787   3.407   2.707  0.00  0.00    +0.010 A 
ATOM      8  C   LIG    1        3.024   4.732   2.388  0.00  0.00    +0.030 A 
ATOM      9  C   LIG    1        2.014   5.515   1.861  0.00  0.00    +0.010 A 
ATOM     10  C   LIG    1        0.756   4.978   1.647  0.00  0.00    +0.060 A 
ATOM     11  C   LIG    1        0.514   3.653   1.962  0.00  0.00    +0.110 A 
ATOM     12  O   LIG    1       -0.070  -0.233   2.689  0.00  0.00    -0.500 OA
ATOM     13  C   LIG    1       -2.222   1.117   1.697  0.00  0.00    +0.090 C 
ATOM     14  N   LIG    1       -0.747   3.076   1.745  0.00  0.00    -0.550 N 
ATOM     15  C   LIG    1       -1.871   3.818   1.802  0.00  0.00    +0.520 C 
ATOM     16  O   LIG    1       -1.815   4.977   2.153  0.00  0.00    -0.480 OA
ENDROOT
BRANCH  15  17
ATOM     17  C   LIG    1       -3.197   3.207   1.429  0.00  0.00    +0.290 C 
BRANCH  17  18
ATOM     18  O   LIG    1       -4.216   4.240   1.405  0.00  0.00    -0.330 OA
BRANCH  18  19
ATOM     19  C   LIG    1       -5.468   3.857   1.086  0.00  0.00    +0.520 C 
ATOM     20  O   LIG    1       -5.701   2.692   0.836  0.00  0.00    -0.490 OA
BRANCH  19  21
ATOM     21  C   LIG    1       -6.556   4.854   1.042  0.00  0.00    -0.170 A 
ATOM     22  C   LIG    1       -6.301   6.196   1.327  0.00  0.00    +0.380 A 
ATOM     23  N   LIG    1       -7.271   7.086   1.288  0.00  0.00    -0.460 NA
ATOM     24  C   LIG    1       -8.511   6.753   0.981  0.00  0.00    +0.220 A 
ATOM     25  C   LIG    1       -8.846   5.441   0.684  0.00  0.00    -0.090 A 
ATOM     26 CL   LIG    1      -10.482   5.022   0.283  0.00  0.00    -0.010 Cl
ATOM     27 CL   LIG    1       -9.741   7.978   0.947  0.00  0.00    +0.010 Cl
ATOM     28  C   LIG    1       -7.861   4.469   0.706  0.00  0.00    +0.180 A 
ENDBRANCH  19  21
ENDBRANCH  18  19
ENDBRANCH  17  18
ENDBRANCH  15  17
TORSDOF 4
