REMARK  Name = ZINCpe000027pH2b.0
REMARK                            x       y       z     vdW  Elec       q    Type
REMARK                         _______ _______ _______ _____ _____    ______ ____
ROOT
ATOM      1  C   LIG    1       -1.730   3.983  -1.316  0.00  0.00    +0.540 C 
ATOM      2  N   LIG    1       -1.524   2.806  -0.693  0.00  0.00    -0.620 N 
ATOM      3  C   LIG    1       -0.802   1.619  -1.207  0.00  0.00    +0.280 C 
ATOM      4  C   LIG    1       -0.013   1.086   0.008  0.00  0.00    +0.160 C 
ATOM      5  C   LIG    1       -0.778   1.605   1.243  0.00  0.00    +0.090 C 
ATOM      6  C   LIG    1       -1.968   2.406   0.663  0.00  0.00    +0.290 C 
ATOM      7  O   LIG    1       -2.345   4.866  -0.757  0.00  0.00    -0.520 OA
ENDROOT
BRANCH   5   8
ATOM      8  C   LIG    1       -1.278   0.451   2.073  0.00  0.00    +0.010 A 
ATOM      9  C   LIG    1       -2.429  -0.222   1.881  0.00  0.00    +0.130 A 
ATOM     10  N   LIG    1       -2.489  -1.187   2.850  0.00  0.00    -0.460 N 
ATOM     11  C   LIG    1       -1.377  -1.064   3.607  0.00  0.00    +0.400 A 
ATOM     12  C   LIG    1       -3.563  -2.166   3.036  0.00  0.00    +0.330 C 
ATOM     13  N   LIG    1       -0.658  -0.082   3.136  0.00  0.00    -0.490 NA
ENDBRANCH   5   8
BRANCH   4  14
ATOM     14  N   LIG    1        1.358   1.614  -0.002  0.00  0.00    -0.680 NA
ATOM     15  H   LIG    1        1.706   1.734   0.937  0.00  0.00    +0.350 HD
BRANCH  14  16
ATOM     16  C   LIG    1        2.249   0.751  -0.788  0.00  0.00    +0.310 C 
BRANCH  16  17
ATOM     17  C   LIG    1        3.643   1.323  -0.776  0.00  0.00    -0.030 A 
ATOM     18  C   LIG    1        4.622   1.056   0.122  0.00  0.00    -0.050 A 
ATOM     19  C   LIG    1        5.712   1.842  -0.317  0.00  0.00    +0.010 A 
ATOM     20  N   LIG    1        5.306   2.473  -1.381  0.00  0.00    -0.360 NA
ATOM     21  C   LIG    1        7.075   1.931   0.319  0.00  0.00    +0.160 C 
ATOM     22  O   LIG    1        4.161   2.193  -1.654  0.00  0.00    +0.110 OA
ENDBRANCH  16  17
ENDBRANCH  14  16
ENDBRANCH   4  14
BRANCH   1  23
ATOM     23  C   LIG    1       -1.195   4.201  -2.708  0.00  0.00    +0.210 C 
BRANCH  23  24
ATOM     24  O   LIG    1       -1.540   5.516  -3.150  0.00  0.00    -0.370 OA
BRANCH  24  26
ATOM     25  C   LIG    1       -1.500   7.251  -4.831  0.00  0.00    +0.040 C 
ATOM     26  C   LIG    1       -1.077   5.827  -4.465  0.00  0.00    +0.160 C 
ENDBRANCH  24  26
ENDBRANCH  23  24
ENDBRANCH   1  23
TORSDOF 7
