REMARK  Name = ZINCqH0000003SIG.0
REMARK                            x       y       z     vdW  Elec       q    Type
REMARK                         _______ _______ _______ _____ _____    ______ ____
ROOT
ATOM      1  C   LIG    1       -4.708  -1.908  -2.288  0.00  0.00    +0.200 A 
ATOM      2  N   LIG    1       -5.447  -1.112  -1.560  0.00  0.00    -0.360 NA
ATOM      3  O   LIG    1       -4.756  -0.516  -0.761  0.00  0.00    +0.110 OA
ATOM      4  C   LIG    1       -3.477  -0.880  -0.902  0.00  0.00    +0.190 A 
ATOM      5  N   LIG    1       -3.431  -1.759  -1.871  0.00  0.00    -0.450 NA
ENDROOT
BRANCH   1   9
ATOM      6  C   LIG    1       -6.067  -4.471  -5.398  0.00  0.00    -0.650 A 
ATOM      7  C   LIG    1       -6.972  -3.683  -4.710  0.00  0.00    +0.130 A 
ATOM      8  C   LIG    1       -6.536  -2.849  -3.700  0.00  0.00    +0.040 A 
ATOM      9  C   LIG    1       -5.183  -2.803  -3.373  0.00  0.00    +0.030 A 
ATOM     10  C   LIG    1       -4.275  -3.596  -4.072  0.00  0.00    +0.050 A 
ATOM     11  C   LIG    1       -4.722  -4.430  -5.077  0.00  0.00    +0.130 A 
BRANCH   6  12
ATOM     12  S   LIG    1       -6.630  -5.532  -6.686  0.00  0.00    +2.490 S 
ATOM     13  O   LIG    1       -7.984  -5.803  -6.351  0.00  0.00    -0.930 OA
ATOM     14  O   LIG    1       -5.664  -6.574  -6.730  0.00  0.00    -0.930 OA
BRANCH  12  16
ATOM     15  C   LIG    1       -7.006  -5.334  -9.389  0.00  0.00    +0.100 C 
ATOM     16  C   LIG    1       -6.537  -4.514  -8.185  0.00  0.00    -0.320 C 
ENDBRANCH  12  16
ENDBRANCH   6  12
ENDBRANCH   1   9
BRANCH   4  17
ATOM     17  C   LIG    1       -2.308  -0.369  -0.100  0.00  0.00    +0.300 C 
ATOM     18  C   LIG    1       -2.331  -1.000   1.294  0.00  0.00    +0.080 C 
BRANCH  17  19
ATOM     19  O   LIG    1       -2.396   1.052   0.019  0.00  0.00    -0.290 OA
BRANCH  19  20
ATOM     20  C   LIG    1       -1.235   1.728   0.225  0.00  0.00    +0.080 A 
ATOM     21  C   LIG    1       -0.042   1.038   0.417  0.00  0.00    +0.000 A 
ATOM     22  C   LIG    1        1.115   1.769   0.628  0.00  0.00    +0.040 A 
ATOM     23  C   LIG    1        1.049   3.151   0.636  0.00  0.00    +0.140 A 
ATOM     24  N   LIG    1       -0.098   3.774   0.445  0.00  0.00    -0.440 NA
ATOM     25 CL   LIG    1        2.494   4.077   0.900  0.00  0.00    -0.020 Cl
ATOM     26  C   LIG    1       -1.221   3.114   0.240  0.00  0.00    +0.290 A 
ENDBRANCH  19  20
ENDBRANCH  17  19
ENDBRANCH   4  17
TORSDOF 6
