REMARK  Name = ZINCrH000008uzld.0
REMARK                            x       y       z     vdW  Elec       q    Type
REMARK                         _______ _______ _______ _____ _____    ______ ____
ROOT
ATOM      1  C   LIG    1       -2.405  -4.376  -0.186  0.00  0.00    +0.240 C 
ATOM      2  C   LIG    1       -2.607  -4.763  -1.670  0.00  0.00    +0.030 C 
ATOM      3  C   LIG    1       -3.623  -5.932  -1.586  0.00  0.00    +0.190 C 
ATOM      4  N   LIG    1       -4.526  -5.521  -0.481  0.00  0.00    -0.480 N 
ATOM      5  C   LIG    1       -3.656  -4.902   0.542  0.00  0.00    +0.190 C 
ENDROOT
BRANCH   4   6
ATOM      6  C   LIG    1       -5.210  -6.620   0.042  0.00  0.00    +0.110 A 
ATOM      7  C   LIG    1       -6.595  -6.684  -0.045  0.00  0.00    +0.050 A 
ATOM      8  C   LIG    1       -7.268  -7.776   0.469  0.00  0.00    +0.080 A 
ATOM      9  C   LIG    1       -6.565  -8.799   1.079  0.00  0.00    -0.190 A 
ATOM     10  C   LIG    1       -5.187  -8.736   1.171  0.00  0.00    +0.080 A 
ATOM     11  C   LIG    1       -4.507  -7.650   0.654  0.00  0.00    -0.020 A 
BRANCH   9  12
ATOM     12  C   LIG    1       -7.303  -9.985   1.643  0.00  0.00    +0.510 C 
ATOM     13  F   LIG    1       -6.487 -11.119   1.571  0.00  0.00    -0.180 F 
ATOM     14  F   LIG    1       -8.470 -10.204   0.903  0.00  0.00    -0.180 F 
ATOM     15  F   LIG    1       -7.637  -9.735   2.978  0.00  0.00    -0.180 F 
ENDBRANCH   9  12
ENDBRANCH   4   6
BRANCH   1  17
ATOM     16  C   LIG    1       -1.117  -2.308  -0.171  0.00  0.00    +0.520 C 
ATOM     17  N   LIG    1       -2.311  -2.921  -0.049  0.00  0.00    -0.720 N 
ATOM     18  H   LIG    1       -3.108  -2.398   0.130  0.00  0.00    +0.400 HD
ATOM     19  O   LIG    1       -0.120  -2.962  -0.395  0.00  0.00    -0.530 OA
BRANCH  16  20
ATOM     20  C   LIG    1       -1.020  -0.811  -0.029  0.00  0.00    +0.040 C 
BRANCH  20  21
ATOM     21  C   LIG    1        0.435  -0.374  -0.211  0.00  0.00    +0.130 C 
BRANCH  21  22
ATOM     22  C   LIG    1        0.534   1.146  -0.067  0.00  0.00    +0.040 C 
ATOM     23  N   LIG    1       -0.437   1.833   0.788  0.00  0.00    -0.120 NA
ATOM     24  N   LIG    1       -0.627   1.961  -0.432  0.00  0.00    -0.120 NA
BRANCH  22  25
ATOM     25  C   LIG    1        1.931   1.750  -0.221  0.00  0.00    +0.120 C 
BRANCH  25  26
ATOM     26  C   LIG    1        1.851   3.268  -0.050  0.00  0.00    +0.160 C 
BRANCH  26  28
ATOM     27  C   LIG    1        4.267   4.314  -0.317  0.00  0.00    +0.030 C 
ATOM     28  C   LIG    1        3.195   3.850  -0.199  0.00  0.00    -0.190 C 
ENDBRANCH  26  28
ENDBRANCH  25  26
ENDBRANCH  22  25
ENDBRANCH  21  22
ENDBRANCH  20  21
ENDBRANCH  16  20
ENDBRANCH   1  17
TORSDOF 9
