REMARK  Name = ZINCrD000000fFG5.0
REMARK                            x       y       z     vdW  Elec       q    Type
REMARK                         _______ _______ _______ _____ _____    ______ ____
ROOT
ATOM      1  C   LIG    1       -2.708   0.354  -2.783  0.00  0.00    +0.510 C 
ATOM      2  N   LIG    1       -2.767  -0.218  -4.002  0.00  0.00    -0.720 N 
ATOM      3  H   LIG    1       -2.716  -1.183  -4.088  0.00  0.00    +0.410 HD
ATOM      4  O   LIG    1       -2.773   1.560  -2.675  0.00  0.00    -0.520 OA
ENDROOT
BRANCH   1   5
ATOM      5  C   LIG    1       -2.562  -0.506  -1.554  0.00  0.00    +0.080 C 
BRANCH   5   6
ATOM      6  C   LIG    1       -2.521   0.385  -0.310  0.00  0.00    +0.310 C 
BRANCH   6   7
ATOM      7  C   LIG    1       -2.498  -0.478   0.925  0.00  0.00    -0.100 A 
ATOM      8  C   LIG    1       -1.301  -0.988   1.391  0.00  0.00    +0.010 A 
ATOM      9  C   LIG    1       -1.280  -1.776   2.526  0.00  0.00    +0.000 A 
ATOM     10  C   LIG    1       -2.458  -2.061   3.191  0.00  0.00    +0.000 A 
ATOM     11  C   LIG    1       -3.656  -1.556   2.723  0.00  0.00    +0.000 A 
ATOM     12  C   LIG    1       -3.676  -0.764   1.589  0.00  0.00    +0.020 A 
ENDBRANCH   6   7
BRANCH   6  15
ATOM     13  C   LIG    1        0.027   3.138   0.447  0.00  0.00    +0.100 C 
ATOM     14  C   LIG    1       -1.254   2.345   0.389  0.00  0.00    +0.520 C 
ATOM     15  N   LIG    1       -1.316   1.217  -0.346  0.00  0.00    -0.720 N 
ATOM     16  H   LIG    1       -0.563   0.957  -0.899  0.00  0.00    +0.400 HD
ATOM     17  O   LIG    1       -2.227   2.720   1.008  0.00  0.00    -0.540 OA
ENDBRANCH   6  15
ENDBRANCH   5   6
ENDBRANCH   1   5
BRANCH   2  18
ATOM     18  C   LIG    1       -2.909   0.618  -5.197  0.00  0.00    +0.320 C 
BRANCH  18  19
ATOM     19  C   LIG    1       -2.950  -0.260  -6.421  0.00  0.00    +0.510 C 
ATOM     20  N   LIG    1       -3.077   0.294  -7.644  0.00  0.00    -0.660 N 
ATOM     21  H   LIG    1       -3.203   1.252  -7.731  0.00  0.00    +0.420 HD
ATOM     22  O   LIG    1       -2.869  -1.465  -6.307  0.00  0.00    -0.510 OA
BRANCH  20  23
ATOM     23  C   LIG    1       -3.027  -0.512  -8.786  0.00  0.00    +0.170 A 
ATOM     24  C   LIG    1       -3.549  -1.798  -8.753  0.00  0.00    +0.060 A 
ATOM     25  C   LIG    1       -3.501  -2.591  -9.885  0.00  0.00    -0.010 A 
ATOM     26  C   LIG    1       -2.927  -2.107 -11.047  0.00  0.00    +0.040 A 
ATOM     27  C   LIG    1       -2.402  -0.828 -11.082  0.00  0.00    +0.070 A 
ATOM     28 CL   LIG    1       -4.158  -4.197  -9.847  0.00  0.00    -0.050 Cl
ATOM     29  C   LIG    1       -2.450  -0.029  -9.955  0.00  0.00    -0.060 A 
ATOM     30 CL   LIG    1       -1.790   1.576  -9.999  0.00  0.00    -0.050 Cl
ENDBRANCH  20  23
ENDBRANCH  18  19
ENDBRANCH   2  18
TORSDOF 7
