REMARK  Name = ZINCpk00000y6xUc.0
REMARK                            x       y       z     vdW  Elec       q    Type
REMARK                         _______ _______ _______ _____ _____    ______ ____
ROOT
ATOM      1  N   LIG    1       -1.034   2.178   0.185  0.00  0.00    -0.700 N 
ATOM      2  H   LIG    1       -1.806   1.592   0.152  0.00  0.00    +0.410 HD
ATOM      3  C   LIG    1        0.201   1.659   0.327  0.00  0.00    +0.540 C 
ATOM      4  O   LIG    1        1.168   2.393   0.362  0.00  0.00    -0.440 OA
ENDROOT
BRANCH   3   5
ATOM      5  C   LIG    1        0.381   0.190   0.433  0.00  0.00    +0.040 A 
ATOM      6  C   LIG    1        1.661  -0.368   0.570  0.00  0.00    +0.040 A 
ATOM      7  N   LIG    1        2.904   0.130   0.649  0.00  0.00    -0.500 NA
ATOM      8  C   LIG    1        3.744  -0.876   0.782  0.00  0.00    +0.460 A 
ATOM      9  N   LIG    1        3.087  -2.029   0.799  0.00  0.00    -0.560 NA
ATOM     10  C   LIG    1        1.788  -1.781   0.674  0.00  0.00    +0.230 A 
ATOM     11  N   LIG    1        0.672  -2.562   0.629  0.00  0.00    -0.460 N 
ATOM     12  H   LIG    1        0.761  -3.526   0.697  0.00  0.00    +0.430 HD
ATOM     13  C   LIG    1       -0.546  -2.018   0.493  0.00  0.00    +0.330 A 
ATOM     14  C   LIG    1       -0.723  -0.670   0.394  0.00  0.00    -0.020 A 
ENDBRANCH   3   5
BRANCH   1  17
ATOM     15  C   LIG    1       -2.672   4.125   1.532  0.00  0.00    +0.170 C 
ATOM     16  C   LIG    1       -1.155   4.356   1.433  0.00  0.00    +0.050 C 
ATOM     17  C   LIG    1       -1.211   3.629   0.079  0.00  0.00    +0.170 C 
ATOM     18  C   LIG    1       -2.684   4.065  -0.004  0.00  0.00    -0.060 C 
ATOM     19  C   LIG    1       -3.611   2.987  -0.569  0.00  0.00    +0.060 C 
ATOM     20  C   LIG    1       -2.882   5.429  -0.669  0.00  0.00    +0.090 C 
BRANCH  17  21
ATOM     21  C   LIG    1       -0.335   4.250  -0.977  0.00  0.00    +0.470 C 
ATOM     22  O   LIG    1       -0.648   5.303  -1.480  0.00  0.00    -0.500 OA
BRANCH  21  23
ATOM     23  O   LIG    1        0.795   3.634  -1.360  0.00  0.00    -0.320 OA
ATOM     24  C   LIG    1        1.590   4.290  -2.382  0.00  0.00    +0.250 C 
ENDBRANCH  21  23
ENDBRANCH  17  21
BRANCH  15  25
ATOM     25  O   LIG    1       -3.022   2.889   2.157  0.00  0.00    -0.360 OA
BRANCH  25  27
ATOM     26  C   LIG    1       -3.935   1.658   4.026  0.00  0.00    +0.040 C 
ATOM     27  C   LIG    1       -3.601   3.037   3.455  0.00  0.00    +0.160 C 
ENDBRANCH  25  27
ENDBRANCH  15  25
ENDBRANCH   1  17
TORSDOF 6
