REMARK  Name = ZINCrg00000SjSz6.0
REMARK                            x       y       z     vdW  Elec       q    Type
REMARK                         _______ _______ _______ _____ _____    ______ ____
ROOT
ATOM      1  N   LIG    1       -0.879   2.357   3.540  0.00  0.00    -0.500 NA
ATOM      2  C   LIG    1       -0.643   0.906   3.545  0.00  0.00    +0.190 C 
ATOM      3  C   LIG    1        0.367   0.553   2.450  0.00  0.00    +0.190 C 
ATOM      4  N   LIG    1       -0.152   0.995   1.148  0.00  0.00    -0.490 NA
ATOM      5  C   LIG    1       -0.389   2.445   1.143  0.00  0.00    +0.190 C 
ATOM      6  C   LIG    1       -1.398   2.799   2.239  0.00  0.00    +0.200 C 
ENDROOT
BRANCH   1   7
ATOM      7  C   LIG    1       -1.786   2.746   4.628  0.00  0.00    +0.180 C 
ATOM      8  C   LIG    1       -2.036   4.255   4.569  0.00  0.00    +0.070 C 
BRANCH   7  15
ATOM      9  C   LIG    1       -7.348   0.699   6.192  0.00  0.00    +0.300 C 
ATOM     10  N   LIG    1       -6.076   1.411   6.339  0.00  0.00    -0.740 N 
ATOM     11  H   LIG    1       -5.885   1.900   7.154  0.00  0.00    +0.400 HD
ATOM     12  C   LIG    1       -5.170   1.385   5.341  0.00  0.00    +0.690 C 
ATOM     13  N   LIG    1       -4.000   2.040   5.476  0.00  0.00    -0.690 N 
ATOM     14  H   LIG    1       -3.809   2.529   6.291  0.00  0.00    +0.410 HD
ATOM     15  C   LIG    1       -3.095   2.014   4.478  0.00  0.00    +0.480 C 
ATOM     16  O   LIG    1       -3.333   1.402   3.459  0.00  0.00    -0.450 OA
ATOM     17  O   LIG    1       -5.409   0.771   4.319  0.00  0.00    -0.530 OA
ENDBRANCH   7  15
ENDBRANCH   1   7
BRANCH   4  18
ATOM     18  C   LIG    1        0.755   0.605   0.060  0.00  0.00    +0.270 C 
BRANCH  18  19
ATOM     19  C   LIG    1        0.159   1.016  -1.262  0.00  0.00    -0.070 A 
ATOM     20  C   LIG    1        0.670   2.105  -1.942  0.00  0.00    +0.020 A 
ATOM     21  C   LIG    1        0.123   2.481  -3.155  0.00  0.00    +0.020 A 
ATOM     22  C   LIG    1       -0.935   1.769  -3.687  0.00  0.00    +0.030 A 
ATOM     23  C   LIG    1       -1.447   0.680  -3.008  0.00  0.00    +0.030 A 
ATOM     24  C   LIG    1       -0.896   0.298  -1.797  0.00  0.00    -0.000 A 
ATOM     25 CL   LIG    1       -1.534  -1.075  -0.947  0.00  0.00    -0.050 Cl
ENDBRANCH  18  19
BRANCH  18  26
ATOM     26  C   LIG    1        2.084   1.290   0.246  0.00  0.00    +0.430 C 
ATOM     27  O   LIG    1        2.259   2.026   1.188  0.00  0.00    -0.490 OA
BRANCH  26  28
ATOM     28  O   LIG    1        3.075   1.081  -0.635  0.00  0.00    -0.360 OA
ATOM     29  C   LIG    1        4.329   1.773  -0.394  0.00  0.00    +0.250 C 
ENDBRANCH  26  28
ENDBRANCH  18  26
ENDBRANCH   4  18
TORSDOF 6
