REMARK  Name = ZINCrD000000C1iD.0
REMARK                            x       y       z     vdW  Elec       q    Type
REMARK                         _______ _______ _______ _____ _____    ______ ____
ROOT
ATOM      1  C   LIG    1        3.554   2.499  -0.669  0.00  0.00    +0.000 C 
ATOM      2  C   LIG    1        3.578   2.774   0.853  0.00  0.00    +0.070 C 
ATOM      3  C   LIG    1        2.204   2.355   1.329  0.00  0.00    +0.520 C 
ATOM      4  N   LIG    1        1.368   2.238   0.283  0.00  0.00    -0.620 N 
ATOM      5  O   LIG    1        1.903   2.151   2.486  0.00  0.00    -0.520 OA
ATOM      6  C   LIG    1        2.042   2.571  -0.978  0.00  0.00    +0.310 C 
ENDROOT
BRANCH   1   8
ATOM      7  O   LIG    1        3.714   4.329  -2.150  0.00  0.00    -0.510 OA
ATOM      8  C   LIG    1        4.309   3.564  -1.421  0.00  0.00    +0.530 C 
ATOM      9  N   LIG    1        5.646   3.666  -1.285  0.00  0.00    -0.670 N 
ATOM     10  H   LIG    1        6.112   3.105  -0.645  0.00  0.00    +0.410 HD
BRANCH   9  11
ATOM     11  C   LIG    1        6.362   4.582  -2.067  0.00  0.00    +0.130 A 
ATOM     12  C   LIG    1        5.948   4.863  -3.361  0.00  0.00    +0.040 A 
ATOM     13  C   LIG    1        6.652   5.769  -4.130  0.00  0.00    +0.010 A 
ATOM     14  C   LIG    1        7.779   6.390  -3.612  0.00  0.00    +0.090 A 
ATOM     15  C   LIG    1        8.196   6.106  -2.320  0.00  0.00    +0.000 A 
ATOM     16  C   LIG    1        7.490   5.204  -1.549  0.00  0.00    +0.000 A 
BRANCH  14  17
ATOM     17  O   LIG    1        8.474   7.278  -4.371  0.00  0.00    -0.500 OA
ATOM     18  H   LIG    1        9.179   6.877  -4.898  0.00  0.00    +0.390 HD
ENDBRANCH  14  17
ENDBRANCH   9  11
ENDBRANCH   1   8
BRANCH   4  19
ATOM     19  C   LIG    1       -0.037   1.837   0.389  0.00  0.00    +0.370 C 
BRANCH  19  20
ATOM     20  C   LIG    1       -0.141   0.338   0.268  0.00  0.00    -0.110 A 
ATOM     21  C   LIG    1       -0.314  -0.244  -0.974  0.00  0.00    +0.060 A 
ATOM     22  C   LIG    1       -0.406  -1.619  -1.085  0.00  0.00    +0.020 A 
ATOM     23  C   LIG    1       -0.334  -2.411   0.045  0.00  0.00    +0.080 A 
ATOM     24  C   LIG    1       -0.167  -1.828   1.288  0.00  0.00    -0.180 A 
ATOM     25  C   LIG    1       -0.070  -0.454   1.399  0.00  0.00    +0.090 A 
BRANCH  24  26
ATOM     26  C   LIG    1       -0.089  -2.691   2.521  0.00  0.00    +0.510 C 
ATOM     27  F   LIG    1        0.715  -2.064   3.479  0.00  0.00    -0.170 F 
ATOM     28  F   LIG    1        0.463  -3.932   2.187  0.00  0.00    -0.180 F 
ATOM     29  F   LIG    1       -1.375  -2.877   3.041  0.00  0.00    -0.180 F 
ENDBRANCH  24  26
ENDBRANCH  19  20
ENDBRANCH   4  19
TORSDOF 6
