REMARK  Name = ZINCrH000005q3t1.0
REMARK                            x       y       z     vdW  Elec       q    Type
REMARK                         _______ _______ _______ _____ _____    ______ ____
ROOT
ATOM      1  C   LIG    1       -1.150   1.781  -0.743  0.00  0.00    +0.100 C 
ATOM      2  C   LIG    1       -0.013   1.086   0.008  0.00  0.00    +0.030 C 
ATOM      3  C   LIG    1       -1.136   1.773   0.788  0.00  0.00    +0.030 C 
ENDROOT
BRANCH   1   4
ATOM      4  C   LIG    1       -0.830   3.102  -1.445  0.00  0.00    +0.030 C 
ATOM      5  C   LIG    1       -0.225   4.082  -0.437  0.00  0.00    +0.030 C 
ATOM      6  C   LIG    1        0.127   5.391  -1.151  0.00  0.00    +0.280 C 
ATOM      7  N   LIG    1       -1.072   5.893  -1.835  0.00  0.00    -0.610 N 
ATOM      8  C   LIG    1       -1.784   5.000  -2.759  0.00  0.00    +0.280 C 
ATOM      9  C   LIG    1       -1.510   7.149  -1.620  0.00  0.00    +0.530 C 
ATOM     10  O   LIG    1       -2.501   7.552  -2.190  0.00  0.00    -0.510 OA
ATOM     11  C   LIG    1       -2.115   3.695  -2.027  0.00  0.00    +0.020 C 
BRANCH   9  12
ATOM     12  C   LIG    1       -0.768   8.053  -0.669  0.00  0.00    +0.100 C 
BRANCH  12  13
ATOM     13  S   LIG    1       -1.599   9.664  -0.595  0.00  0.00    -0.130 S 
BRANCH  13  14
ATOM     14  C   LIG    1       -0.576  10.596   0.579  0.00  0.00    +0.240 C 
BRANCH  14  15
ATOM     15  C   LIG    1       -1.133  11.948   0.748  0.00  0.00    +0.220 C 
ATOM     16  N   LIG    1       -1.562  12.992   0.878  0.00  0.00    -0.400 NA
ENDBRANCH  14  15
ENDBRANCH  13  14
ENDBRANCH  12  13
ENDBRANCH   9  12
ENDBRANCH   1   4
BRANCH   1  18
ATOM     17  C   LIG    1       -2.487  -0.252  -0.873  0.00  0.00    +0.510 C 
ATOM     18  N   LIG    1       -2.136   0.931  -1.415  0.00  0.00    -0.700 N 
ATOM     19  H   LIG    1       -2.537   1.220  -2.250  0.00  0.00    +0.400 HD
ATOM     20  O   LIG    1       -1.986  -0.613   0.171  0.00  0.00    -0.530 OA
BRANCH  17  21
ATOM     21  C   LIG    1       -3.501  -1.127  -1.564  0.00  0.00    +0.040 C 
BRANCH  21  22
ATOM     22  C   LIG    1       -3.717  -2.401  -0.746  0.00  0.00    +0.040 C 
BRANCH  22  23
ATOM     23  C   LIG    1       -4.747  -3.289  -1.448  0.00  0.00    +0.000 C 
BRANCH  23  24
ATOM     24  C   LIG    1       -4.963  -4.564  -0.630  0.00  0.00    +0.000 C 
BRANCH  24  25
ATOM     25  C   LIG    1       -5.992  -5.452  -1.332  0.00  0.00    -0.020 C 
ATOM     26  C   LIG    1       -5.429  -5.923  -2.674  0.00  0.00    +0.020 C 
BRANCH  25  28
ATOM     27  C   LIG    1       -7.420  -7.489  -1.096  0.00  0.00    +0.000 C 
ATOM     28  C   LIG    1       -6.301  -6.667  -0.454  0.00  0.00    +0.000 C 
ENDBRANCH  25  28
ENDBRANCH  24  25
ENDBRANCH  23  24
ENDBRANCH  22  23
ENDBRANCH  21  22
ENDBRANCH  17  21
ENDBRANCH   1  18
TORSDOF 12
