REMARK  Name = ZINCpe000000Y1HU.0
REMARK                            x       y       z     vdW  Elec       q    Type
REMARK                         _______ _______ _______ _____ _____    ______ ____
ROOT
ATOM      1  C   LIG    1        0.002  -0.004   0.002  0.00  0.00    +0.550 C 
ATOM      2  N   LIG    1       -0.027   1.330  -0.189  0.00  0.00    -0.600 N 
ATOM      3  C   LIG    1       -1.284   2.079  -0.433  0.00  0.00    +0.270 C 
ATOM      4  C   LIG    1       -1.178   2.953  -1.673  0.00  0.00    +0.030 C 
ATOM      5  C   LIG    1        0.127   3.769  -1.701  0.00  0.00    +0.000 C 
ATOM      6  C   LIG    1        1.267   2.779  -1.601  0.00  0.00    -0.020 C 
ATOM      7  C   LIG    1        2.680   3.335  -1.524  0.00  0.00    +0.280 C 
ATOM      8  N   LIG    1        3.397   2.298  -0.743  0.00  0.00    -0.750 N 
ATOM      9  H   LIG    1        4.359   2.173  -0.744  0.00  0.00    +0.410 HD
ATOM     10  C   LIG    1        2.518   1.544  -0.023  0.00  0.00    +0.520 C 
ATOM     11  O   LIG    1        2.788   0.556   0.628  0.00  0.00    -0.470 OA
ATOM     12  C   LIG    1        0.229   4.552  -3.011  0.00  0.00    +0.030 C 
ATOM     13  C   LIG    1        1.168   2.148  -0.180  0.00  0.00    +0.210 C 
ATOM     14  O   LIG    1        1.067  -0.584   0.076  0.00  0.00    -0.470 OA
ENDROOT
BRANCH   1  22
ATOM     15  C   LIG    1       -6.993  -0.463   2.224  0.00  0.00    +0.190 C 
ATOM     16  C   LIG    1       -5.799  -1.089   1.551  0.00  0.00    +0.450 A 
ATOM     17  N   LIG    1       -5.917  -2.302   1.085  0.00  0.00    -0.600 NA
ATOM     18  C   LIG    1       -4.895  -2.929   0.472  0.00  0.00    +0.530 A 
ATOM     19  C   LIG    1       -3.618  -2.202   0.333  0.00  0.00    -0.190 A 
ATOM     20  C   LIG    1       -2.509  -2.773  -0.287  0.00  0.00    +0.120 A 
ATOM     21  C   LIG    1       -1.348  -2.061  -0.391  0.00  0.00    +0.040 A 
ATOM     22  C   LIG    1       -1.264  -0.762   0.122  0.00  0.00    -0.060 A 
ATOM     23  C   LIG    1       -2.362  -0.181   0.749  0.00  0.00    +0.010 A 
ATOM     24  C   LIG    1       -3.546  -0.897   0.853  0.00  0.00    +0.170 A 
ATOM     25  O   LIG    1       -5.022  -4.062   0.043  0.00  0.00    -0.470 OA
ATOM     26  N   LIG    1       -4.668  -0.368   1.460  0.00  0.00    -0.620 N 
ATOM     27  H   LIG    1       -4.640   0.530   1.825  0.00  0.00    +0.420 HD
ENDBRANCH   1  22
TORSDOF 1
