REMARK  Name = ZINCpk00000y6uW5.0
REMARK                            x       y       z     vdW  Elec       q    Type
REMARK                         _______ _______ _______ _____ _____    ______ ____
ROOT
ATOM      1  C   LIG    1       -1.238   2.188   0.020  0.00  0.00    +0.270 C 
ATOM      2  C   LIG    1       -2.085   1.946  -1.251  0.00  0.00    +0.080 C 
ATOM      3  C   LIG    1       -2.564   3.372  -1.624  0.00  0.00    +0.180 C 
ATOM      4  N   LIG    1       -1.389   4.221  -1.299  0.00  0.00    -0.510 NA
ATOM      5  C   LIG    1       -0.829   3.671  -0.045  0.00  0.00    +0.200 C 
ENDROOT
BRANCH   1   6
ATOM      6  C   LIG    1       -0.016   1.307   0.009  0.00  0.00    +0.170 A 
ATOM      7  N   LIG    1        0.002  -0.004   0.002  0.00  0.00    -0.420 NA
ATOM      8  C   LIG    1        1.302  -0.348  -0.012  0.00  0.00    +0.160 A 
ATOM      9  N   LIG    1        1.996   0.750  -0.013  0.00  0.00    -0.380 NA
ATOM     10  C   LIG    1        1.853  -1.751  -0.025  0.00  0.00    +0.210 C 
ATOM     11  O   LIG    1        1.258   1.713  -0.001  0.00  0.00    +0.080 OA
ENDBRANCH   1   6
BRANCH   1  14
ATOM     12  C   LIG    1       -3.347   0.433   2.690  0.00  0.00    +0.100 C 
ATOM     13  C   LIG    1       -2.525   0.697   1.455  0.00  0.00    +0.500 C 
ATOM     14  N   LIG    1       -2.038   1.931   1.220  0.00  0.00    -0.730 N 
ATOM     15  H   LIG    1       -2.218   2.650   1.846  0.00  0.00    +0.410 HD
ATOM     16  O   LIG    1       -2.300  -0.202   0.672  0.00  0.00    -0.490 OA
ENDBRANCH   1  14
BRANCH   4  17
ATOM     17  C   LIG    1       -1.786   5.625  -1.127  0.00  0.00    +0.260 C 
BRANCH  17  18
ATOM     18  C   LIG    1       -2.183   6.202  -2.461  0.00  0.00    -0.240 A 
ATOM     19  C   LIG    1       -1.359   6.825  -3.336  0.00  0.00    +0.250 A 
ATOM     20  N   LIG    1       -2.096   7.190  -4.406  0.00  0.00    -0.370 N 
ATOM     21  N   LIG    1       -3.418   6.785  -4.178  0.00  0.00    -0.290 NA
ATOM     22  C   LIG    1       -3.469   6.193  -3.012  0.00  0.00    +0.230 A 
BRANCH  20  23
ATOM     23  C   LIG    1       -1.603   7.890  -5.594  0.00  0.00    +0.320 C 
BRANCH  23  24
ATOM     24  C   LIG    1       -1.964   7.088  -6.846  0.00  0.00    -0.020 C 
ATOM     25  C   LIG    1       -1.222   5.750  -6.827  0.00  0.00    +0.020 C 
ATOM     26  C   LIG    1       -1.560   7.878  -8.092  0.00  0.00    +0.030 C 
ENDBRANCH  23  24
ENDBRANCH  20  23
ENDBRANCH  17  18
ENDBRANCH   4  17
TORSDOF 6
