REMARK  Name = ZINCpk00000k1gHj.0
REMARK                            x       y       z     vdW  Elec       q    Type
REMARK                         _______ _______ _______ _____ _____    ______ ____
ROOT
ATOM      1  C   LIG    1        0.550  -4.237   2.657  0.00  0.00    +0.530 C 
ATOM      2  N   LIG    1        0.621  -5.460   2.095  0.00  0.00    -0.600 N 
ATOM      3  C   LIG    1        1.526  -5.707   0.965  0.00  0.00    +0.270 C 
ATOM      4  C   LIG    1        0.717  -6.240  -0.216  0.00  0.00    +0.050 C 
ATOM      5  C   LIG    1       -0.141  -7.416   0.262  0.00  0.00    -0.110 C 
ATOM      6  C   LIG    1        0.465  -8.817   0.178  0.00  0.00    +0.050 C 
ATOM      7  C   LIG    1       -1.060  -7.109   1.449  0.00  0.00    +0.070 C 
ATOM      8  C   LIG    1       -0.645  -8.403  -0.790  0.00  0.00    +0.100 C 
ATOM      9  C   LIG    1       -0.210  -6.559   2.601  0.00  0.00    +0.280 C 
ATOM     10  O   LIG    1       -0.204  -4.040   3.587  0.00  0.00    -0.530 OA
ENDROOT
BRANCH   1  14
ATOM     11  C   LIG    1        1.439   0.683   2.273  0.00  0.00    +0.300 C 
ATOM     12  N   LIG    1        1.252  -0.730   1.936  0.00  0.00    -0.620 N 
ATOM     13  C   LIG    1        1.160  -1.812   2.923  0.00  0.00    +0.300 C 
ATOM     14  C   LIG    1        1.407  -3.115   2.131  0.00  0.00    -0.010 C 
ATOM     15  C   LIG    1        0.969  -2.705   0.705  0.00  0.00    +0.080 C 
ATOM     16  C   LIG    1        1.136  -1.202   0.682  0.00  0.00    +0.520 C 
ATOM     17  O   LIG    1        1.165  -0.521  -0.321  0.00  0.00    -0.530 OA
ENDBRANCH   1  14
BRANCH   8  18
ATOM     18  N   LIG    1       -1.976  -8.990  -0.587  0.00  0.00    -0.500 NA
ATOM     19  C   LIG    1       -2.160 -10.181  -1.427  0.00  0.00    +0.200 C 
BRANCH  18  20
ATOM     20  C   LIG    1       -3.032  -8.000  -0.838  0.00  0.00    +0.300 C 
BRANCH  20  21
ATOM     21  C   LIG    1       -4.343  -8.517  -0.302  0.00  0.00    +0.060 A 
ATOM     22  N   LIG    1       -4.782  -8.317   0.894  0.00  0.00    -0.460 NA
ATOM     23  C   LIG    1       -5.952  -8.841   1.200  0.00  0.00    +0.220 A 
ATOM     24  C   LIG    1       -6.532  -9.521   0.206  0.00  0.00    -0.080 A 
ATOM     25  S   LIG    1       -5.466  -9.447  -1.195  0.00  0.00    +0.110 S 
ENDBRANCH  20  21
ENDBRANCH  18  20
ENDBRANCH   8  18
TORSDOF 4
