REMARK  Name = ZINCpk00000y6v5u.0
REMARK                            x       y       z     vdW  Elec       q    Type
REMARK                         _______ _______ _______ _____ _____    ______ ____
ROOT
ATOM      1  N   LIG    1        2.325  -4.146  -3.429  0.00  0.00    -0.740 N 
ATOM      2  H   LIG    1        2.582  -3.582  -2.682  0.00  0.00    +0.400 HD
ATOM      3  C   LIG    1        3.226  -4.451  -4.384  0.00  0.00    +0.710 C 
ATOM      4  N   LIG    1        4.508  -4.058  -4.252  0.00  0.00    -0.630 N 
ATOM      5  C   LIG    1        4.926  -3.201  -3.131  0.00  0.00    +0.250 C 
ATOM      6  C   LIG    1        5.716  -2.015  -3.696  0.00  0.00    +0.140 C 
ATOM      7  O   LIG    1        6.758  -2.505  -4.543  0.00  0.00    -0.350 OA
ATOM      8  C   LIG    1        6.292  -3.225  -5.688  0.00  0.00    +0.150 C 
ATOM      9  C   LIG    1        6.326  -1.213  -2.546  0.00  0.00    +0.080 C 
ATOM     10  C   LIG    1        5.533  -4.477  -5.221  0.00  0.00    +0.300 C 
ATOM     11  O   LIG    1        2.881  -5.081  -5.365  0.00  0.00    -0.580 OA
ENDROOT
BRANCH   8  12
ATOM     12  C   LIG    1        7.468  -3.637  -6.536  0.00  0.00    +0.530 C 
ATOM     13  O   LIG    1        8.598  -3.424  -6.151  0.00  0.00    -0.510 OA
ATOM     14  N   LIG    1        7.263  -4.242  -7.722  0.00  0.00    -0.850 N 
ATOM     15  H   LIG    1        8.020  -4.507  -8.268  0.00  0.00    +0.410 HD
ATOM     16  H   LIG    1        6.359  -4.413  -8.030  0.00  0.00    +0.400 HD
ENDBRANCH   8  12
BRANCH   1  17
ATOM     17  C   LIG    1        0.958  -4.665  -3.518  0.00  0.00    +0.310 C 
BRANCH  17  18
ATOM     18  C   LIG    1        0.146  -4.173  -2.318  0.00  0.00    +0.160 C 
BRANCH  18  20
ATOM     19  C   LIG    1       -2.010  -4.422  -1.081  0.00  0.00    +0.020 C 
ATOM     20  C   LIG    1       -1.242  -4.815  -2.345  0.00  0.00    +0.020 C 
ENDBRANCH  18  20
BRANCH  18  21
ATOM     21  O   LIG    1        0.016  -2.752  -2.382  0.00  0.00    -0.300 OA
BRANCH  21  22
ATOM     22  C   LIG    1        0.080  -2.073  -1.206  0.00  0.00    +0.130 A 
ATOM     23  C   LIG    1        0.050  -0.686  -1.202  0.00  0.00    -0.030 A 
ATOM     24  C   LIG    1        0.115   0.001  -0.005  0.00  0.00    +0.050 A 
ATOM     25  C   LIG    1        0.210  -0.692   1.187  0.00  0.00    -0.040 A 
ATOM     26  C   LIG    1        0.240  -2.074   1.186  0.00  0.00    -0.050 A 
ATOM     27  C   LIG    1        0.345  -2.827   2.487  0.00  0.00    +0.090 C 
ATOM     28  C   LIG    1        0.181  -2.766  -0.008  0.00  0.00    -0.080 A 
ENDBRANCH  21  22
ENDBRANCH  18  21
ENDBRANCH  17  18
ENDBRANCH   1  17
TORSDOF 6
