REMARK  Name = ZINCpe000000XMgz.0
REMARK                            x       y       z     vdW  Elec       q    Type
REMARK                         _______ _______ _______ _____ _____    ______ ____
ROOT
ATOM      1  C   LIG    1        2.870   4.201  -1.422  0.00  0.00    +0.520 C 
ATOM      2  N   LIG    1        4.006   4.881  -1.675  0.00  0.00    -0.620 N 
ATOM      3  C   LIG    1        4.843   5.375  -0.573  0.00  0.00    +0.270 C 
ATOM      4  C   LIG    1        6.269   4.830  -0.764  0.00  0.00    +0.270 C 
ATOM      5  N   LIG    1        6.690   5.096  -2.147  0.00  0.00    -0.620 N 
ATOM      6  C   LIG    1        5.850   4.607  -3.249  0.00  0.00    +0.290 C 
ATOM      7  C   LIG    1        7.826   5.776  -2.399  0.00  0.00    +0.520 C 
ATOM      8  O   LIG    1        8.163   5.989  -3.545  0.00  0.00    -0.510 OA
ATOM      9  C   LIG    1        4.427   5.146  -3.058  0.00  0.00    +0.280 C 
ATOM     10  O   LIG    1        2.185   3.803  -2.340  0.00  0.00    -0.520 OA
ENDROOT
BRANCH   1  11
ATOM     11  C   LIG    1        2.451   3.937   0.001  0.00  0.00    +0.100 C 
BRANCH  11  16
ATOM     12  C   LIG    1       -2.514   0.980   0.019  0.00  0.00    +0.090 C 
ATOM     13  C   LIG    1       -1.219   1.751   0.017  0.00  0.00    -0.080 A 
ATOM     14  C   LIG    1       -0.013   1.076   0.008  0.00  0.00    +0.000 A 
ATOM     15  C   LIG    1        1.175   1.783   0.000  0.00  0.00    +0.020 A 
ATOM     16  C   LIG    1        1.156   3.165   0.008  0.00  0.00    -0.080 A 
ATOM     17  C   LIG    1       -0.050   3.840   0.023  0.00  0.00    +0.020 A 
ATOM     18  C   LIG    1       -1.238   3.133   0.029  0.00  0.00    +0.000 A 
ENDBRANCH  11  16
ENDBRANCH   1  11
BRANCH   7  19
ATOM     19  C   LIG    1        8.677   6.271  -1.258  0.00  0.00    +0.190 C 
BRANCH  19  20
ATOM     20  C   LIG    1        9.880   6.995  -1.807  0.00  0.00    +0.180 A 
ATOM     21  N   LIG    1       10.751   6.517  -2.653  0.00  0.00    -0.260 NA
ATOM     22  N   LIG    1       11.643   7.407  -2.906  0.00  0.00    -0.290 NA
ATOM     23  C   LIG    1       11.388   8.491  -2.224  0.00  0.00    +0.180 A 
ATOM     24  C   LIG    1       12.195   9.763  -2.233  0.00  0.00    +0.200 C 
ATOM     25  N   LIG    1       10.261   8.260  -1.507  0.00  0.00    -0.580 N 
ATOM     26  H   LIG    1        9.818   8.875  -0.903  0.00  0.00    +0.430 HD
ENDBRANCH  19  20
ENDBRANCH   7  19
TORSDOF 4
