REMARK  Name = ZINCtj0000000JtV.0
REMARK                            x       y       z     vdW  Elec       q    Type
REMARK                         _______ _______ _______ _____ _____    ______ ____
ROOT
ATOM      1  N   LIG    1        3.482   0.970   0.858  0.00  0.00    -0.980 NA
ENDROOT
BRANCH   1   2
ATOM      2  C   LIG    1        2.246   0.601   0.163  0.00  0.00    +0.290 C 
ATOM      3  C   LIG    1        1.435  -0.374   1.034  0.00  0.00    +0.070 C 
ATOM      4  C   LIG    1        0.019  -0.456   0.408  0.00  0.00    -0.290 C 
ATOM      5  S   LIG    1       -0.339   1.296   0.002  0.00  0.00    +2.390 S 
ATOM      6  O   LIG    1       -0.980   1.914   1.109  0.00  0.00    -0.930 OA
ATOM      7  O   LIG    1       -0.925   1.369  -1.290  0.00  0.00    -0.910 OA
ATOM      8  C   LIG    1        1.398   1.863  -0.086  0.00  0.00    -0.320 C 
ENDBRANCH   1   2
BRANCH   1   9
ATOM      9  S   LIG    1        4.951   0.600   0.188  0.00  0.00    +2.690 S 
ATOM     10  O   LIG    1        4.709  -0.424  -0.767  0.00  0.00    -0.930 OA
ATOM     11  O   LIG    1        5.860   0.455   1.270  0.00  0.00    -0.940 OA
BRANCH   9  12
ATOM     12  C   LIG    1        5.480   2.013  -0.722  0.00  0.00    -0.690 A 
ATOM     13  C   LIG    1        4.862   3.230  -0.524  0.00  0.00    +0.170 A 
ATOM     14  C   LIG    1        5.283   4.349  -1.245  0.00  0.00    -0.150 A 
ATOM     15  C   LIG    1        6.328   4.228  -2.163  0.00  0.00    +0.150 A 
ATOM     16  C   LIG    1        6.938   3.005  -2.351  0.00  0.00    +0.010 A 
ATOM     17  C   LIG    1        6.519   1.901  -1.629  0.00  0.00    +0.060 A 
ATOM     18  C   LIG    1        7.194   0.570  -1.835  0.00  0.00    +0.120 C 
BRANCH  14  19
ATOM     19  C   LIG    1        4.625   5.656  -1.039  0.00  0.00    +0.510 C 
ATOM     20  O   LIG    1        3.715   5.758  -0.240  0.00  0.00    -0.510 OA
BRANCH  19  21
ATOM     21  O   LIG    1        5.033   6.733  -1.736  0.00  0.00    -0.350 OA
ATOM     22  C   LIG    1        4.341   7.984  -1.482  0.00  0.00    +0.290 C 
ENDBRANCH  19  21
ENDBRANCH  14  19
ENDBRANCH   9  12
ENDBRANCH   1   9
BRANCH   1  23
ATOM     23  C   LIG    1        3.419   1.667   2.145  0.00  0.00    +0.300 C 
BRANCH  23  24
ATOM     24  C   LIG    1        3.392   0.641   3.280  0.00  0.00    +0.230 C 
BRANCH  24  25
ATOM     25  N   LIG    1        3.223   1.335   4.563  0.00  0.00    -0.380 N 
ATOM     26  H   LIG    1        3.938   2.039   4.661  0.00  0.00    +0.430 HD
BRANCH  25  28
ATOM     27  C   LIG    1        1.770   2.796   5.887  0.00  0.00    +0.080 C 
ATOM     28  C   LIG    1        1.899   1.970   4.605  0.00  0.00    +0.240 C 
ENDBRANCH  25  28
BRANCH  25  29
ATOM     29  C   LIG    1        3.336   0.366   5.662  0.00  0.00    +0.250 C 
ATOM     30  C   LIG    1        4.761  -0.188   5.709  0.00  0.00    +0.080 C 
ENDBRANCH  25  29
ENDBRANCH  24  25
ENDBRANCH  23  24
ENDBRANCH   1  23
TORSDOF 10
