REMARK  Name = ZINCkj000005iw9W.0
REMARK                            x       y       z     vdW  Elec       q    Type
REMARK                         _______ _______ _______ _____ _____    ______ ____
ROOT
ATOM      1  C   LIG    1       -0.019   1.526   0.010  0.00  0.00    +0.230 C 
ENDROOT
BRANCH   1   2
ATOM      2  O   LIG    1        1.322   2.020   0.000  0.00  0.00    -0.540 OA
ATOM      3  H   LIG    1        1.837   1.746  -0.771  0.00  0.00    +0.390 HD
ENDBRANCH   1   2
BRANCH   1   4
ATOM      4  C   LIG    1        0.002  -0.004   0.002  0.00  0.00    +0.250 C 
BRANCH   4   5
ATOM      5  N   LIG    1        0.606  -0.492   1.249  0.00  0.00    -0.500 N 
ATOM      6  H   LIG    1        0.063  -0.168   2.035  0.00  0.00    +0.430 HD
ATOM      7  H   LIG    1        1.550  -0.144   1.325  0.00  0.00    +0.440 HD
BRANCH   5   8
ATOM      8  C   LIG    1        0.626  -1.961   1.241  0.00  0.00    +0.290 C 
BRANCH   8   9
ATOM      9  C   LIG    1        1.255  -2.470   2.539  0.00  0.00    +0.160 C 
BRANCH   9  11
ATOM     10  C   LIG    1        3.034  -1.784   3.992  0.00  0.00    +0.230 C 
ATOM     11  O   LIG    1        2.591  -1.976   2.647  0.00  0.00    -0.380 OA
ENDBRANCH   9  11
BRANCH   9  12
ATOM     12  C   LIG    1        1.276  -4.000   2.531  0.00  0.00    +0.190 C 
BRANCH  12  13
ATOM     13  O   LIG    1        1.944  -4.461   1.355  0.00  0.00    -0.570 OA
ATOM     14  H   LIG    1        1.995  -5.424   1.284  0.00  0.00    +0.400 HD
ENDBRANCH  12  13
ENDBRANCH   9  12
ENDBRANCH   8   9
ENDBRANCH   5   8
ENDBRANCH   4   5
ENDBRANCH   1   4
BRANCH   1  15
ATOM     15  C   LIG    1       -0.759   2.033  -1.229  0.00  0.00    +0.200 C 
BRANCH  15  16
ATOM     16  O   LIG    1       -0.880   3.455  -1.163  0.00  0.00    -0.290 OA
BRANCH  16  17
ATOM     17  C   LIG    1       -1.517   4.068  -2.195  0.00  0.00    +0.150 A 
ATOM     18  C   LIG    1       -2.010   3.317  -3.252  0.00  0.00    -0.060 A 
ATOM     19  C   LIG    1       -2.663   3.943  -4.298  0.00  0.00    +0.020 A 
ATOM     20  C   LIG    1       -2.814   5.318  -4.297  0.00  0.00    +0.020 A 
ATOM     21  C   LIG    1       -2.318   6.069  -3.246  0.00  0.00    +0.020 A 
ATOM     22 CL   LIG    1       -2.510   7.795  -3.248  0.00  0.00    -0.030 Cl
ATOM     23 CL   LIG    1       -3.287   3.002  -5.617  0.00  0.00    -0.040 Cl
ATOM     24  C   LIG    1       -1.670   5.447  -2.195  0.00  0.00    +0.020 A 
ENDBRANCH  16  17
ENDBRANCH  15  16
ENDBRANCH   1  15
TORSDOF 11
