REMARK  Name = ZINCrD000007251N.0
REMARK                            x       y       z     vdW  Elec       q    Type
REMARK                         _______ _______ _______ _____ _____    ______ ____
ROOT
ATOM      1  C   LIG    1        1.128   3.734   0.195  0.00  0.00    +0.260 C 
ENDROOT
BRANCH   1   4
ATOM      2  N   LIG    1       -0.252   1.715  -0.172  0.00  0.00    -0.670 N 
ATOM      3  H   LIG    1       -1.040   2.279  -0.118  0.00  0.00    +0.410 HD
ATOM      4  C   LIG    1        0.976   2.263  -0.095  0.00  0.00    +0.500 C 
ATOM      5  O   LIG    1        1.960   1.573  -0.260  0.00  0.00    -0.500 OA
BRANCH   2   9
ATOM      6  C   LIG    1       -0.670  -2.405  -0.665  0.00  0.00    +0.120 A 
ATOM      7  C   LIG    1       -1.583  -1.703   0.108  0.00  0.00    +0.000 A 
ATOM      8  C   LIG    1       -1.446  -0.339   0.271  0.00  0.00    +0.030 A 
ATOM      9  C   LIG    1       -0.392   0.330  -0.338  0.00  0.00    +0.100 A 
ATOM     10  C   LIG    1        0.519  -0.372  -1.114  0.00  0.00    +0.060 A 
ATOM     11  C   LIG    1        0.383  -1.737  -1.273  0.00  0.00    -0.060 A 
BRANCH   6  12
ATOM     12  O   LIG    1       -0.806  -3.748  -0.826  0.00  0.00    -0.320 OA
BRANCH  12  14
ATOM     13  C   LIG    1       -0.146  -5.903  -1.699  0.00  0.00    +0.070 C 
ATOM     14  C   LIG    1        0.170  -4.407  -1.634  0.00  0.00    +0.170 C 
ENDBRANCH  12  14
ENDBRANCH   6  12
ENDBRANCH   2   9
ENDBRANCH   1   4
BRANCH   1  15
ATOM     15  C   LIG    1        0.670   4.021   1.627  0.00  0.00    +0.000 C 
ATOM     16  C   LIG    1        0.803   5.518   1.914  0.00  0.00    +0.040 C 
ATOM     17  C   LIG    1        1.542   3.234   2.608  0.00  0.00    +0.030 C 
ENDBRANCH   1  15
BRANCH   1  18
ATOM     18  N   LIG    1        2.533   4.119   0.045  0.00  0.00    -1.090 NA
ATOM     19  H   LIG    1        3.157   3.971   0.773  0.00  0.00    +0.430 HD
BRANCH  18  20
ATOM     20  S   LIG    1        3.057   4.809  -1.367  0.00  0.00    +2.690 S 
ATOM     21  O   LIG    1        2.610   3.962  -2.417  0.00  0.00    -0.950 OA
ATOM     22  O   LIG    1        4.423   5.144  -1.167  0.00  0.00    -0.950 OA
BRANCH  20  23
ATOM     23  C   LIG    1        2.193   6.333  -1.554  0.00  0.00    -0.680 A 
ATOM     24  C   LIG    1        0.943   6.351  -2.145  0.00  0.00    +0.120 A 
ATOM     25  C   LIG    1        0.263   7.546  -2.288  0.00  0.00    -0.010 A 
ATOM     26  C   LIG    1        0.838   8.725  -1.850  0.00  0.00    -0.030 A 
ATOM     27  C   LIG    1        2.089   8.707  -1.264  0.00  0.00    -0.010 A 
ATOM     28  C   LIG    1        0.099  10.028  -2.010  0.00  0.00    +0.090 C 
ATOM     29  C   LIG    1        2.767   7.511  -1.117  0.00  0.00    +0.130 A 
ENDBRANCH  20  23
ENDBRANCH  18  20
ENDBRANCH   1  18
TORSDOF 8
