REMARK  Name = ZINCpe00000yZUHs.0
REMARK                            x       y       z     vdW  Elec       q    Type
REMARK                         _______ _______ _______ _____ _____    ______ ____
ROOT
ATOM      1  C   LIG    1        4.685   1.087   1.069  0.00  0.00    +0.010 C 
ENDROOT
BRANCH   1   7
ATOM      2  C   LIG    1       -0.014   1.209   0.009  0.00  0.00    +0.520 C 
ATOM      3  N   LIG    1        1.143   1.898   0.001  0.00  0.00    -0.610 N 
ATOM      4  C   LIG    1        1.140   3.368   0.009  0.00  0.00    +0.260 C 
ATOM      5  C   LIG    1        2.010   3.857   1.171  0.00  0.00    +0.030 C 
ATOM      6  C   LIG    1        3.402   3.232   1.059  0.00  0.00    +0.050 C 
ATOM      7  C   LIG    1        3.289   1.709   1.148  0.00  0.00    +0.130 C 
ATOM      8  C   LIG    1        2.434   1.195  -0.009  0.00  0.00    +0.260 C 
ATOM      9  O   LIG    1        0.002  -0.004   0.002  0.00  0.00    -0.530 OA
BRANCH   7  10
ATOM     10  O   LIG    1        2.676   1.348   2.388  0.00  0.00    -0.550 OA
ATOM     11  H   LIG    1        2.572   0.395   2.512  0.00  0.00    +0.380 HD
ENDBRANCH   7  10
BRANCH   2  12
ATOM     12  C   LIG    1       -1.330   1.944   0.019  0.00  0.00    +0.050 C 
BRANCH  12  14
ATOM     13  C   LIG    1       -3.811   1.678  -0.097  0.00  0.00    +0.040 C 
ATOM     14  C   LIG    1       -2.479   0.934   0.019  0.00  0.00    +0.190 C 
ATOM     15  F   LIG    1       -2.456   0.201   1.210  0.00  0.00    -0.200 F 
ENDBRANCH  12  14
ENDBRANCH   2  12
ENDBRANCH   1   7
BRANCH   1  16
ATOM     16  C   LIG    1        4.563  -0.438   1.032  0.00  0.00    +0.260 C 
BRANCH  16  17
ATOM     17  N   LIG    1        5.899  -1.033   0.956  0.00  0.00    -0.720 N 
ATOM     18  H   LIG    1        6.684  -0.463   0.936  0.00  0.00    +0.400 HD
ATOM     19  C   LIG    1        6.039  -2.373   0.913  0.00  0.00    +0.560 C 
ATOM     20  O   LIG    1        5.056  -3.087   0.938  0.00  0.00    -0.530 OA
BRANCH  19  21
ATOM     21  C   LIG    1        7.388  -2.973   0.836  0.00  0.00    -0.140 A 
ATOM     22  C   LIG    1        8.523  -2.163   0.802  0.00  0.00    +0.220 A 
ATOM     23  N   LIG    1        9.727  -2.694   0.739  0.00  0.00    -0.440 NA
ATOM     24  C   LIG    1        9.913  -3.998   0.695  0.00  0.00    +0.210 A 
ATOM     25  C   LIG    1        8.835  -4.876   0.719  0.00  0.00    +0.160 A 
ATOM     26  C   LIG    1        7.545  -4.363   0.791  0.00  0.00    +0.050 A 
BRANCH  25  27
ATOM     27  N   LIG    1        9.046  -6.257   0.671  0.00  0.00    -0.870 N 
ATOM     28  H   LIG    1        9.949  -6.608   0.621  0.00  0.00    +0.400 HD
ATOM     29  H   LIG    1        8.289  -6.864   0.689  0.00  0.00    +0.400 HD
ENDBRANCH  25  27
ENDBRANCH  19  21
ENDBRANCH  16  17
ENDBRANCH   1  16
TORSDOF 8
