REMARK  Name = ZINCah0000003XLk.0
REMARK                            x       y       z     vdW  Elec       q    Type
REMARK                         _______ _______ _______ _____ _____    ______ ____
ROOT
ATOM      1  C   LIG    1        2.513   0.123  -0.022  0.00  0.00    +0.240 A 
ATOM      2  C   LIG    1        2.392   1.482  -0.014  0.00  0.00    -0.090 A 
ATOM      3  C   LIG    1        1.144   2.106   0.002  0.00  0.00    +0.030 A 
ATOM      4  C   LIG    1       -0.017   1.408   0.010  0.00  0.00    +0.000 A 
ATOM      5  C   LIG    1        0.002  -0.004   0.002  0.00  0.00    -0.170 A 
ATOM      6  C   LIG    1       -0.963  -0.993   0.006  0.00  0.00    +0.250 A 
ATOM      7  N   LIG    1       -0.337  -2.180  -0.006  0.00  0.00    -0.430 N 
ATOM      8  H   LIG    1       -0.779  -3.043  -0.006  0.00  0.00    +0.440 HD
ATOM      9  N   LIG    1        1.050  -1.987  -0.018  0.00  0.00    -0.290 NA
ATOM     10  C   LIG    1        1.302  -0.693  -0.014  0.00  0.00    +0.070 A 
ENDROOT
BRANCH   1  11
ATOM     11  N   LIG    1        3.772  -0.477  -0.036  0.00  0.00    -0.870 N 
ATOM     12  H   LIG    1        4.572   0.073  -0.041  0.00  0.00    +0.400 HD
ATOM     13  H   LIG    1        3.849  -1.444  -0.042  0.00  0.00    +0.400 HD
ENDBRANCH   1  11
TORSDOF 1
