REMARK  Name = ZINCrg00001JduPt.0
REMARK                            x       y       z     vdW  Elec       q    Type
REMARK                         _______ _______ _______ _____ _____    ______ ____
ROOT
ATOM      1  N   LIG    1       -3.514  -0.201   3.279  0.00  0.00    -0.670 N 
ATOM      2  H   LIG    1       -3.921  -1.016   2.945  0.00  0.00    +0.410 HD
ATOM      3  C   LIG    1       -3.958   0.352   4.425  0.00  0.00    +0.710 C 
ATOM      4  N   LIG    1       -4.898  -0.276   5.158  0.00  0.00    -0.730 N 
ATOM      5  H   LIG    1       -5.256  -1.127   4.860  0.00  0.00    +0.400 HD
ATOM      6  O   LIG    1       -3.509   1.419   4.798  0.00  0.00    -0.560 OA
ENDROOT
BRANCH   4   7
ATOM      7  C   LIG    1       -5.380   0.326   6.404  0.00  0.00    +0.250 C 
ATOM      8  C   LIG    1       -4.453  -0.071   7.559  0.00  0.00    +0.030 C 
ATOM      9  C   LIG    1       -4.869   0.713   8.805  0.00  0.00    +0.090 C 
ATOM     10  C   LIG    1       -6.354   0.605   9.005  0.00  0.00    +0.510 C 
ATOM     11  N   LIG    1       -7.199   0.221   8.047  0.00  0.00    -0.600 N 
ATOM     12  C   LIG    1       -8.630   0.206   8.361  0.00  0.00    +0.290 C 
ATOM     13  O   LIG    1       -6.808   0.881  10.095  0.00  0.00    -0.540 OA
ATOM     14  C   LIG    1       -6.789  -0.185   6.709  0.00  0.00    +0.310 C 
BRANCH  14  15
ATOM     15  C   LIG    1       -7.753   0.382   5.699  0.00  0.00    +0.070 A 
ATOM     16  C   LIG    1       -8.540  -0.332   4.860  0.00  0.00    -0.110 A 
ATOM     17  C   LIG    1       -9.281   0.573   4.093  0.00  0.00    +0.240 A 
ATOM     18  N   LIG    1       -8.947   1.785   4.453  0.00  0.00    -0.280 NA
ATOM     19  N   LIG    1       -7.983   1.690   5.465  0.00  0.00    -0.350 N 
ATOM     20  C   LIG    1       -7.340   2.814   6.150  0.00  0.00    +0.340 C 
ENDBRANCH  14  15
ENDBRANCH   4   7
BRANCH   1  25
ATOM     21  N   LIG    1       -1.573   2.296   1.423  0.00  0.00    -0.500 N 
ATOM     22  C   LIG    1       -0.430   1.605   1.171  0.00  0.00    +0.290 A 
ATOM     23  C   LIG    1       -0.279   0.333   1.608  0.00  0.00    -0.070 A 
ATOM     24  C   LIG    1       -1.312  -0.292   2.320  0.00  0.00    +0.110 A 
ATOM     25  C   LIG    1       -2.465   0.400   2.570  0.00  0.00    +0.040 A 
ATOM     26  C   LIG    1       -2.587   1.727   2.104  0.00  0.00    +0.520 A 
ATOM     27  O   LIG    1       -3.609   2.359   2.318  0.00  0.00    -0.520 OA
BRANCH  21  29
ATOM     28  C   LIG    1       -1.195   4.639   2.013  0.00  0.00    +0.040 C 
ATOM     29  C   LIG    1       -1.707   3.673   0.942  0.00  0.00    +0.280 C 
ENDBRANCH  21  29
ENDBRANCH   1  25
TORSDOF 4
