REMARK  Name = ZINCvU00000006K3.0
REMARK                            x       y       z     vdW  Elec       q    Type
REMARK                         _______ _______ _______ _____ _____    ______ ____
ROOT
ATOM      1  C   LIG    1        0.046   0.965   0.098  0.00  0.00    +0.190 C 
ENDROOT
BRANCH   1   2
ATOM      2  N   LIG    1       -0.566   1.278   1.396  0.00  0.00    -0.510 NA
ATOM      3  C   LIG    1       -1.979   0.880   1.422  0.00  0.00    +0.230 C 
ATOM      4  C   LIG    1       -2.552   1.085   2.795  0.00  0.00    -0.040 C 
ATOM      5  C   LIG    1       -1.807   1.240   3.867  0.00  0.00    -0.070 C 
ATOM      6  C   LIG    1       -0.305   1.233   3.820  0.00  0.00    +0.100 C 
ATOM      7  C   LIG    1        0.167   0.628   2.495  0.00  0.00    +0.170 C 
BRANCH   5   8
ATOM      8  C   LIG    1       -2.475   1.428   5.173  0.00  0.00    -0.050 A 
ATOM      9  C   LIG    1       -2.331   2.630   5.866  0.00  0.00    +0.010 A 
ATOM     10  C   LIG    1       -2.961   2.801   7.082  0.00  0.00    +0.000 A 
ATOM     11  C   LIG    1       -3.724   1.780   7.618  0.00  0.00    +0.000 A 
ATOM     12  C   LIG    1       -3.866   0.583   6.938  0.00  0.00    +0.000 A 
ATOM     13  C   LIG    1       -3.246   0.402   5.719  0.00  0.00    +0.010 A 
ENDBRANCH   5   8
ENDBRANCH   1   2
BRANCH   1  14
ATOM     14  C   LIG    1       -0.743   1.627  -1.002  0.00  0.00    -0.090 A 
ATOM     15  C   LIG    1       -1.241   2.904  -0.823  0.00  0.00    +0.050 A 
ATOM     16  C   LIG    1       -1.961   3.513  -1.834  0.00  0.00    +0.000 A 
ATOM     17  C   LIG    1       -2.192   2.841  -3.020  0.00  0.00    +0.010 A 
ATOM     18  C   LIG    1       -1.698   1.562  -3.196  0.00  0.00    +0.010 A 
ATOM     19  C   LIG    1       -0.974   0.955  -2.188  0.00  0.00    +0.010 A 
ENDBRANCH   1  14
BRANCH   1  22
ATOM     20  N   LIG    1        2.226   1.299  -1.023  0.00  0.00    -0.670 N 
ATOM     21  H   LIG    1        1.888   0.778  -1.769  0.00  0.00    +0.410 HD
ATOM     22  C   LIG    1        1.464   1.474   0.075  0.00  0.00    +0.530 C 
ATOM     23  O   LIG    1        1.921   2.042   1.045  0.00  0.00    -0.490 OA
BRANCH  20  27
ATOM     24  C   LIG    1        6.032   2.993  -1.213  0.00  0.00    +0.130 A 
ATOM     25  C   LIG    1        5.017   3.643  -0.527  0.00  0.00    -0.040 A 
ATOM     26  C   LIG    1        3.755   3.084  -0.468  0.00  0.00    +0.070 A 
ATOM     27  C   LIG    1        3.505   1.867  -1.087  0.00  0.00    +0.120 A 
ATOM     28  C   LIG    1        4.521   1.216  -1.774  0.00  0.00    +0.040 A 
ATOM     29  C   LIG    1        5.781   1.778  -1.837  0.00  0.00    -0.050 A 
ATOM     30 CL   LIG    1        7.052   0.964  -2.696  0.00  0.00    -0.050 Cl
BRANCH  24  32
ATOM     31  C   LIG    1        7.460   4.796  -0.610  0.00  0.00    +0.240 C 
ATOM     32  O   LIG    1        7.273   3.545  -1.275  0.00  0.00    -0.300 OA
ENDBRANCH  24  32
ENDBRANCH  20  27
ENDBRANCH   1  22
TORSDOF 6
