REMARK  Name = ZINCpk00000y6vhd.0
REMARK                            x       y       z     vdW  Elec       q    Type
REMARK                         _______ _______ _______ _____ _____    ______ ____
ROOT
ATOM      1  C   LIG    1        5.529  -1.004  -4.317  0.00  0.00    +0.160 C 
ATOM      2  C   LIG    1        5.673  -2.156  -3.313  0.00  0.00    +0.310 C 
ATOM      3  N   LIG    1        4.832  -1.383  -2.385  0.00  0.00    -0.660 N 
ATOM      4  C   LIG    1        3.991  -1.669  -1.372  0.00  0.00    +0.740 C 
ATOM      5  N   LIG    1        3.365  -0.672  -0.715  0.00  0.00    -0.720 N 
ATOM      6  H   LIG    1        3.521   0.251  -0.972  0.00  0.00    +0.400 HD
ATOM      7  O   LIG    1        3.796  -2.825  -1.051  0.00  0.00    -0.580 OA
ATOM      8  C   LIG    1        5.310  -0.164  -3.054  0.00  0.00    +0.260 C 
ENDROOT
BRANCH   5   9
ATOM      9  C   LIG    1        2.450  -0.982   0.386  0.00  0.00    +0.280 C 
ATOM     10  C   LIG    1        3.010  -0.622   1.774  0.00  0.00    -0.000 C 
ATOM     11  C   LIG    1        1.602  -0.109   2.129  0.00  0.00    +0.180 C 
ATOM     12  C   LIG    1        1.393   0.097   0.628  0.00  0.00    -0.110 C 
ATOM     13  C   LIG    1        0.002  -0.004   0.002  0.00  0.00    +0.030 C 
ATOM     14  C   LIG    1       -0.019   1.535   0.011  0.00  0.00    +0.020 C 
ATOM     15  C   LIG    1        1.520   1.484  -0.004  0.00  0.00    +0.050 C 
BRANCH  11  16
ATOM     16  O   LIG    1        1.607   1.107   2.880  0.00  0.00    -0.370 OA
ATOM     17  C   LIG    1        1.130   0.964   4.219  0.00  0.00    +0.200 C 
ENDBRANCH  11  16
ENDBRANCH   5   9
BRANCH   1  18
ATOM     18  O   LIG    1        6.728  -0.694  -5.030  0.00  0.00    -0.360 OA
BRANCH  18  19
ATOM     19  C   LIG    1        6.506  -0.174  -6.342  0.00  0.00    +0.360 C 
BRANCH  19  23
ATOM     20  C   LIG    1        9.635  -0.025  -8.097  0.00  0.00    +0.170 A 
ATOM     21  N   LIG    1        9.540   1.164  -7.581  0.00  0.00    -0.380 NA
ATOM     22  O   LIG    1        8.511   1.265  -6.946  0.00  0.00    +0.090 OA
ATOM     23  C   LIG    1        7.832   0.115  -6.998  0.00  0.00    +0.180 A 
ATOM     24  N   LIG    1        8.542  -0.714  -7.724  0.00  0.00    -0.460 NA
BRANCH  20  26
ATOM     25  C   LIG    1       11.834  -1.171  -8.055  0.00  0.00    +0.040 C 
ATOM     26  C   LIG    1       10.766  -0.539  -8.950  0.00  0.00    +0.160 C 
ENDBRANCH  20  26
ENDBRANCH  19  23
ENDBRANCH  18  19
ENDBRANCH   1  18
TORSDOF 6
