REMARK  Name = ZINCrH000004ofWk.0
REMARK                            x       y       z     vdW  Elec       q    Type
REMARK                         _______ _______ _______ _____ _____    ______ ____
ROOT
ATOM      1  N   LIG    1       -1.372  -0.511   0.012  0.00  0.00    -0.720 N 
ATOM      2  H   LIG    1       -1.810  -0.743  -0.822  0.00  0.00    +0.410 HD
ATOM      3  C   LIG    1       -2.029  -0.655   1.181  0.00  0.00    +0.520 C 
ATOM      4  O   LIG    1       -1.481  -0.365   2.224  0.00  0.00    -0.510 OA
ENDROOT
BRANCH   1   6
ATOM      5  C   LIG    1       -0.019   1.526   0.010  0.00  0.00    +0.060 C 
ATOM      6  C   LIG    1        0.002  -0.004   0.002  0.00  0.00    +0.350 C 
BRANCH   6   7
ATOM      7  C   LIG    1        0.707  -0.490  -1.238  0.00  0.00    +0.020 A 
ATOM      8  C   LIG    1        1.980  -0.908  -1.282  0.00  0.00    -0.020 A 
ATOM      9  C   LIG    1        2.238  -1.284  -2.678  0.00  0.00    -0.130 A 
ATOM     10  C   LIG    1        3.344  -1.784  -3.363  0.00  0.00    +0.060 A 
ATOM     11  C   LIG    1        3.250  -2.036  -4.714  0.00  0.00    +0.000 A 
ATOM     12  C   LIG    1        2.062  -1.797  -5.389  0.00  0.00    +0.050 A 
ATOM     13  C   LIG    1        0.961  -1.303  -4.723  0.00  0.00    +0.020 A 
ATOM     14  C   LIG    1        1.035  -1.041  -3.361  0.00  0.00    +0.060 A 
ATOM     15  O   LIG    1        0.150  -0.572  -2.458  0.00  0.00    -0.190 OA
ENDBRANCH   6   7
ENDBRANCH   1   6
BRANCH   3  16
ATOM     16  C   LIG    1       -3.442  -1.177   1.191  0.00  0.00    +0.240 C 
BRANCH  16  17
ATOM     17  O   LIG    1       -3.917  -1.239   2.538  0.00  0.00    -0.280 OA
BRANCH  17  18
ATOM     18  C   LIG    1       -5.184  -1.691   2.725  0.00  0.00    +0.160 A 
ATOM     19  C   LIG    1       -5.955  -2.062   1.631  0.00  0.00    -0.070 A 
ATOM     20  C   LIG    1       -7.240  -2.527   1.817  0.00  0.00    +0.100 A 
ATOM     21  C   LIG    1       -7.769  -2.614   3.106  0.00  0.00    -0.070 A 
ATOM     22  C   LIG    1       -6.992  -2.235   4.203  0.00  0.00    +0.130 A 
ATOM     23  C   LIG    1       -5.707  -1.776   4.009  0.00  0.00    +0.000 A 
BRANCH  21  24
ATOM     24  C   LIG    1       -9.147  -3.107   3.310  0.00  0.00    +0.220 A 
ATOM     25  N   LIG    1       -9.765  -3.239   4.460  0.00  0.00    -0.280 NA
ATOM     26  N   LIG    1      -10.950  -3.695   4.255  0.00  0.00    -0.290 NA
ATOM     27  C   LIG    1      -11.135  -3.871   2.977  0.00  0.00    +0.400 A 
ATOM     28  O   LIG    1      -10.006  -3.500   2.348  0.00  0.00    -0.230 OA
ENDBRANCH  21  24
ENDBRANCH  17  18
ENDBRANCH  16  17
ENDBRANCH   3  16
TORSDOF 6
