REMARK  Name = ZINCnE000001TBG1.0
REMARK                            x       y       z     vdW  Elec       q    Type
REMARK                         _______ _______ _______ _____ _____    ______ ____
ROOT
ATOM      1  C   LIG    1        6.046   2.059  -0.041  0.00  0.00    +0.150 C 
ENDROOT
BRANCH   1   7
ATOM      2  C   LIG    1        8.518   4.418  -3.353  0.00  0.00    -0.110 C 
ATOM      3  C   LIG    1        9.740   4.457  -2.433  0.00  0.00    +0.030 C 
ATOM      4  C   LIG    1        9.603   3.381  -1.354  0.00  0.00    -0.010 C 
ATOM      5  C   LIG    1        8.354   3.663  -0.512  0.00  0.00    +0.260 C 
ATOM      6  N   LIG    1        7.195   3.771  -1.408  0.00  0.00    -0.610 N 
ATOM      7  C   LIG    1        6.095   3.021  -1.201  0.00  0.00    +0.510 C 
ATOM      8  O   LIG    1        5.144   3.119  -1.947  0.00  0.00    -0.530 OA
ATOM      9  C   LIG    1        7.260   4.709  -2.538  0.00  0.00    +0.300 C 
BRANCH   2  11
ATOM     10  O   LIG    1        8.329   5.202  -5.577  0.00  0.00    -0.700 OA
ATOM     11  C   LIG    1        8.670   5.457  -4.434  0.00  0.00    +0.500 C 
ATOM     12  O   LIG    1        9.133   6.553  -4.167  0.00  0.00    -0.690 OA
ENDBRANCH   2  11
ENDBRANCH   1   7
BRANCH   1  13
ATOM     13  C   LIG    1        4.717   1.349  -0.034  0.00  0.00    +0.100 A 
ATOM     14  C   LIG    1        4.625   0.016  -0.040  0.00  0.00    -0.060 A 
ATOM     15  S   LIG    1        2.918  -0.421  -0.026  0.00  0.00    +0.110 S 
ATOM     16  C   LIG    1        2.486   1.287  -0.014  0.00  0.00    +0.130 A 
ATOM     17  N   LIG    1        3.577   2.002  -0.026  0.00  0.00    -0.430 NA
BRANCH  16  18
ATOM     18  C   LIG    1        1.115   1.821   0.001  0.00  0.00    -0.120 A 
ATOM     19  C   LIG    1       -0.013   1.076   0.008  0.00  0.00    +0.050 A 
ATOM     20  C   LIG    1       -1.183   1.804   0.017  0.00  0.00    -0.100 A 
ATOM     21  C   LIG    1       -1.024   3.132   0.028  0.00  0.00    -0.010 A 
ATOM     22 BR   LIG    1       -2.888   0.986   0.021  0.00  0.00    -0.030 Br
ATOM     23  S   LIG    1        0.689   3.527   0.014  0.00  0.00    +0.250 S 
ENDBRANCH  16  18
ENDBRANCH   1  13
TORSDOF 4
