REMARK  Name = ZINCpk00000y6tTO.0
REMARK                            x       y       z     vdW  Elec       q    Type
REMARK                         _______ _______ _______ _____ _____    ______ ____
ROOT
ATOM      1  C   LIG    1       -4.860   2.318   0.271  0.00  0.00    +0.300 C 
ENDROOT
BRANCH   1   2
ATOM      2  C   LIG    1       -3.382   2.652   0.479  0.00  0.00    -0.010 C 
ATOM      3  C   LIG    1       -3.015   3.885  -0.353  0.00  0.00    +0.060 C 
ATOM      4  C   LIG    1       -1.608   4.357   0.036  0.00  0.00    +0.180 C 
ATOM      5  C   LIG    1       -0.688   3.159   0.024  0.00  0.00    +0.230 A 
ATOM      6  N   LIG    1        0.613   3.163   0.013  0.00  0.00    -0.450 NA
ATOM      7  C   LIG    1        1.058   1.895   0.002  0.00  0.00    -0.100 A 
ATOM      8  C   LIG    1       -0.013   1.076   0.008  0.00  0.00    +0.210 A 
ATOM      9  N   LIG    1       -1.117   1.875   0.017  0.00  0.00    -0.450 N 
ATOM     10  C   LIG    1       -2.522   1.462   0.037  0.00  0.00    +0.300 C 
BRANCH   7  11
ATOM     11  C   LIG    1        2.502   1.465  -0.013  0.00  0.00    +0.560 C 
ATOM     12  F   LIG    1        2.629   0.234   0.639  0.00  0.00    -0.170 F 
ATOM     13  F   LIG    1        3.282   2.423   0.644  0.00  0.00    -0.170 F 
ATOM     14  F   LIG    1        2.937   1.338  -1.337  0.00  0.00    -0.170 F 
ENDBRANCH   7  11
ENDBRANCH   1   2
BRANCH   1  15
ATOM     15  N   LIG    1       -5.241   1.215   1.156  0.00  0.00    -1.120 NA
ATOM     16  H   LIG    1       -4.556   0.678   1.585  0.00  0.00    +0.420 HD
BRANCH  15  17
ATOM     17  S   LIG    1       -6.841   0.883   1.425  0.00  0.00    +2.730 S 
ATOM     18  O   LIG    1       -7.460   2.123   1.743  0.00  0.00    -0.940 OA
ATOM     19  O   LIG    1       -6.877  -0.246   2.286  0.00  0.00    -0.960 OA
BRANCH  17  23
ATOM     20  C   LIG    1       -9.178   0.949  -3.278  0.00  0.00    +0.200 C 
ATOM     21  C   LIG    1       -8.495   0.431  -2.039  0.00  0.00    +0.210 A 
ATOM     22  N   LIG    1       -8.098   1.156  -1.030  0.00  0.00    -0.410 NA
ATOM     23  C   LIG    1       -7.531   0.362  -0.110  0.00  0.00    -0.560 A 
ATOM     24  C   LIG    1       -7.587  -0.905  -0.562  0.00  0.00    +0.260 A 
ATOM     25  N   LIG    1       -8.199  -0.862  -1.786  0.00  0.00    -0.450 N 
ATOM     26  C   LIG    1       -8.479  -2.005  -2.659  0.00  0.00    +0.340 C 
ENDBRANCH  17  23
ENDBRANCH  15  17
ENDBRANCH   1  15
TORSDOF 5
