REMARK  Name = ZINCrg000000tdP6.0
REMARK                            x       y       z     vdW  Elec       q    Type
REMARK                         _______ _______ _______ _____ _____    ______ ____
ROOT
ATOM      1  O   LIG    1       -2.355   7.997   0.066  0.00  0.00    -0.530 OA
ATOM      2  C   LIG    1       -1.306   8.605   0.059  0.00  0.00    +0.510 C 
ATOM      3  N   LIG    1       -1.308   9.953   0.065  0.00  0.00    -0.730 N 
ATOM      4  H   LIG    1       -0.469  10.440   0.059  0.00  0.00    +0.400 HD
ENDROOT
BRANCH   3   5
ATOM      5  C   LIG    1       -2.578  10.684   0.081  0.00  0.00    +0.290 C 
BRANCH   5   6
ATOM      6  C   LIG    1       -2.300  12.188   0.086  0.00  0.00    +0.040 C 
BRANCH   6   7
ATOM      7  C   LIG    1       -3.607  12.940   0.102  0.00  0.00    +0.510 C 
ATOM      8  N   LIG    1       -3.609  14.288   0.109  0.00  0.00    -0.600 N 
ATOM      9  C   LIG    1       -2.341  14.983   0.106  0.00  0.00    +0.270 C 
ATOM     10  C   LIG    1       -1.862  15.209   1.555  0.00  0.00    -0.000 C 
ATOM     11  C   LIG    1       -2.696  16.226   2.215  0.00  0.00    +0.000 C 
ATOM     12  C   LIG    1       -4.165  15.839   2.357  0.00  0.00    +0.000 C 
ATOM     13  C   LIG    1       -4.900  16.195   1.088  0.00  0.00    +0.020 C 
ATOM     14  C   LIG    1       -4.905  14.993   0.125  0.00  0.00    +0.260 C 
ATOM     15  O   LIG    1       -4.656  12.332   0.110  0.00  0.00    -0.530 OA
ENDBRANCH   6   7
ENDBRANCH   5   6
ENDBRANCH   3   5
BRANCH   2  16
ATOM     16  C   LIG    1        0.000   7.854   0.042  0.00  0.00    +0.300 C 
BRANCH  16  17
ATOM     17  N   LIG    1       -0.265   6.413   0.038  0.00  0.00    -0.720 N 
ATOM     18  H   LIG    1       -1.179   6.088   0.045  0.00  0.00    +0.410 HD
ATOM     19  C   LIG    1        0.760   5.539   0.024  0.00  0.00    +0.570 C 
ATOM     20  O   LIG    1        1.906   5.946   0.014  0.00  0.00    -0.530 OA
BRANCH  19  21
ATOM     21  C   LIG    1        0.493   4.087   0.019  0.00  0.00    -0.130 A 
ATOM     22  C   LIG    1       -0.823   3.618   0.029  0.00  0.00    +0.070 A 
ATOM     23  C   LIG    1       -1.071   2.262   0.019  0.00  0.00    +0.040 A 
ATOM     24  C   LIG    1       -0.016   1.359   0.009  0.00  0.00    +0.060 A 
ATOM     25  O   LIG    1        0.002  -0.004   0.002  0.00  0.00    -0.300 OA
ATOM     26  C   LIG    1        1.335  -0.374   0.401  0.00  0.00    +0.440 C 
ATOM     27  O   LIG    1        2.140   0.746  -0.014  0.00  0.00    -0.300 OA
ATOM     28  C   LIG    1        1.300   1.822  -0.001  0.00  0.00    +0.020 A 
ATOM     29  C   LIG    1        1.555   3.179   0.004  0.00  0.00    +0.110 A 
ENDBRANCH  19  21
ENDBRANCH  16  17
ENDBRANCH   2  16
TORSDOF 6
