REMARK  Name = ZINCrH000004r4w3.0
REMARK                            x       y       z     vdW  Elec       q    Type
REMARK                         _______ _______ _______ _____ _____    ______ ____
ROOT
ATOM      1  C   LIG    1       -0.718   1.572   1.248  0.00  0.00    +0.510 C 
ATOM      2  N   LIG    1       -0.242   1.246   2.466  0.00  0.00    -0.720 N 
ATOM      3  H   LIG    1        0.555   0.699   2.544  0.00  0.00    +0.400 HD
ATOM      4  O   LIG    1       -1.714   2.256   1.150  0.00  0.00    -0.540 OA
ENDROOT
BRANCH   2   5
ATOM      5  C   LIG    1       -0.927   1.718   3.671  0.00  0.00    +0.240 C 
ATOM      6  C   LIG    1       -0.438   3.126   4.018  0.00  0.00    +0.020 C 
BRANCH   5   7
ATOM      7  C   LIG    1       -0.624   0.772   4.834  0.00  0.00    -0.060 C 
ATOM      8  C   LIG    1       -1.114  -0.635   4.488  0.00  0.00    +0.020 C 
ATOM      9  C   LIG    1       -0.811  -1.582   5.651  0.00  0.00    -0.020 C 
ATOM     10  C   LIG    1        0.698  -1.614   5.902  0.00  0.00    +0.010 C 
ATOM     11  C   LIG    1        1.188  -0.207   6.249  0.00  0.00    -0.020 C 
ATOM     12  C   LIG    1        0.472   0.287   7.508  0.00  0.00    +0.010 C 
ATOM     13  C   LIG    1       -1.037   0.319   7.256  0.00  0.00    -0.020 C 
ATOM     14  C   LIG    1       -1.527  -1.089   6.910  0.00  0.00    +0.010 C 
ATOM     15  C   LIG    1        0.885   0.740   5.086  0.00  0.00    +0.020 C 
ATOM     16  C   LIG    1       -1.340   1.265   6.093  0.00  0.00    +0.030 C 
ENDBRANCH   5   7
ENDBRANCH   2   5
BRANCH   1  17
ATOM     17  C   LIG    1       -0.013   1.086   0.008  0.00  0.00    +0.300 C 
BRANCH  17  19
ATOM     18  C   LIG    1       -0.268   1.258  -2.409  0.00  0.00    +0.560 C 
ATOM     19  N   LIG    1       -0.721   1.571  -1.179  0.00  0.00    -0.720 N 
ATOM     20  H   LIG    1       -1.516   2.118  -1.079  0.00  0.00    +0.410 HD
ATOM     21  O   LIG    1        0.728   0.574  -2.534  0.00  0.00    -0.540 OA
BRANCH  18  26
ATOM     22  C   LIG    1       -3.053   3.163  -7.071  0.00  0.00    +0.100 C 
ATOM     23  C   LIG    1       -2.323   2.664  -5.850  0.00  0.00    -0.060 A 
ATOM     24  C   LIG    1       -2.791   2.987  -4.589  0.00  0.00    +0.010 A 
ATOM     25  C   LIG    1       -2.131   2.530  -3.467  0.00  0.00    +0.040 A 
ATOM     26  C   LIG    1       -0.983   1.748  -3.607  0.00  0.00    -0.140 A 
ATOM     27  C   LIG    1       -0.516   1.426  -4.882  0.00  0.00    +0.090 A 
ATOM     28  C   LIG    1       -1.189   1.886  -5.996  0.00  0.00    -0.100 A 
ATOM     29  C   LIG    1       -0.686   1.539  -7.374  0.00  0.00    +0.090 C 
ENDBRANCH  18  26
ENDBRANCH  17  19
ENDBRANCH   1  17
TORSDOF 5
