REMARK  Name = ZINCrD000006fiLU.0
REMARK                            x       y       z     vdW  Elec       q    Type
REMARK                         _______ _______ _______ _____ _____    ______ ____
ROOT
ATOM      1  N   LIG    1       -8.416   4.918  -0.989  0.00  0.00    -0.670 N 
ATOM      2  H   LIG    1       -8.261   4.244  -0.309  0.00  0.00    +0.410 HD
ATOM      3  C   LIG    1       -7.373   5.486  -1.626  0.00  0.00    +0.570 C 
ATOM      4  O   LIG    1       -7.562   6.391  -2.416  0.00  0.00    -0.520 OA
ENDROOT
BRANCH   1   7
ATOM      5  C   LIG    1      -12.040   4.743  -1.615  0.00  0.00    +0.130 A 
ATOM      6  C   LIG    1      -10.745   4.361  -1.298  0.00  0.00    +0.030 A 
ATOM      7  C   LIG    1       -9.724   5.301  -1.308  0.00  0.00    +0.160 A 
ATOM      8  C   LIG    1      -10.001   6.623  -1.630  0.00  0.00    +0.040 A 
ATOM      9  C   LIG    1      -11.291   7.002  -1.951  0.00  0.00    +0.040 A 
ATOM     10  C   LIG    1      -12.311   6.068  -1.942  0.00  0.00    +0.060 A 
ATOM     11  F   LIG    1      -13.572   6.442  -2.251  0.00  0.00    -0.140 F 
BRANCH   5  13
ATOM     12  C   LIG    1      -12.806   2.508  -1.893  0.00  0.00    +0.550 C 
ATOM     13  N   LIG    1      -13.072   3.798  -1.606  0.00  0.00    -0.660 N 
ATOM     14  H   LIG    1      -13.978   4.071  -1.394  0.00  0.00    +0.420 HD
ATOM     15  O   LIG    1      -11.659   2.150  -2.078  0.00  0.00    -0.520 OA
BRANCH  12  17
ATOM     16  C   LIG    1      -13.642   0.261  -2.264  0.00  0.00    +0.160 C 
ATOM     17  C   LIG    1      -13.904   1.534  -1.981  0.00  0.00    -0.090 C 
ENDBRANCH  12  17
ENDBRANCH   5  13
ENDBRANCH   1   7
BRANCH   3  18
ATOM     18  C   LIG    1       -6.001   5.010  -1.364  0.00  0.00    -0.180 A 
ATOM     19  C   LIG    1       -4.918   5.598  -2.023  0.00  0.00    +0.140 A 
ATOM     20  C   LIG    1       -3.639   5.151  -1.776  0.00  0.00    -0.020 A 
ATOM     21  C   LIG    1       -3.424   4.117  -0.872  0.00  0.00    +0.160 A 
ATOM     22  C   LIG    1       -4.500   3.526  -0.219  0.00  0.00    -0.080 A 
ATOM     23  C   LIG    1       -5.781   3.971  -0.456  0.00  0.00    +0.090 A 
BRANCH  21  24
ATOM     24  O   LIG    1       -2.163   3.680  -0.631  0.00  0.00    -0.290 OA
BRANCH  24  25
ATOM     25  C   LIG    1       -2.022   2.538   0.217  0.00  0.00    +0.150 C 
ATOM     26  C   LIG    1       -0.683   1.810  -0.054  0.00  0.00    +0.030 C 
ATOM     27  C   LIG    1       -0.172   1.425   1.348  0.00  0.00    +0.210 C 
ATOM     28  O   LIG    1       -1.161   1.855   2.299  0.00  0.00    -0.370 OA
ATOM     29  C   LIG    1       -1.866   2.965   1.698  0.00  0.00    +0.210 C 
ENDBRANCH  24  25
ENDBRANCH  21  24
ENDBRANCH   3  18
TORSDOF 6
