REMARK  Name = ZINCrD000000CqOO.0
REMARK                            x       y       z     vdW  Elec       q    Type
REMARK                         _______ _______ _______ _____ _____    ______ ____
ROOT
ATOM      1  O   LIG    1        6.245   2.990   0.340  0.00  0.00    -0.470 OA
ATOM      2  C   LIG    1        6.144   1.797   0.546  0.00  0.00    +0.510 C 
ENDROOT
BRANCH   2   3
ATOM      3  C   LIG    1        7.266   0.896   0.227  0.00  0.00    -0.070 A 
ATOM      4  C   LIG    1        7.105  -0.488   0.332  0.00  0.00    +0.120 A 
ATOM      5  C   LIG    1        8.158  -1.331   0.027  0.00  0.00    +0.080 A 
ATOM      6  C   LIG    1        9.381  -0.799  -0.376  0.00  0.00    +0.100 A 
ATOM      7  O   LIG    1       10.425  -1.614  -0.682  0.00  0.00    -0.290 OA
ATOM      8  C   LIG    1       10.346  -2.965  -0.217  0.00  0.00    +0.250 C 
ATOM      9  C   LIG    1        8.945  -3.503  -0.537  0.00  0.00    +0.250 C 
ATOM     10  C   LIG    1        9.543   0.578  -0.472  0.00  0.00    +0.100 A 
ATOM     11  O   LIG    1        7.985  -2.677   0.131  0.00  0.00    -0.290 OA
ATOM     12  C   LIG    1        8.497   1.423  -0.175  0.00  0.00    +0.030 A 
BRANCH  12  13
ATOM     13  N   LIG    1        8.675   2.889  -0.281  0.00  0.00    +0.020 N 
ATOM     14  O   LIG    1        8.366   3.609   0.651  0.00  0.00    -0.090 OA
ATOM     15  O   LIG    1        9.131   3.374  -1.301  0.00  0.00    -0.150 OA
ENDBRANCH  12  13
ENDBRANCH   2   3
BRANCH   2  16
ATOM     16  O   LIG    1        5.005   1.298   1.066  0.00  0.00    -0.340 OA
BRANCH  16  17
ATOM     17  C   LIG    1        3.942   2.244   1.355  0.00  0.00    +0.300 C 
BRANCH  17  18
ATOM     18  C   LIG    1        2.757   1.508   1.926  0.00  0.00    -0.110 A 
ATOM     19  C   LIG    1        2.810   0.139   2.095  0.00  0.00    +0.070 A 
ATOM     20  C   LIG    1        1.722  -0.537   2.619  0.00  0.00    -0.010 A 
ATOM     21  C   LIG    1        0.581   0.157   2.975  0.00  0.00    +0.050 A 
ATOM     22  C   LIG    1        0.523   1.527   2.808  0.00  0.00    -0.050 A 
ATOM     23  C   LIG    1        1.613   2.207   2.283  0.00  0.00    +0.110 A 
BRANCH  23  24
ATOM     24  O   LIG    1        1.559   3.555   2.117  0.00  0.00    -0.320 OA
BRANCH  24  25
ATOM     25  C   LIG    1        0.348   4.208   2.506  0.00  0.00    +0.600 C 
ATOM     26  F   LIG    1        0.115   3.987   3.867  0.00  0.00    -0.200 F 
ATOM     27  F   LIG    1       -0.719   3.695   1.760  0.00  0.00    -0.200 F 
ENDBRANCH  24  25
ENDBRANCH  23  24
ENDBRANCH  17  18
ENDBRANCH  16  17
ENDBRANCH   2  16
TORSDOF 7
