REMARK  Name = ZINCpe000000UIhl.0
REMARK                            x       y       z     vdW  Elec       q    Type
REMARK                         _______ _______ _______ _____ _____    ______ ____
ROOT
ATOM      1  C   LIG    1       -0.965   5.262  -1.605  0.00  0.00    +0.530 C 
ATOM      2  N   LIG    1       -1.247   4.401  -0.607  0.00  0.00    -0.720 N 
ATOM      3  H   LIG    1       -2.064   3.878  -0.633  0.00  0.00    +0.410 HD
ATOM      4  O   LIG    1        0.056   5.915  -1.571  0.00  0.00    -0.520 OA
ENDROOT
BRANCH   1   7
ATOM      5  N   LIG    1       -2.713   7.189  -4.163  0.00  0.00    -0.610 N 
ATOM      6  C   LIG    1       -1.473   6.555  -3.701  0.00  0.00    +0.300 C 
ATOM      7  C   LIG    1       -1.919   5.412  -2.762  0.00  0.00    +0.000 C 
ATOM      8  C   LIG    1       -3.298   5.919  -2.281  0.00  0.00    +0.070 C 
ATOM      9  C   LIG    1       -3.753   6.854  -3.380  0.00  0.00    +0.520 C 
ATOM     10  O   LIG    1       -4.892   7.244  -3.533  0.00  0.00    -0.520 OA
BRANCH   5  14
ATOM     11  C   LIG    1       -5.685   9.029  -6.657  0.00  0.00    +0.170 C 
ATOM     12  N   LIG    1       -4.223   8.963  -6.533  0.00  0.00    -0.480 NA
ATOM     13  C   LIG    1       -3.763   7.562  -6.419  0.00  0.00    +0.160 C 
ATOM     14  C   LIG    1       -2.806   8.073  -5.327  0.00  0.00    +0.250 C 
ATOM     15  C   LIG    1       -3.796   9.238  -5.143  0.00  0.00    +0.170 C 
ENDBRANCH   5  14
ENDBRANCH   1   7
BRANCH   2  16
ATOM     16  C   LIG    1       -0.321   4.255   0.518  0.00  0.00    +0.330 C 
BRANCH  16  17
ATOM     17  C   LIG    1       -0.865   3.239   1.489  0.00  0.00    -0.010 A 
ATOM     18  C   LIG    1       -1.525   3.640   2.640  0.00  0.00    +0.000 A 
ATOM     19  C   LIG    1       -2.007   2.680   3.510  0.00  0.00    +0.310 A 
ATOM     20  N   LIG    1       -1.848   1.396   3.252  0.00  0.00    -0.470 NA
ATOM     21  C   LIG    1       -1.230   0.979   2.165  0.00  0.00    +0.330 A 
ATOM     22  C   LIG    1       -0.722   1.881   1.250  0.00  0.00    -0.230 A 
BRANCH  22  23
ATOM     23  C   LIG    1       -0.017   1.395   0.010  0.00  0.00    +0.510 C 
ATOM     24  F   LIG    1       -0.694   1.858  -1.124  0.00  0.00    -0.170 F 
ATOM     25  F   LIG    1        1.296   1.879  -0.000  0.00  0.00    -0.170 F 
ATOM     26  F   LIG    1        0.002  -0.004   0.002  0.00  0.00    -0.170 F 
ENDBRANCH  22  23
ENDBRANCH  16  17
ENDBRANCH   2  16
TORSDOF 5
