REMARK  Name = ZINCb70000001yba.0
REMARK                            x       y       z     vdW  Elec       q    Type
REMARK                         _______ _______ _______ _____ _____    ______ ____
ROOT
ATOM      1  C   LIG    1       -0.777   1.604   1.243  0.00  0.00    +0.200 C 
ATOM      2  C   LIG    1       -1.496   2.912   0.863  0.00  0.00    +0.090 C 
ATOM      3  C   LIG    1       -2.210   2.651  -0.489  0.00  0.00    -0.280 C 
ATOM      4  S   LIG    1       -0.947   1.716  -1.433  0.00  0.00    +2.410 S 
ATOM      5  O   LIG    1       -1.569   0.629  -2.103  0.00  0.00    -0.900 OA
ATOM      6  O   LIG    1       -0.133   2.626  -2.160  0.00  0.00    -0.900 OA
ATOM      7  C   LIG    1       -0.013   1.086   0.008  0.00  0.00    -0.320 C 
ENDROOT
BRANCH   1   8
ATOM      8  N   LIG    1        0.169   1.858   2.338  0.00  0.00    -0.500 N 
ATOM      9  H   LIG    1        0.792   2.607   2.077  0.00  0.00    +0.430 HD
ATOM     10  H   LIG    1        0.705   1.023   2.520  0.00  0.00    +0.440 HD
BRANCH   8  11
ATOM     11  C   LIG    1       -0.574   2.236   3.548  0.00  0.00    +0.260 C 
BRANCH  11  13
ATOM     12  C   LIG    1       -0.362   2.895   5.949  0.00  0.00    +0.060 C 
ATOM     13  C   LIG    1        0.411   2.501   4.689  0.00  0.00    +0.030 C 
ENDBRANCH  11  13
ENDBRANCH   8  11
ENDBRANCH   1   8
TORSDOF 3
