REMARK  Name = ZINCrD0000074yGK.0
REMARK                            x       y       z     vdW  Elec       q    Type
REMARK                         _______ _______ _______ _____ _____    ______ ____
ROOT
ATOM      1  C   LIG    1        1.514  -4.841   2.568  0.00  0.00    +0.490 C 
ATOM      2  N   LIG    1        1.392  -4.164   1.409  0.00  0.00    -0.730 N 
ATOM      3  H   LIG    1        1.318  -4.647   0.571  0.00  0.00    +0.400 HD
ATOM      4  O   LIG    1        1.607  -4.238   3.616  0.00  0.00    -0.510 OA
ENDROOT
BRANCH   1   5
ATOM      5  C   LIG    1        1.534  -6.348   2.562  0.00  0.00    +0.330 C 
BRANCH   5  15
ATOM      6  C   LIG    1        4.224  -6.911   3.942  0.00  0.00    +0.140 C 
ATOM      7  C   LIG    1        2.862  -7.095   4.561  0.00  0.00    +0.090 A 
ATOM      8  C   LIG    1        2.637  -7.530   5.811  0.00  0.00    -0.050 A 
ATOM      9  C   LIG    1        1.185  -7.566   5.997  0.00  0.00    -0.100 A 
ATOM     10  C   LIG    1        0.351  -7.926   7.057  0.00  0.00    +0.050 A 
ATOM     11  C   LIG    1       -1.006  -7.846   6.910  0.00  0.00    -0.030 A 
ATOM     12  C   LIG    1       -1.561  -7.409   5.716  0.00  0.00    +0.020 A 
ATOM     13  C   LIG    1       -0.756  -7.048   4.657  0.00  0.00    -0.020 A 
ATOM     14  C   LIG    1        0.627  -7.122   4.784  0.00  0.00    +0.110 A 
ATOM     15  N   LIG    1        1.673  -6.840   3.935  0.00  0.00    -0.470 N 
ENDBRANCH   5  15
ENDBRANCH   1   5
BRANCH   2  16
ATOM     16  C   LIG    1        1.373  -2.699   1.415  0.00  0.00    +0.270 C 
BRANCH  16  17
ATOM     17  C   LIG    1        1.227  -2.185  -0.018  0.00  0.00    +0.090 C 
BRANCH  17  18
ATOM     18  C   LIG    1        1.207  -0.678  -0.012  0.00  0.00    -0.080 A 
ATOM     19  C   LIG    1        0.002  -0.004   0.002  0.00  0.00    +0.040 A 
ATOM     20  C   LIG    1       -0.017   1.381   0.010  0.00  0.00    +0.080 A 
ATOM     21  C   LIG    1        1.172   2.090   0.002  0.00  0.00    +0.030 A 
ATOM     22  C   LIG    1        2.380   1.417  -0.014  0.00  0.00    -0.170 A 
ATOM     23  C   LIG    1        3.669   2.200  -0.026  0.00  0.00    +0.300 C 
ATOM     24  O   LIG    1        4.751   1.335   0.331  0.00  0.00    -0.380 OA
ATOM     25  C   LIG    1        4.747   0.102  -0.398  0.00  0.00    +0.440 C 
ATOM     26  O   LIG    1        3.582  -0.642  -0.029  0.00  0.00    -0.320 OA
ATOM     27  F   LIG    1       -1.196   2.040   0.019  0.00  0.00    -0.130 F 
ATOM     28  C   LIG    1        2.400   0.032  -0.019  0.00  0.00    +0.130 A 
ENDBRANCH  17  18
ENDBRANCH  16  17
ENDBRANCH   2  16
TORSDOF 5
