REMARK  Name = ZINCrD0000075sdd.0
REMARK                            x       y       z     vdW  Elec       q    Type
REMARK                         _______ _______ _______ _____ _____    ______ ____
ROOT
ATOM      1  O   LIG    1       -3.653   3.581   0.054  0.00  0.00    -0.340 OA
ENDROOT
BRANCH   1   2
ATOM      2  C   LIG    1       -2.480   4.244   0.047  0.00  0.00    +0.510 C 
ATOM      3  O   LIG    1       -2.469   5.459   0.052  0.00  0.00    -0.490 OA
BRANCH   2   4
ATOM      4  C   LIG    1       -1.210   3.495   0.031  0.00  0.00    -0.150 A 
ATOM      5  C   LIG    1       -1.228   2.109   0.019  0.00  0.00    +0.140 A 
ATOM      6  C   LIG    1       -0.017   1.402   0.010  0.00  0.00    -0.080 A 
ATOM      7  C   LIG    1        0.002  -0.004   0.002  0.00  0.00    +0.040 A 
ATOM      8  C   LIG    1        1.193  -0.662  -0.013  0.00  0.00    +0.010 A 
ATOM      9  C   LIG    1        2.399   0.038  -0.020  0.00  0.00    +0.040 A 
ATOM     10  C   LIG    1        2.420   1.399  -0.013  0.00  0.00    +0.010 A 
ATOM     11  C   LIG    1        1.210   2.115   0.002  0.00  0.00    -0.010 A 
ATOM     12  C   LIG    1        1.202   3.520   0.009  0.00  0.00    -0.010 A 
ATOM     13  C   LIG    1        0.016   4.194   0.023  0.00  0.00    +0.160 A 
BRANCH  13  14
ATOM     14  O   LIG    1        0.016   5.551   0.030  0.00  0.00    -0.480 OA
ATOM     15  H   LIG    1        0.008   5.949  -0.851  0.00  0.00    +0.400 HD
ENDBRANCH  13  14
ENDBRANCH   2   4
ENDBRANCH   1   2
BRANCH   1  16
ATOM     16  C   LIG    1       -4.864   4.383   0.069  0.00  0.00    +0.240 C 
BRANCH  16  18
ATOM     17  O   LIG    1       -5.919   2.272   0.069  0.00  0.00    -0.420 OA
ATOM     18  C   LIG    1       -6.067   3.476   0.076  0.00  0.00    +0.400 C 
BRANCH  18  19
ATOM     19  C   LIG    1       -7.419   4.050   0.091  0.00  0.00    -0.170 A 
ATOM     20  C   LIG    1       -7.592   5.439   0.105  0.00  0.00    +0.070 A 
ATOM     21  C   LIG    1       -8.861   5.973   0.115  0.00  0.00    +0.030 A 
ATOM     22  C   LIG    1       -9.973   5.138   0.123  0.00  0.00    +0.090 A 
ATOM     23  O   LIG    1      -11.216   5.689   0.142  0.00  0.00    -0.300 OA
ATOM     24  C   LIG    1      -12.304   4.837  -0.231  0.00  0.00    +0.230 C 
ATOM     25  C   LIG    1      -12.140   3.499   0.504  0.00  0.00    +0.230 C 
ATOM     26  O   LIG    1      -10.888   2.924   0.115  0.00  0.00    -0.300 OA
ATOM     27  C   LIG    1       -9.809   3.754   0.113  0.00  0.00    +0.040 A 
ATOM     28  C   LIG    1       -8.539   3.210   0.098  0.00  0.00    +0.100 A 
ENDBRANCH  18  19
ENDBRANCH  16  18
ENDBRANCH   1  16
TORSDOF 6
