REMARK  Name = ZINCkj000005kl20.0
REMARK                            x       y       z     vdW  Elec       q    Type
REMARK                         _______ _______ _______ _____ _____    ______ ____
ROOT
ATOM      1  S   LIG    1       -1.327  -0.797   0.177  0.00  0.00    +2.690 S 
ATOM      2  O   LIG    1       -1.071   0.550  -0.195  0.00  0.00    -0.950 OA
ATOM      3  O   LIG    1       -0.306  -1.779   0.290  0.00  0.00    -0.920 OA
ENDROOT
BRANCH   1  10
ATOM      4  C   LIG    1       -2.325  -3.648   0.142  0.00  0.00    +0.120 C 
ATOM      5  C   LIG    1       -2.892  -2.745  -0.922  0.00  0.00    +0.060 A 
ATOM      6  C   LIG    1       -3.806  -3.244  -1.833  0.00  0.00    +0.020 A 
ATOM      7  C   LIG    1       -4.325  -2.424  -2.814  0.00  0.00    +0.140 A 
ATOM      8  C   LIG    1       -3.925  -1.088  -2.886  0.00  0.00    -0.040 A 
ATOM      9  C   LIG    1       -3.002  -0.591  -1.964  0.00  0.00    +0.150 A 
ATOM     10  C   LIG    1       -2.492  -1.422  -0.988  0.00  0.00    -0.700 A 
BRANCH   8  11
ATOM     11  C   LIG    1       -4.460  -0.231  -3.902  0.00  0.00    +0.230 C 
ATOM     12  N   LIG    1       -4.884   0.448  -4.707  0.00  0.00    -0.380 NA
ENDBRANCH   8  11
ENDBRANCH   1  10
BRANCH   1  13
ATOM     13  N   LIG    1       -2.086  -0.740   1.647  0.00  0.00    -0.990 NA
ATOM     14  C   LIG    1       -1.669  -1.628   2.740  0.00  0.00    +0.310 C 
ATOM     15  C   LIG    1       -2.889  -2.389   3.256  0.00  0.00    +0.020 C 
ATOM     16  C   LIG    1       -3.985  -1.392   3.639  0.00  0.00    +0.030 C 
ATOM     17  C   LIG    1       -4.401  -0.589   2.405  0.00  0.00    +0.010 C 
ATOM     18  C   LIG    1       -3.194   0.197   1.881  0.00  0.00    +0.250 C 
BRANCH  18  19
ATOM     19  C   LIG    1       -3.562   0.894   0.570  0.00  0.00    +0.230 C 
BRANCH  19  20
ATOM     20  N   LIG    1       -4.578   1.923   0.832  0.00  0.00    -0.620 N 
ATOM     21  H   LIG    1       -4.184   2.642   1.420  0.00  0.00    +0.440 HD
ATOM     22  H   LIG    1       -5.369   1.504   1.296  0.00  0.00    +0.430 HD
ATOM     23  H   LIG    1       -4.877   2.330  -0.042  0.00  0.00    +0.450 HD
ENDBRANCH  19  20
ENDBRANCH  18  19
ENDBRANCH   1  13
TORSDOF 5
