REMARK  Name = ZINCrH000004jdKK.0
REMARK                            x       y       z     vdW  Elec       q    Type
REMARK                         _______ _______ _______ _____ _____    ______ ____
ROOT
ATOM      1  C   LIG    1       -0.025   1.069   0.008  0.00  0.00    +0.340 C 
ENDROOT
BRANCH   1   5
ATOM      2  N   LIG    1       -0.853   1.667   3.540  0.00  0.00    -0.680 N 
ATOM      3  H   LIG    1       -1.604   2.276   3.463  0.00  0.00    +0.410 HD
ATOM      4  C   LIG    1       -0.224   1.229   2.431  0.00  0.00    +0.700 C 
ATOM      5  N   LIG    1       -0.708   1.545   1.213  0.00  0.00    -0.740 N 
ATOM      6  H   LIG    1       -1.509   2.087   1.135  0.00  0.00    +0.400 HD
ATOM      7  O   LIG    1        0.779   0.550   2.529  0.00  0.00    -0.570 OA
BRANCH   2  13
ATOM      8  C   LIG    1       -0.667   2.028   5.921  0.00  0.00    -0.120 A 
ATOM      9  C   LIG    1       -0.244   1.606   7.166  0.00  0.00    +0.020 A 
ATOM     10  C   LIG    1        0.434   0.407   7.297  0.00  0.00    -0.020 A 
ATOM     11  C   LIG    1        0.685  -0.373   6.184  0.00  0.00    +0.020 A 
ATOM     12  C   LIG    1        0.260   0.041   4.937  0.00  0.00    +0.020 A 
ATOM     13  C   LIG    1       -0.421   1.244   4.802  0.00  0.00    +0.170 A 
BRANCH   8  15
ATOM     14  C   LIG    1       -2.909   3.083   5.806  0.00  0.00    +0.020 C 
ATOM     15  C   LIG    1       -1.401   3.337   5.778  0.00  0.00    +0.060 C 
ENDBRANCH   8  15
ENDBRANCH   2  13
ENDBRANCH   1   5
BRANCH   1  16
ATOM     16  C   LIG    1       -0.763   1.556  -1.213  0.00  0.00    -0.140 A 
ATOM     17  C   LIG    1       -1.769   0.785  -1.764  0.00  0.00    +0.050 A 
ATOM     18  C   LIG    1       -2.451   1.231  -2.880  0.00  0.00    -0.050 A 
ATOM     19  C   LIG    1       -2.117   2.451  -3.454  0.00  0.00    +0.130 A 
ATOM     20  C   LIG    1       -1.101   3.221  -2.900  0.00  0.00    -0.010 A 
ATOM     21  C   LIG    1       -0.428   2.771  -1.782  0.00  0.00    +0.060 A 
BRANCH  19  22
ATOM     22  N   LIG    1       -2.800   2.903  -4.585  0.00  0.00    -0.490 N 
ATOM     23  C   LIG    1       -3.381   4.231  -4.354  0.00  0.00    +0.180 C 
ATOM     24  C   LIG    1       -3.994   4.755  -5.655  0.00  0.00    +0.040 C 
ATOM     25  C   LIG    1       -5.074   3.781  -6.133  0.00  0.00    -0.010 C 
ATOM     26  C   LIG    1       -4.453   2.394  -6.320  0.00  0.00    +0.040 C 
ATOM     27  C   LIG    1       -3.827   1.938  -5.000  0.00  0.00    +0.190 C 
BRANCH  25  28
ATOM     28  C   LIG    1       -5.649   4.267  -7.465  0.00  0.00    +0.180 C 
BRANCH  28  29
ATOM     29  O   LIG    1       -6.330   5.508  -7.265  0.00  0.00    -0.570 OA
ATOM     30  H   LIG    1       -6.720   5.876  -8.069  0.00  0.00    +0.380 HD
ENDBRANCH  28  29
ENDBRANCH  25  28
ENDBRANCH  19  22
ENDBRANCH   1  16
TORSDOF 7
