REMARK  Name = ZINCvU0000000E8N.0
REMARK                            x       y       z     vdW  Elec       q    Type
REMARK                         _______ _______ _______ _____ _____    ______ ____
ROOT
ATOM      1  C   LIG    1        0.989   7.568  -1.605  0.00  0.00    -0.010 C 
ATOM      2  C   LIG    1        2.333   8.123  -2.083  0.00  0.00    +0.030 C 
ATOM      3  C   LIG    1        2.114   9.499  -2.722  0.00  0.00    +0.280 C 
ATOM      4  N   LIG    1        1.413  10.360  -1.760  0.00  0.00    -0.610 N 
ATOM      5  C   LIG    1        0.156   9.882  -1.168  0.00  0.00    +0.280 C 
ATOM      6  C   LIG    1        1.913  11.566  -1.426  0.00  0.00    +0.570 C 
ATOM      7  O   LIG    1        1.286  12.302  -0.688  0.00  0.00    -0.530 OA
ATOM      8  C   LIG    1        0.396   8.502  -0.548  0.00  0.00    +0.060 C 
ENDROOT
BRANCH   6   9
ATOM      9  C   LIG    1        3.221  11.994  -1.957  0.00  0.00    -0.120 A 
ATOM     10  C   LIG    1        3.466  11.994  -3.324  0.00  0.00    +0.050 A 
ATOM     11  C   LIG    1        4.698  12.397  -3.821  0.00  0.00    +0.000 A 
ATOM     12  C   LIG    1        5.704  12.805  -3.001  0.00  0.00    +0.050 A 
ATOM     13  C   LIG    1        5.527  12.830  -1.607  0.00  0.00    -0.060 A 
ATOM     14  C   LIG    1        6.557  13.248  -0.747  0.00  0.00    +0.030 A 
ATOM     15  C   LIG    1        6.347  13.259   0.599  0.00  0.00    +0.020 A 
ATOM     16  C   LIG    1        5.126  12.862   1.138  0.00  0.00    +0.020 A 
ATOM     17  C   LIG    1        4.105  12.451   0.333  0.00  0.00    +0.030 A 
ATOM     18  C   LIG    1        4.284  12.433  -1.056  0.00  0.00    -0.020 A 
ENDBRANCH   6   9
BRANCH   1  20
ATOM     19  O   LIG    1        0.898   5.993   0.150  0.00  0.00    -0.530 OA
ATOM     20  C   LIG    1        1.196   6.200  -1.008  0.00  0.00    +0.520 C 
ATOM     21  N   LIG    1        1.710   5.207  -1.759  0.00  0.00    -0.720 N 
ATOM     22  H   LIG    1        1.948   5.372  -2.685  0.00  0.00    +0.400 HD
BRANCH  21  23
ATOM     23  C   LIG    1        1.911   3.877  -1.178  0.00  0.00    +0.280 C 
ATOM     24  C   LIG    1        3.076   3.208  -1.886  0.00  0.00    +0.050 C 
ATOM     25  C   LIG    1        3.319   1.830  -1.255  0.00  0.00    +0.120 C 
ATOM     26  S   LIG    1        1.963   0.745  -1.787  0.00  0.00    -0.120 S 
ATOM     27  C   LIG    1        0.537   1.750  -1.519  0.00  0.00    -0.070 A 
ATOM     28  C   LIG    1       -0.712   1.131  -1.568  0.00  0.00    +0.030 A 
ATOM     29  C   LIG    1       -1.866   1.865  -1.400  0.00  0.00    +0.030 A 
ATOM     30  C   LIG    1       -1.781   3.226  -1.170  0.00  0.00    +0.000 A 
ATOM     31  C   LIG    1       -0.548   3.839  -1.114  0.00  0.00    +0.040 A 
ATOM     32  C   LIG    1        0.626   3.109  -1.282  0.00  0.00    -0.100 A 
ENDBRANCH  21  23
ENDBRANCH   1  20
TORSDOF 3
