REMARK  Name = ZINCrD000000AllX.0
REMARK                            x       y       z     vdW  Elec       q    Type
REMARK                         _______ _______ _______ _____ _____    ______ ____
ROOT
ATOM      1  N   LIG    1       -0.769   1.558  -1.178  0.00  0.00    -0.520 NA
ATOM      2  C   LIG    1       -1.234   2.947  -1.072  0.00  0.00    +0.190 C 
ATOM      3  C   LIG    1       -2.006   3.326  -2.338  0.00  0.00    +0.050 C 
ATOM      4  C   LIG    1       -1.091   3.166  -3.555  0.00  0.00    +0.090 C 
ATOM      5  C   LIG    1       -0.582   1.723  -3.615  0.00  0.00    +0.060 C 
ATOM      6  C   LIG    1        0.149   1.391  -2.312  0.00  0.00    +0.170 C 
ENDROOT
BRANCH   4   7
ATOM      7  C   LIG    1       -1.863   3.480  -4.811  0.00  0.00    +0.150 A 
ATOM      8  N   LIG    1       -2.938   2.865  -5.232  0.00  0.00    -0.240 NA
ATOM      9  N   LIG    1       -3.344   3.383  -6.337  0.00  0.00    -0.290 NA
ATOM     10  C   LIG    1       -2.536   4.372  -6.685  0.00  0.00    +0.190 A 
ATOM     11  C   LIG    1       -2.508   5.262  -7.775  0.00  0.00    +0.080 A 
ATOM     12  C   LIG    1       -1.528   6.203  -7.840  0.00  0.00    +0.060 A 
ATOM     13  C   LIG    1       -0.553   6.264  -6.829  0.00  0.00    +0.030 A 
ATOM     14  C   LIG    1       -0.590   5.401  -5.792  0.00  0.00    +0.230 A 
ATOM     15  N   LIG    1       -1.572   4.458  -5.711  0.00  0.00    -0.390 N 
ENDBRANCH   4   7
BRANCH   1  16
ATOM     16  C   LIG    1       -0.144   1.116   0.075  0.00  0.00    +0.220 C 
BRANCH  16  18
ATOM     17  O   LIG    1       -0.342  -1.020  -0.909  0.00  0.00    -0.490 OA
ATOM     18  C   LIG    1        0.081  -0.374   0.026  0.00  0.00    +0.520 C 
ATOM     19  N   LIG    1        0.753  -0.987   1.020  0.00  0.00    -0.670 N 
ATOM     20  H   LIG    1        1.022  -0.485   1.805  0.00  0.00    +0.410 HD
BRANCH  19  21
ATOM     21  C   LIG    1        1.061  -2.350   0.920  0.00  0.00    +0.150 A 
ATOM     22  C   LIG    1        0.248  -3.194   0.176  0.00  0.00    +0.080 A 
ATOM     23  C   LIG    1        0.558  -4.537   0.074  0.00  0.00    +0.020 A 
ATOM     24  C   LIG    1        1.671  -5.043   0.723  0.00  0.00    +0.100 A 
ATOM     25  C   LIG    1        2.481  -4.205   1.470  0.00  0.00    +0.020 A 
ATOM     26  F   LIG    1        1.968  -6.357   0.625  0.00  0.00    -0.130 F 
ATOM     27  C   LIG    1        2.179  -2.860   1.570  0.00  0.00    -0.040 A 
ATOM     28 CL   LIG    1        3.194  -1.809   2.508  0.00  0.00    -0.050 Cl
ENDBRANCH  19  21
ENDBRANCH  16  18
ENDBRANCH   1  16
TORSDOF 4
