REMARK  Name = ZINCqH0000004zQt.1
REMARK                            x       y       z     vdW  Elec       q    Type
REMARK                         _______ _______ _______ _____ _____    ______ ____
ROOT
ATOM      1  C   LIG    1       -3.016  -0.401   7.240  0.00  0.00    -0.100 A 
ATOM      2  C   LIG    1       -3.871  -0.789   8.271  0.00  0.00    +0.110 A 
ATOM      3  C   LIG    1       -3.366  -1.484   9.359  0.00  0.00    +0.150 A 
ATOM      4  C   LIG    1       -2.014  -1.793   9.419  0.00  0.00    +0.080 A 
ATOM      5  C   LIG    1       -1.165  -1.408   8.397  0.00  0.00    -0.160 A 
ATOM      6  C   LIG    1       -1.659  -0.721   7.307  0.00  0.00    +0.080 A 
ENDROOT
BRANCH   3   7
ATOM      7  N   LIG    1       -4.222  -1.877  10.398  0.00  0.00    -0.400 N 
ATOM      8  C   LIG    1       -3.852  -2.568  11.516  0.00  0.00    +0.150 A 
ATOM      9  C   LIG    1       -4.949  -2.755  12.278  0.00  0.00    -0.030 A 
ATOM     10  C   LIG    1       -6.038  -2.166  11.604  0.00  0.00    -0.030 A 
ATOM     11  C   LIG    1       -5.565  -1.636  10.457  0.00  0.00    +0.160 A 
ENDBRANCH   3   7
BRANCH   1  14
ATOM     12  N   LIG    1       -2.718   0.715   5.080  0.00  0.00    -0.720 N 
ATOM     13  H   LIG    1       -1.774   0.497   5.128  0.00  0.00    +0.400 HD
ATOM     14  C   LIG    1       -3.547   0.341   6.076  0.00  0.00    +0.570 C 
ATOM     15  O   LIG    1       -4.730   0.613   6.017  0.00  0.00    -0.520 OA
BRANCH  12  16
ATOM     16  C   LIG    1       -3.244   1.449   3.927  0.00  0.00    +0.390 C 
BRANCH  16  19
ATOM     17  C   LIG    1       -0.718   1.572   1.248  0.00  0.00    +0.090 A 
ATOM     18  C   LIG    1       -1.773   0.976   1.851  0.00  0.00    -0.110 A 
ATOM     19  C   LIG    1       -2.122   1.745   2.966  0.00  0.00    +0.050 A 
ATOM     20  N   LIG    1       -1.306   2.766   3.030  0.00  0.00    -0.270 NA
ATOM     21  N   LIG    1       -0.407   2.676   1.959  0.00  0.00    -0.470 N 
ATOM     22  H   LIG    1        0.310   3.299   1.762  0.00  0.00    +0.440 HD
BRANCH  17  24
ATOM     23  C   LIG    1       -0.753   1.593  -1.232  0.00  0.00    +0.040 C 
ATOM     24  C   LIG    1       -0.013   1.086   0.008  0.00  0.00    +0.100 C 
ENDBRANCH  17  24
ENDBRANCH  16  19
ENDBRANCH  12  16
ENDBRANCH   1  14
BRANCH   5  25
ATOM     25  C   LIG    1        0.301  -1.746   8.471  0.00  0.00    +0.510 C 
ATOM     26  F   LIG    1        0.702  -1.794   9.811  0.00  0.00    -0.170 F 
ATOM     27  F   LIG    1        1.040  -0.766   7.799  0.00  0.00    -0.170 F 
ATOM     28  F   LIG    1        0.524  -2.990   7.872  0.00  0.00    -0.170 F 
ENDBRANCH   5  25
TORSDOF 6
