REMARK  Name = ZINCqH0000004zQt.0
REMARK                            x       y       z     vdW  Elec       q    Type
REMARK                         _______ _______ _______ _____ _____    ______ ____
ROOT
ATOM      1  C   LIG    1        5.898   1.014  -3.061  0.00  0.00    -0.100 A 
ATOM      2  C   LIG    1        7.265   1.057  -3.332  0.00  0.00    +0.110 A 
ATOM      3  C   LIG    1        7.705   1.185  -4.640  0.00  0.00    +0.150 A 
ATOM      4  C   LIG    1        6.785   1.270  -5.677  0.00  0.00    +0.080 A 
ATOM      5  C   LIG    1        5.429   1.228  -5.409  0.00  0.00    -0.160 A 
ATOM      6  C   LIG    1        4.981   1.095  -4.111  0.00  0.00    +0.080 A 
ENDROOT
BRANCH   3   7
ATOM      7  N   LIG    1        9.079   1.228  -4.917  0.00  0.00    -0.400 N 
ATOM      8  C   LIG    1        9.638   1.345  -6.157  0.00  0.00    +0.150 A 
ATOM      9  C   LIG    1       10.979   1.354  -6.015  0.00  0.00    -0.030 A 
ATOM     10  C   LIG    1       11.260   1.229  -4.640  0.00  0.00    -0.030 A 
ATOM     11  C   LIG    1       10.080   1.154  -3.991  0.00  0.00    +0.150 A 
ENDBRANCH   3   7
BRANCH   1  14
ATOM     12  N   LIG    1        4.099   0.837  -1.410  0.00  0.00    -0.720 N 
ATOM     13  H   LIG    1        3.460   0.896  -2.138  0.00  0.00    +0.400 HD
ATOM     14  C   LIG    1        5.421   0.878  -1.669  0.00  0.00    +0.570 C 
ATOM     15  O   LIG    1        6.221   0.803  -0.757  0.00  0.00    -0.520 OA
BRANCH  12  16
ATOM     16  C   LIG    1        3.626   0.702  -0.030  0.00  0.00    +0.380 C 
BRANCH  16  21
ATOM     17  C   LIG    1        0.002  -0.004   0.002  0.00  0.00    +0.080 A 
ATOM     18  N   LIG    1       -0.016   1.304   0.009  0.00  0.00    -0.270 NA
ATOM     19  N   LIG    1        1.309   1.760  -0.001  0.00  0.00    -0.470 N 
ATOM     20  H   LIG    1        1.593   2.687   0.001  0.00  0.00    +0.440 HD
ATOM     21  C   LIG    1        2.119   0.681  -0.015  0.00  0.00    +0.060 A 
ATOM     22  C   LIG    1        1.337  -0.423  -0.013  0.00  0.00    -0.090 A 
BRANCH  17  24
ATOM     23  C   LIG    1       -2.098  -0.551   1.202  0.00  0.00    +0.030 C 
ATOM     24  C   LIG    1       -1.206  -0.904   0.009  0.00  0.00    +0.110 C 
ENDBRANCH  17  24
ENDBRANCH  16  21
ENDBRANCH  12  16
ENDBRANCH   1  14
BRANCH   5  25
ATOM     25  C   LIG    1        4.437   1.321  -6.540  0.00  0.00    +0.510 C 
ATOM     26  F   LIG    1        4.982   2.087  -7.576  0.00  0.00    -0.170 F 
ATOM     27  F   LIG    1        3.262   1.926  -6.081  0.00  0.00    -0.170 F 
ATOM     28  F   LIG    1        4.146   0.036  -7.013  0.00  0.00    -0.170 F 
ENDBRANCH   5  25
TORSDOF 6
