REMARK  Name = ZINCrD000000C4fx.0
REMARK                            x       y       z     vdW  Elec       q    Type
REMARK                         _______ _______ _______ _____ _____    ______ ____
ROOT
ATOM      1  O   LIG    1       -1.980  -0.303   1.323  0.00  0.00    -0.560 OA
ATOM      2  C   LIG    1       -1.716   0.803   1.755  0.00  0.00    +0.710 C 
ATOM      3  N   LIG    1       -0.656   1.480   1.272  0.00  0.00    -0.730 N 
ATOM      4  H   LIG    1       -0.446   2.362   1.616  0.00  0.00    +0.400 HD
ATOM      5  N   LIG    1       -2.484   1.351   2.717  0.00  0.00    -0.680 N 
ATOM      6  H   LIG    1       -2.231   2.198   3.117  0.00  0.00    +0.410 HD
ENDROOT
BRANCH   5   7
ATOM      7  C   LIG    1       -3.648   0.698   3.141  0.00  0.00    +0.180 A 
ATOM      8  C   LIG    1       -4.051   0.797   4.472  0.00  0.00    -0.040 A 
ATOM      9  C   LIG    1       -5.184   0.167   4.901  0.00  0.00    +0.080 A 
ATOM     10  C   LIG    1       -5.944  -0.584   4.002  0.00  0.00    -0.120 A 
ATOM     11  C   LIG    1       -7.178  -1.367   4.120  0.00  0.00    -0.050 A 
ATOM     12  C   LIG    1       -7.439  -1.874   2.905  0.00  0.00    +0.220 A 
ATOM     13  N   LIG    1       -6.473  -1.480   2.018  0.00  0.00    -0.600 N 
ATOM     14  H   LIG    1       -6.447  -1.722   1.079  0.00  0.00    +0.420 HD
ATOM     15  C   LIG    1       -5.544  -0.689   2.657  0.00  0.00    +0.110 A 
ATOM     16  C   LIG    1       -4.392  -0.036   2.235  0.00  0.00    +0.000 A 
ENDBRANCH   5   7
BRANCH   3  17
ATOM     17  C   LIG    1        0.179   0.884   0.225  0.00  0.00    +0.270 C 
ATOM     18  C   LIG    1        1.591   1.515   0.235  0.00  0.00    +0.070 C 
ATOM     19  C   LIG    1        1.927   1.557  -1.272  0.00  0.00    +0.290 C 
ATOM     20  N   LIG    1        0.632   1.596  -1.961  0.00  0.00    -0.580 N 
ATOM     21  C   LIG    1       -0.367   1.218  -1.145  0.00  0.00    +0.510 C 
ATOM     22  O   LIG    1       -1.536   1.153  -1.462  0.00  0.00    -0.490 OA
BRANCH  20  23
ATOM     23  C   LIG    1        0.459   1.979  -3.299  0.00  0.00    +0.070 A 
ATOM     24  C   LIG    1        0.217   3.311  -3.617  0.00  0.00    +0.140 A 
ATOM     25  C   LIG    1        0.052   3.685  -4.938  0.00  0.00    -0.010 A 
ATOM     26  C   LIG    1        0.116   2.736  -5.941  0.00  0.00    +0.100 A 
ATOM     27  C   LIG    1        0.351   1.409  -5.628  0.00  0.00    -0.010 A 
ATOM     28  F   LIG    1        0.149   4.238  -2.637  0.00  0.00    -0.120 F 
ATOM     29  C   LIG    1        0.523   1.028  -4.310  0.00  0.00    +0.140 A 
ATOM     30  F   LIG    1        0.753  -0.268  -4.005  0.00  0.00    -0.120 F 
ENDBRANCH  20  23
ENDBRANCH   3  17
TORSDOF 3
