REMARK  Name = ZINCpk00000y6vpH.0
REMARK                            x       y       z     vdW  Elec       q    Type
REMARK                         _______ _______ _______ _____ _____    ______ ____
ROOT
ATOM      1  C   LIG    1        1.310  -0.667   0.381  0.00  0.00    +0.470 A 
ATOM      2  C   LIG    1        0.602   0.169  -0.460  0.00  0.00    -0.010 A 
ATOM      3  C   LIG    1        0.659   1.545  -0.249  0.00  0.00    +0.160 A 
ATOM      4  N   LIG    1        1.379   2.039   0.736  0.00  0.00    -0.410 NA
ATOM      5  C   LIG    1        2.070   1.241   1.558  0.00  0.00    +0.450 A 
ATOM      6  N   LIG    1        2.857   1.492   2.599  0.00  0.00    -0.510 NA
ATOM      7  C   LIG    1        3.319   0.352   3.097  0.00  0.00    +0.500 A 
ATOM      8  N   LIG    1        2.856  -0.654   2.396  0.00  0.00    -0.310 NA
ATOM      9  N   LIG    1        2.043  -0.115   1.391  0.00  0.00    -0.330 N 
ENDROOT
BRANCH   1  15
ATOM     10  C   LIG    1        2.492  -2.781  -0.153  0.00  0.00    +0.370 C 
ATOM     11  C   LIG    1        2.183  -3.667  -1.360  0.00  0.00    +0.250 C 
ATOM     12  O   LIG    1        1.015  -4.445  -1.088  0.00  0.00    -0.360 OA
ATOM     13  C   LIG    1       -0.168  -3.671  -0.877  0.00  0.00    +0.230 C 
ATOM     14  C   LIG    1        0.022  -2.786   0.360  0.00  0.00    +0.290 C 
ATOM     15  N   LIG    1        1.276  -2.033   0.204  0.00  0.00    -0.640 N 
BRANCH  10  20
ATOM     16  C   LIG    1        6.879  -0.380  -0.414  0.00  0.00    +0.210 C 
ATOM     17  C   LIG    1        5.444  -0.793  -0.622  0.00  0.00    +0.170 A 
ATOM     18  N   LIG    1        4.582  -0.212  -1.402  0.00  0.00    -0.370 NA
ATOM     19  O   LIG    1        3.516  -0.789  -1.352  0.00  0.00    +0.080 OA
ATOM     20  C   LIG    1        3.596  -1.817  -0.502  0.00  0.00    +0.150 A 
ATOM     21  N   LIG    1        4.822  -1.830  -0.035  0.00  0.00    -0.440 NA
ENDBRANCH  10  20
ENDBRANCH   1  15
BRANCH   3  22
ATOM     22  C   LIG    1       -0.107   2.474  -1.156  0.00  0.00    +0.530 C 
ATOM     23  F   LIG    1       -1.472   2.175  -1.083  0.00  0.00    -0.160 F 
ATOM     24  F   LIG    1        0.337   2.311  -2.473  0.00  0.00    -0.160 F 
ATOM     25  F   LIG    1        0.103   3.797  -0.753  0.00  0.00    -0.150 F 
ENDBRANCH   3  22
TORSDOF 3
