REMARK  Name = ZINCpk000000pKTn.0
REMARK                            x       y       z     vdW  Elec       q    Type
REMARK                         _______ _______ _______ _____ _____    ______ ____
ROOT
ATOM      1  C   LIG    1        1.510   2.683   1.528  0.00  0.00    -0.660 A 
ATOM      2  C   LIG    1        0.993   3.962   1.627  0.00  0.00    +0.120 A 
ATOM      3  C   LIG    1        1.062   4.647   2.823  0.00  0.00    +0.030 A 
ATOM      4  C   LIG    1        1.665   4.050   3.931  0.00  0.00    -0.080 A 
ATOM      5  C   LIG    1        2.191   2.761   3.822  0.00  0.00    +0.070 A 
ATOM      6  C   LIG    1        2.110   2.086   2.622  0.00  0.00    +0.130 A 
ENDROOT
BRANCH   4   7
ATOM      7  C   LIG    1        1.749   4.780   5.214  0.00  0.00    +0.560 C 
ATOM      8  N   LIG    1        1.240   6.024   5.315  0.00  0.00    -0.720 N 
ATOM      9  H   LIG    1        0.820   6.441   4.547  0.00  0.00    +0.400 HD
ATOM     10  O   LIG    1        2.276   4.258   6.177  0.00  0.00    -0.520 OA
BRANCH   8  11
ATOM     11  C   LIG    1        1.323   6.748   6.587  0.00  0.00    +0.280 C 
BRANCH  11  12
ATOM     12  C   LIG    1        0.677   8.126   6.432  0.00  0.00    +0.190 C 
BRANCH  12  13
ATOM     13  C   LIG    1        0.762   8.870   7.740  0.00  0.00    +0.180 A 
ATOM     14  N   LIG    1        1.735   9.659   8.128  0.00  0.00    -0.470 NA
ATOM     15  C   LIG    1        1.381  10.095   9.350  0.00  0.00    +0.170 A 
ATOM     16  N   LIG    1        0.233   9.559   9.638  0.00  0.00    -0.380 NA
ATOM     17  C   LIG    1        2.173  11.033  10.225  0.00  0.00    +0.200 C 
ATOM     18  O   LIG    1       -0.143   8.857   8.723  0.00  0.00    +0.080 OA
ENDBRANCH  12  13
ENDBRANCH  11  12
ENDBRANCH   8  11
ENDBRANCH   4   7
BRANCH   1  19
ATOM     19  S   LIG    1        1.412   1.813  -0.002  0.00  0.00    +2.690 S 
ATOM     20  O   LIG    1        1.285   2.800  -1.017  0.00  0.00    -0.950 OA
ATOM     21  O   LIG    1        2.454   0.848   0.018  0.00  0.00    -0.950 OA
BRANCH  19  22
ATOM     22  N   LIG    1       -0.011   0.966   0.007  0.00  0.00    -1.110 NA
ATOM     23  H   LIG    1        0.002  -0.004   0.002  0.00  0.00    +0.420 HD
BRANCH  22  24
ATOM     24  C   LIG    1       -1.290   1.681   0.017  0.00  0.00    +0.230 C 
ATOM     25  C   LIG    1       -1.803   1.828  -1.417  0.00  0.00    +0.020 C 
BRANCH  24  27
ATOM     26  C   LIG    1       -1.855   0.854   2.306  0.00  0.00    +0.010 C 
ATOM     27  C   LIG    1       -2.308   0.894   0.845  0.00  0.00    +0.020 C 
ENDBRANCH  24  27
ENDBRANCH  22  24
ENDBRANCH  19  22
ENDBRANCH   1  19
TORSDOF 8
