REMARK  Name = ZINCkj000005h4fQ.0
REMARK                            x       y       z     vdW  Elec       q    Type
REMARK                         _______ _______ _______ _____ _____    ______ ____
ROOT
ATOM      1  C   LIG    1       -1.313   3.281   0.042  0.00  0.00    -0.040 A 
ATOM      2  C   LIG    1       -0.566   3.197  -1.099  0.00  0.00    +0.010 A 
ATOM      3  C   LIG    1        0.692   2.455  -1.080  0.00  0.00    +0.530 A 
ATOM      4  N   LIG    1        1.131   1.863   0.044  0.00  0.00    -0.630 N 
ATOM      5  H   LIG    1        1.972   1.380   0.030  0.00  0.00    +0.420 HD
ATOM      6  C   LIG    1        0.410   1.931   1.218  0.00  0.00    +0.190 A 
ATOM      7  C   LIG    1        0.882   1.312   2.372  0.00  0.00    -0.020 A 
ATOM      8  C   LIG    1        0.152   1.388   3.538  0.00  0.00    +0.090 A 
ATOM      9  C   LIG    1       -1.053   2.076   3.574  0.00  0.00    +0.000 A 
ATOM     10  C   LIG    1       -1.535   2.690   2.454  0.00  0.00    +0.070 A 
ATOM     11  O   LIG    1        1.356   2.374  -2.099  0.00  0.00    -0.510 OA
ATOM     12  C   LIG    1       -0.811   2.627   1.260  0.00  0.00    -0.120 A 
ENDROOT
BRANCH   1  15
ATOM     13  C   LIG    1       -1.333   6.103   0.148  0.00  0.00    +0.300 C 
ATOM     14  N   LIG    1       -2.599   5.367   0.157  0.00  0.00    -0.610 N 
ATOM     15  C   LIG    1       -2.597   4.023   0.053  0.00  0.00    +0.570 C 
ATOM     16  O   LIG    1       -3.648   3.419  -0.030  0.00  0.00    -0.490 OA
BRANCH  14  17
ATOM     17  C   LIG    1       -3.867   6.090   0.279  0.00  0.00    +0.270 C 
ATOM     18  C   LIG    1       -3.877   6.942   1.569  0.00  0.00    +0.080 C 
ATOM     19  C   LIG    1       -3.461   8.347   1.057  0.00  0.00    +0.270 C 
ATOM     20  N   LIG    1       -4.137   8.442  -0.262  0.00  0.00    -0.510 N 
ATOM     21  H   LIG    1       -5.109   8.683  -0.139  0.00  0.00    +0.440 HD
ATOM     22  H   LIG    1       -3.677   9.130  -0.840  0.00  0.00    +0.440 HD
ATOM     23  C   LIG    1       -4.018   7.101  -0.874  0.00  0.00    +0.270 C 
ENDBRANCH  14  17
ENDBRANCH   1  15
TORSDOF 2
