REMARK  Name = ZINCpk000000mXsY.0
REMARK                            x       y       z     vdW  Elec       q    Type
REMARK                         _______ _______ _______ _____ _____    ______ ____
ROOT
ATOM      1  C   LIG    1        2.417   4.234   0.001  0.00  0.00    +0.290 C 
ENDROOT
BRANCH   1   7
ATOM      2  C   LIG    1        3.607   8.695  -1.155  0.00  0.00    +0.220 C 
ATOM      3  C   LIG    1        5.092   8.334  -1.073  0.00  0.00    +0.020 C 
ATOM      4  C   LIG    1        5.257   6.816  -1.179  0.00  0.00    +0.030 C 
ATOM      5  C   LIG    1        4.532   6.145  -0.003  0.00  0.00    +0.270 C 
ATOM      6  N   LIG    1        3.135   6.601   0.006  0.00  0.00    -0.610 N 
ATOM      7  C   LIG    1        2.122   5.712   0.011  0.00  0.00    +0.510 C 
ATOM      8  O   LIG    1        0.974   6.101   0.024  0.00  0.00    -0.530 OA
ATOM      9  C   LIG    1        2.863   8.045   0.016  0.00  0.00    +0.270 C 
BRANCH   2  12
ATOM     10  C   LIG    1        2.205  12.235  -1.547  0.00  0.00    +0.110 C 
ATOM     11  C   LIG    1        2.364  10.738  -1.619  0.00  0.00    +0.510 C 
ATOM     12  N   LIG    1        3.453  10.150  -1.085  0.00  0.00    -0.730 N 
ATOM     13  H   LIG    1        4.134  10.690  -0.655  0.00  0.00    +0.400 HD
ATOM     14  O   LIG    1        1.512  10.063  -2.157  0.00  0.00    -0.540 OA
ENDBRANCH   2  12
ENDBRANCH   1   7
BRANCH   1  15
ATOM     15  N   LIG    1        1.158   3.485   0.009  0.00  0.00    -0.730 N 
ATOM     16  H   LIG    1        0.312   3.958   0.020  0.00  0.00    +0.410 HD
BRANCH  15  17
ATOM     17  C   LIG    1        1.177   2.087   0.002  0.00  0.00    +0.210 A 
ATOM     18  C   LIG    1       -0.017   1.376   0.010  0.00  0.00    -0.040 A 
ATOM     19  C   LIG    1        0.002  -0.004   0.002  0.00  0.00    +0.080 A 
ATOM     20  C   LIG    1        1.214  -0.682  -0.013  0.00  0.00    +0.100 A 
ATOM     21  C   LIG    1        2.407   0.028  -0.020  0.00  0.00    +0.040 A 
ATOM     22  C   LIG    1        2.389   1.408  -0.013  0.00  0.00    -0.050 A 
BRANCH  20  23
ATOM     23  N   LIG    1        1.232  -2.085  -0.019  0.00  0.00    -0.310 N 
ATOM     24  C   LIG    1        2.336  -2.866  -0.034  0.00  0.00    +0.230 A 
ATOM     25  C   LIG    1        1.927  -4.156  -0.036  0.00  0.00    -0.120 A 
ATOM     26  C   LIG    1        0.528  -4.165  -0.023  0.00  0.00    +0.240 A 
ATOM     27  N   LIG    1        0.111  -2.925  -0.007  0.00  0.00    -0.290 NA
ENDBRANCH  20  23
ENDBRANCH  15  17
ENDBRANCH   1  15
TORSDOF 5
