REMARK  Name = ZINCb80000003VP8.0
REMARK                            x       y       z     vdW  Elec       q    Type
REMARK                         _______ _______ _______ _____ _____    ______ ____
ROOT
ATOM      1  C   LIG    1        0.640   3.376   0.014  0.00  0.00    +0.120 C 
ATOM      2  N   LIG    1        1.094   1.974   0.002  0.00  0.00    -0.720 N 
ATOM      3  H   LIG    1        2.012   1.662  -0.009  0.00  0.00    +0.440 HD
ATOM      4  C   LIG    1       -0.014   1.211   0.009  0.00  0.00    +0.700 C 
ATOM      5  N   LIG    1       -1.137   1.940   0.018  0.00  0.00    -0.680 N 
ATOM      6  H   LIG    1       -2.031   1.563   0.019  0.00  0.00    +0.430 HD
ATOM      7  O   LIG    1        0.002  -0.004   0.002  0.00  0.00    -0.540 OA
ATOM      8  C   LIG    1        1.137   4.092   1.272  0.00  0.00    +0.090 C 
ATOM      9  C   LIG    1       -0.871   3.261   0.028  0.00  0.00    +0.530 C 
ATOM     10  O   LIG    1       -1.675   4.169   0.040  0.00  0.00    -0.460 OA
ENDROOT
BRANCH   1  12
ATOM     11  C   LIG    1        0.529   5.519  -1.266  0.00  0.00    +0.040 C 
ATOM     12  C   LIG    1        1.116   4.106  -1.243  0.00  0.00    -0.010 C 
ATOM     13  C   LIG    1        2.644   4.189  -1.237  0.00  0.00    +0.050 C 
ENDBRANCH   1  12
TORSDOF 1
