REMARK  Name = ZINCrD0000073lIy.0
REMARK                            x       y       z     vdW  Elec       q    Type
REMARK                         _______ _______ _______ _____ _____    ______ ____
ROOT
ATOM      1  C   LIG    1        0.162   0.960  -4.895  0.00  0.00    +0.150 C 
ENDROOT
BRANCH   1   4
ATOM      2  C   LIG    1       -2.377   1.709  -7.395  0.00  0.00    +0.130 A 
ATOM      3  N   LIG    1       -1.846   1.227  -6.308  0.00  0.00    -0.440 NA
ATOM      4  C   LIG    1       -0.567   1.459  -6.115  0.00  0.00    +0.090 A 
ATOM      5  C   LIG    1        0.049   2.161  -7.072  0.00  0.00    -0.070 A 
ATOM      6  S   LIG    1       -1.136   2.554  -8.317  0.00  0.00    +0.090 S 
BRANCH   2  10
ATOM      7  C   LIG    1       -6.447   1.293  -8.544  0.00  0.00    +0.150 A 
ATOM      8  C   LIG    1       -5.564   1.986  -9.362  0.00  0.00    -0.010 A 
ATOM      9  C   LIG    1       -4.243   2.123  -8.992  0.00  0.00    +0.070 A 
ATOM     10  C   LIG    1       -3.793   1.565  -7.795  0.00  0.00    -0.070 A 
ATOM     11  C   LIG    1       -4.683   0.864  -6.978  0.00  0.00    +0.120 A 
ATOM     12  C   LIG    1       -6.003   0.736  -7.352  0.00  0.00    -0.070 A 
BRANCH   7  14
ATOM     13  C   LIG    1       -8.601   0.434  -8.024  0.00  0.00    +0.240 C 
ATOM     14  O   LIG    1       -7.748   1.159  -8.912  0.00  0.00    -0.310 OA
ENDBRANCH   7  14
ENDBRANCH   2  10
ENDBRANCH   1   4
BRANCH   1  15
ATOM     15  C   LIG    1       -0.543   1.446  -3.655  0.00  0.00    +0.520 C 
ATOM     16  N   LIG    1       -0.067   1.120  -2.437  0.00  0.00    -0.740 N 
ATOM     17  H   LIG    1        0.730   0.573  -2.358  0.00  0.00    +0.400 HD
ATOM     18  O   LIG    1       -1.540   2.130  -3.753  0.00  0.00    -0.510 OA
BRANCH  16  19
ATOM     19  C   LIG    1       -0.753   1.593  -1.232  0.00  0.00    +0.260 C 
BRANCH  19  20
ATOM     20  C   LIG    1       -0.013   1.086   0.008  0.00  0.00    +0.010 C 
BRANCH  20  21
ATOM     21  C   LIG    1       -0.729   1.579   1.267  0.00  0.00    +0.340 C 
BRANCH  21  22
ATOM     22  N   LIG    1       -0.020   1.094   2.454  0.00  0.00    -0.370 N 
ATOM     23  N   LIG    1        1.019   1.755   3.120  0.00  0.00    -0.300 NA
ATOM     24  C   LIG    1        1.395   1.012   4.130  0.00  0.00    +0.070 A 
ATOM     25  C   LIG    1        0.608  -0.144   4.138  0.00  0.00    -0.120 A 
ATOM     26  C   LIG    1        2.487   1.345   5.114  0.00  0.00    +0.160 C 
ATOM     27  C   LIG    1       -0.258  -0.066   3.101  0.00  0.00    +0.080 A 
ATOM     28  C   LIG    1       -1.298  -1.092   2.733  0.00  0.00    +0.150 C 
ENDBRANCH  21  22
ENDBRANCH  20  21
ENDBRANCH  19  20
ENDBRANCH  16  19
ENDBRANCH   1  15
TORSDOF 8
