REMARK  Name = ZINCnE000001KUib.1
REMARK                            x       y       z     vdW  Elec       q    Type
REMARK                         _______ _______ _______ _____ _____    ______ ____
ROOT
ATOM      1  C   LIG    1        5.744   2.998  -0.032  0.00  0.00    +0.130 A 
ATOM      2  C   LIG    1        5.373   4.343  -0.021  0.00  0.00    +0.060 A 
ATOM      3  C   LIG    1        4.037   4.687  -0.009  0.00  0.00    +0.020 A 
ATOM      4  C   LIG    1        3.057   3.696  -0.006  0.00  0.00    -0.220 A 
ATOM      5  S   LIG    1        1.298   3.807   0.010  0.00  0.00    -0.030 S 
ATOM      6  C   LIG    1        1.175   2.053   0.002  0.00  0.00    +0.400 A 
ATOM      7  N   LIG    1        2.347   1.521  -0.007  0.00  0.00    -0.560 NA
ATOM      8  C   LIG    1        3.414   2.345  -0.017  0.00  0.00    +0.160 A 
ATOM      9  C   LIG    1        4.786   2.011  -0.030  0.00  0.00    -0.040 A 
ENDROOT
BRANCH   6  10
ATOM     10  N   LIG    1       -0.016   1.344   0.009  0.00  0.00    -0.690 NA
ATOM     11  C   LIG    1        0.002  -0.004   0.002  0.00  0.00    +0.460 C 
ATOM     12  O   LIG    1        1.060  -0.596  -0.011  0.00  0.00    -0.570 OA
BRANCH  11  13
ATOM     13  C   LIG    1       -1.293  -0.775   0.010  0.00  0.00    +0.050 C 
BRANCH  13  14
ATOM     14  C   LIG    1       -0.993  -2.276  -0.001  0.00  0.00    +0.150 C 
BRANCH  14  15
ATOM     15  C   LIG    1       -2.287  -3.047   0.007  0.00  0.00    +0.010 A 
ATOM     16  C   LIG    1       -2.976  -3.439  -1.079  0.00  0.00    -0.070 A 
ATOM     17  C   LIG    1       -4.118  -4.130  -0.613  0.00  0.00    -0.070 A 
ATOM     18  C   LIG    1       -4.063  -4.111   0.731  0.00  0.00    +0.140 A 
ATOM     19  O   LIG    1       -2.952  -3.454   1.101  0.00  0.00    -0.180 OA
ENDBRANCH  14  15
ENDBRANCH  13  14
ENDBRANCH  11  13
ENDBRANCH   6  10
BRANCH   1  21
ATOM     20  C   LIG    1        7.374   1.266  -0.055  0.00  0.00    +0.220 C 
ATOM     21  O   LIG    1        7.061   2.660  -0.045  0.00  0.00    -0.310 OA
ENDBRANCH   1  21
BRANCH   2  22
ATOM     22  O   LIG    1        6.327   5.313  -0.024  0.00  0.00    -0.310 OA
ATOM     23  C   LIG    1        5.874   6.668  -0.013  0.00  0.00    +0.220 C 
ENDBRANCH   2  22
TORSDOF 6
