REMARK  Name = ZINCrH00000tj10L.0
REMARK                            x       y       z     vdW  Elec       q    Type
REMARK                         _______ _______ _______ _____ _____    ______ ____
ROOT
ATOM      1  C   LIG    1       -1.290   1.681   0.029  0.00  0.00    +0.260 C 
ENDROOT
BRANCH   1   2
ATOM      2  N   LIG    1       -0.011   0.967   0.015  0.00  0.00    -0.730 N 
ATOM      3  H   LIG    1        0.002  -0.003   0.002  0.00  0.00    +0.400 HD
ATOM      4  C   LIG    1        1.147   1.656   0.014  0.00  0.00    +0.520 C 
ATOM      5  O   LIG    1        1.130   2.869   0.029  0.00  0.00    -0.540 OA
BRANCH   4   6
ATOM      6  C   LIG    1        2.462   0.921  -0.007  0.00  0.00    -0.070 C 
ATOM      7  C   LIG    1        2.544   0.059  -1.268  0.00  0.00    +0.040 C 
ATOM      8  C   LIG    1        3.880  -0.688  -1.289  0.00  0.00    -0.010 C 
ATOM      9  C   LIG    1        3.983  -1.582  -0.052  0.00  0.00    +0.020 C 
ATOM     10  C   LIG    1        3.901  -0.720   1.209  0.00  0.00    -0.010 C 
ATOM     11  C   LIG    1        5.050   0.290   1.212  0.00  0.00    +0.010 C 
ATOM     12  C   LIG    1        4.947   1.184  -0.025  0.00  0.00    -0.020 C 
ATOM     13  C   LIG    1        5.029   0.322  -1.286  0.00  0.00    +0.010 C 
ATOM     14  C   LIG    1        2.566   0.026   1.230  0.00  0.00    +0.040 C 
ATOM     15  C   LIG    1        3.611   1.931  -0.004  0.00  0.00    +0.050 C 
ENDBRANCH   4   6
ENDBRANCH   1   2
BRANCH   1  16
ATOM     16  C   LIG    1       -2.439   0.671   0.020  0.00  0.00    +0.040 C 
BRANCH  16  17
ATOM     17  C   LIG    1       -3.774   1.418   0.034  0.00  0.00    +0.060 C 
BRANCH  17  20
ATOM     18  N   LIG    1       -6.183   0.855   0.036  0.00  0.00    -0.670 N 
ATOM     19  H   LIG    1       -6.374   1.803   0.117  0.00  0.00    +0.410 HD
ATOM     20  C   LIG    1       -4.906   0.423   0.026  0.00  0.00    +0.510 C 
ATOM     21  O   LIG    1       -4.668  -0.766   0.009  0.00  0.00    -0.510 OA
BRANCH  18  26
ATOM     22  C   LIG    1       -8.163  -2.225   0.407  0.00  0.00    +0.150 A 
ATOM     23  C   LIG    1       -9.316  -1.878  -0.283  0.00  0.00    -0.090 A 
ATOM     24  C   LIG    1       -9.426  -0.629  -0.864  0.00  0.00    +0.070 A 
ATOM     25  C   LIG    1       -8.392   0.281  -0.754  0.00  0.00    -0.050 A 
ATOM     26  C   LIG    1       -7.233  -0.064  -0.070  0.00  0.00    +0.180 A 
ATOM     27  C   LIG    1       -7.120  -1.317   0.514  0.00  0.00    -0.010 A 
BRANCH  22  29
ATOM     28  C   LIG    1       -9.169  -4.337   0.828  0.00  0.00    +0.250 C 
ATOM     29  O   LIG    1       -8.056  -3.453   0.978  0.00  0.00    -0.310 OA
ENDBRANCH  22  29
ENDBRANCH  18  26
ENDBRANCH  17  20
ENDBRANCH  16  17
ENDBRANCH   1  16
TORSDOF 7
