REMARK  Name = ZINCkj00000dDzCk.0
REMARK                            x       y       z     vdW  Elec       q    Type
REMARK                         _______ _______ _______ _____ _____    ______ ____
ROOT
ATOM      1  C   LIG    1        0.139  -0.002  -0.087  0.00  0.00    +0.230 C 
ENDROOT
BRANCH   1   6
ATOM      2  C   LIG    1        1.297  -1.809  -3.197  0.00  0.00    +0.150 A 
ATOM      3  C   LIG    1        2.395  -1.045  -3.566  0.00  0.00    -0.050 A 
ATOM      4  C   LIG    1        2.757   0.052  -2.808  0.00  0.00    +0.080 A 
ATOM      5  C   LIG    1        2.027   0.388  -1.683  0.00  0.00    -0.040 A 
ATOM      6  C   LIG    1        0.932  -0.371  -1.314  0.00  0.00    -0.100 A 
ATOM      7  C   LIG    1        0.569  -1.472  -2.065  0.00  0.00    +0.010 A 
BRANCH   2   9
ATOM      8  C   LIG    1        1.737  -3.180  -5.089  0.00  0.00    +0.250 C 
ATOM      9  O   LIG    1        0.939  -2.889  -3.940  0.00  0.00    -0.310 OA
ENDBRANCH   2   9
ENDBRANCH   1   6
BRANCH   1  10
ATOM     10  N   LIG    1        0.002   1.459  -0.014  0.00  0.00    -0.390 N 
ATOM     11  C   LIG    1       -0.702   1.968  -1.219  0.00  0.00    +0.280 C 
ATOM     12  C   LIG    1       -1.256   3.338  -0.752  0.00  0.00    +0.080 C 
ATOM     13  C   LIG    1       -1.667   3.066   0.713  0.00  0.00    +0.080 C 
ATOM     14  C   LIG    1       -0.845   1.835   1.139  0.00  0.00    +0.260 C 
ATOM     15  H   LIG    1        0.911   1.891   0.066  0.00  0.00    +0.430 HD
ENDBRANCH   1  10
BRANCH   1  16
ATOM     16  C   LIG    1        0.864  -0.509   1.161  0.00  0.00    +0.300 C 
BRANCH  16  17
ATOM     17  N   LIG    1        0.884  -1.974   1.153  0.00  0.00    -1.120 NA
ATOM     18  H   LIG    1        0.283  -2.464   0.571  0.00  0.00    +0.420 HD
BRANCH  17  19
ATOM     19  S   LIG    1        1.933  -2.793   2.138  0.00  0.00    +2.610 S 
ATOM     20  O   LIG    1        3.197  -2.200   1.875  0.00  0.00    -0.950 OA
ATOM     21  O   LIG    1        1.690  -4.162   1.847  0.00  0.00    -0.940 OA
ATOM     22  C   LIG    1        1.380  -2.393   3.819  0.00  0.00    -0.270 C 
ENDBRANCH  17  19
ENDBRANCH  16  17
ENDBRANCH   1  16
TORSDOF 6
