REMARK  Name = ZINCrD0000075uwr.0
REMARK                            x       y       z     vdW  Elec       q    Type
REMARK                         _______ _______ _______ _____ _____    ______ ____
ROOT
ATOM      1  O   LIG    1       -4.565   5.522   1.381  0.00  0.00    -0.530 OA
ATOM      2  C   LIG    1       -5.640   5.131   1.784  0.00  0.00    +0.520 C 
ATOM      3  N   LIG    1       -6.453   5.969   2.458  0.00  0.00    -0.620 N 
ATOM      4  C   LIG    1       -7.764   5.518   2.949  0.00  0.00    +0.290 C 
ATOM      5  C   LIG    1       -7.869   5.875   4.440  0.00  0.00    +0.190 C 
ATOM      6  N   LIG    1       -7.601   7.309   4.615  0.00  0.00    -0.490 N 
ATOM      7  C   LIG    1       -6.230   7.647   4.212  0.00  0.00    +0.190 C 
ATOM      8  C   LIG    1       -6.054   7.361   2.717  0.00  0.00    +0.300 C 
ENDROOT
BRANCH   6   9
ATOM      9  C   LIG    1       -7.850   7.707   5.930  0.00  0.00    +0.110 A 
ATOM     10  C   LIG    1       -6.851   8.330   6.669  0.00  0.00    -0.040 A 
ATOM     11  C   LIG    1       -7.102   8.727   7.968  0.00  0.00    +0.030 A 
ATOM     12  C   LIG    1       -8.341   8.496   8.536  0.00  0.00    -0.020 A 
ATOM     13  C   LIG    1       -9.335   7.872   7.805  0.00  0.00    +0.030 A 
ATOM     14  C   LIG    1       -9.093   7.477   6.504  0.00  0.00    -0.010 A 
ENDBRANCH   6   9
BRANCH   2  15
ATOM     15  C   LIG    1       -6.068   3.709   1.529  0.00  0.00    +0.120 C 
BRANCH  15  16
ATOM     16  C   LIG    1       -4.989   2.989   0.762  0.00  0.00    -0.050 A 
ATOM     17  C   LIG    1       -5.004   2.998  -0.620  0.00  0.00    +0.050 A 
ATOM     18  C   LIG    1       -4.016   2.338  -1.331  0.00  0.00    -0.030 A 
ATOM     19  C   LIG    1       -3.011   1.669  -0.651  0.00  0.00    +0.080 A 
ATOM     20  O   LIG    1       -2.031   1.015  -1.340  0.00  0.00    -0.310 OA
ATOM     21  C   LIG    1       -0.720   1.576  -1.246  0.00  0.00    +0.230 C 
ATOM     22  C   LIG    1       -0.013   1.086   0.008  0.00  0.00    -0.010 C 
ATOM     23  C   LIG    1       -0.696   1.562   1.280  0.00  0.00    +0.230 C 
ATOM     24  O   LIG    1       -2.003   1.000   1.396  0.00  0.00    -0.310 OA
ATOM     25  C   LIG    1       -2.997   1.662   0.736  0.00  0.00    +0.080 A 
ATOM     26 CL   LIG    1       -4.036   2.350  -3.067  0.00  0.00    -0.050 Cl
ATOM     27  C   LIG    1       -3.987   2.322   1.444  0.00  0.00    +0.040 A 
ENDBRANCH  15  16
ENDBRANCH   2  15
TORSDOF 3
