REMARK  Name = ZINCrD0000074qi8.0
REMARK                            x       y       z     vdW  Elec       q    Type
REMARK                         _______ _______ _______ _____ _____    ______ ____
ROOT
ATOM      1  O   LIG    1       -2.916   7.771  -0.243  0.00  0.00    -0.320 OA
ENDROOT
BRANCH   1   2
ATOM      2  C   LIG    1       -3.176   9.090  -0.337  0.00  0.00    +0.520 C 
ATOM      3  O   LIG    1       -2.262   9.889  -0.352  0.00  0.00    -0.490 OA
BRANCH   2  13
ATOM      4  C   LIG    1       -8.091   8.194  -0.256  0.00  0.00    +0.140 C 
ATOM      5  C   LIG    1       -6.943   9.162  -0.389  0.00  0.00    +0.150 A 
ATOM      6  N   LIG    1       -7.201  10.431  -0.583  0.00  0.00    -0.450 NA
ATOM      7  C   LIG    1       -6.228  11.337  -0.708  0.00  0.00    +0.130 A 
ATOM      8  C   LIG    1       -6.526  12.696  -0.915  0.00  0.00    +0.050 A 
ATOM      9  C   LIG    1       -5.514  13.600  -1.023  0.00  0.00    +0.030 A 
ATOM     10  C   LIG    1       -4.182  13.200  -0.948  0.00  0.00    +0.020 A 
ATOM     11  C   LIG    1       -3.855  11.891  -0.754  0.00  0.00    +0.050 A 
ATOM     12  C   LIG    1       -4.871  10.935  -0.628  0.00  0.00    -0.060 A 
ATOM     13  C   LIG    1       -4.573   9.563  -0.424  0.00  0.00    -0.070 A 
ATOM     14  C   LIG    1       -5.639   8.680  -0.302  0.00  0.00    +0.060 A 
ENDBRANCH   2  13
ENDBRANCH   1   2
BRANCH   1  15
ATOM     15  C   LIG    1       -1.520   7.378  -0.162  0.00  0.00    +0.270 C 
BRANCH  15  16
ATOM     16  C   LIG    1       -1.426   5.878  -0.062  0.00  0.00    +0.520 C 
ATOM     17  N   LIG    1       -0.220   5.283   0.025  0.00  0.00    -0.650 N 
ATOM     18  H   LIG    1        0.583   5.822   0.104  0.00  0.00    +0.420 HD
ATOM     19  O   LIG    1       -2.435   5.205  -0.059  0.00  0.00    -0.490 OA
BRANCH  17  20
ATOM     20  C   LIG    1       -0.125   3.890   0.000  0.00  0.00    +0.190 A 
ATOM     21  C   LIG    1       -1.099   3.149  -0.597  0.00  0.00    +0.040 A 
ATOM     22  C   LIG    1       -1.031   1.758  -0.643  0.00  0.00    +0.070 A 
ATOM     23  C   LIG    1        0.001   1.077  -0.086  0.00  0.00    +0.050 A 
ATOM     24  C   LIG    1        1.053   1.781   0.553  0.00  0.00    +0.100 A 
ATOM     25  N   LIG    1        2.149   1.346   1.154  0.00  0.00    -0.590 NA
ATOM     26  S   LIG    1        2.963   2.559   1.687  0.00  0.00    +0.810 S 
ATOM     27  N   LIG    1        2.045   3.729   1.229  0.00  0.00    -0.600 NA
ATOM     28  C   LIG    1        0.990   3.239   0.600  0.00  0.00    +0.060 A 
ENDBRANCH  17  20
ENDBRANCH  15  16
ENDBRANCH   1  15
TORSDOF 5
