REMARK  Name = ZINCtV00001bB3vI.0
REMARK                            x       y       z     vdW  Elec       q    Type
REMARK                         _______ _______ _______ _____ _____    ______ ____
ROOT
ATOM      1  C   LIG    1        1.087   1.724  -0.265  0.00  0.00    -0.190 A 
ATOM      2  C   LIG    1        0.151   0.824  -0.733  0.00  0.00    +0.290 A 
ATOM      3  N   LIG    1       -1.049   1.440  -0.850  0.00  0.00    -0.460 N 
ATOM      4  C   LIG    1       -0.958   2.760  -0.457  0.00  0.00    +0.090 A 
ATOM      5  C   LIG    1       -1.885   3.795  -0.388  0.00  0.00    +0.000 A 
ATOM      6  C   LIG    1       -1.493   5.042   0.049  0.00  0.00    +0.030 A 
ATOM      7  C   LIG    1       -0.179   5.279   0.422  0.00  0.00    +0.000 A 
ATOM      8  C   LIG    1        0.754   4.267   0.361  0.00  0.00    +0.050 A 
ATOM      9  C   LIG    1        0.372   3.003  -0.078  0.00  0.00    -0.070 A 
ENDROOT
BRANCH   1  21
ATOM     10  O   LIG    1        5.216   0.305   0.402  0.00  0.00    -0.510 OA
ATOM     11  C   LIG    1        4.194  -0.196   0.837  0.00  0.00    +0.560 C 
ATOM     12  N   LIG    1        4.115  -1.324   1.562  0.00  0.00    -0.660 N 
ATOM     13  H   LIG    1        4.878  -1.865   1.818  0.00  0.00    +0.420 HD
ATOM     14  C   LIG    1        2.799  -1.621   1.895  0.00  0.00    +0.140 A 
ATOM     15  C   LIG    1        2.240  -2.670   2.615  0.00  0.00    -0.010 A 
ATOM     16  C   LIG    1        0.874  -2.730   2.804  0.00  0.00    +0.040 A 
ATOM     17  C   LIG    1        0.045  -1.752   2.280  0.00  0.00    -0.010 A 
ATOM     18  C   LIG    1        0.582  -0.702   1.562  0.00  0.00    +0.050 A 
ATOM     19  C   LIG    1        1.957  -0.632   1.366  0.00  0.00    -0.090 A 
ATOM     20  C   LIG    1        2.835   0.330   0.664  0.00  0.00    -0.190 C 
ATOM     21  C   LIG    1        2.456   1.472  -0.013  0.00  0.00    +0.230 C 
ENDBRANCH   1  21
BRANCH   3  22
ATOM     22  C   LIG    1       -2.276   0.794  -1.325  0.00  0.00    +0.370 C 
BRANCH  22  23
ATOM     23  C   LIG    1       -2.438   1.048  -2.801  0.00  0.00    -0.100 A 
ATOM     24  C   LIG    1       -3.136   2.159  -3.238  0.00  0.00    +0.060 A 
ATOM     25  C   LIG    1       -3.281   2.396  -4.592  0.00  0.00    +0.050 A 
ATOM     26  C   LIG    1       -2.738   1.516  -5.511  0.00  0.00    -0.020 A 
ATOM     27  C   LIG    1       -2.044   0.400  -5.073  0.00  0.00    -0.030 A 
ATOM     28 CL   LIG    1       -1.361  -0.705  -6.224  0.00  0.00    -0.040 Cl
ATOM     29 CL   LIG    1       -2.926   1.809  -7.211  0.00  0.00    -0.040 Cl
ATOM     30  C   LIG    1       -1.895   0.168  -3.717  0.00  0.00    +0.060 A 
ENDBRANCH  22  23
ENDBRANCH   3  22
TORSDOF 3
