REMARK  Name = ZINCvU0000000FFF.0
REMARK                            x       y       z     vdW  Elec       q    Type
REMARK                         _______ _______ _______ _____ _____    ______ ____
ROOT
ATOM      1  C   LIG    1        4.033   1.492   2.168  0.00  0.00    -0.690 A 
ATOM      2  C   LIG    1        3.490   2.305   3.147  0.00  0.00    +0.190 A 
ATOM      3  C   LIG    1        3.676   2.006   4.485  0.00  0.00    +0.030 A 
ATOM      4  C   LIG    1        4.415   0.898   4.851  0.00  0.00    +0.070 A 
ATOM      5  C   LIG    1        4.971   0.077   3.867  0.00  0.00    -0.150 A 
ATOM      6 CL   LIG    1        4.653   0.528   6.531  0.00  0.00    -0.000 Cl
ATOM      7  C   LIG    1        4.774   0.383   2.519  0.00  0.00    +0.170 A 
ENDROOT
BRANCH   5   8
ATOM      8  C   LIG    1        5.762  -1.110   4.250  0.00  0.00    +0.550 C 
ATOM      9  N   LIG    1        6.296  -1.900   3.298  0.00  0.00    -0.630 N 
ATOM     10  H   LIG    1        6.161  -1.690   2.361  0.00  0.00    +0.420 HD
ATOM     11  O   LIG    1        5.932  -1.374   5.425  0.00  0.00    -0.440 OA
BRANCH   9  12
ATOM     12  C   LIG    1        7.040  -3.016   3.659  0.00  0.00    +0.270 A 
ATOM     13  N   LIG    1        7.285  -3.382   4.874  0.00  0.00    -0.470 NA
ATOM     14  C   LIG    1        8.011  -4.479   5.054  0.00  0.00    +0.100 A 
ATOM     15  C   LIG    1        8.400  -5.051   3.901  0.00  0.00    -0.240 A 
ATOM     16  C   LIG    1        9.239  -6.302   3.790  0.00  0.00    +0.120 C 
ATOM     17  C   LIG    1        9.897  -6.572   5.148  0.00  0.00    +0.030 C 
ATOM     18  C   LIG    1        8.829  -6.496   6.243  0.00  0.00    +0.030 C 
ATOM     19  C   LIG    1        8.380  -5.044   6.417  0.00  0.00    +0.130 C 
ATOM     20  S   LIG    1        7.773  -4.101   2.561  0.00  0.00    +0.120 S 
ENDBRANCH   9  12
ENDBRANCH   5   8
BRANCH   1  21
ATOM     21  S   LIG    1        3.784   1.880   0.467  0.00  0.00    +2.680 S 
ATOM     22  O   LIG    1        3.507   3.273   0.409  0.00  0.00    -0.930 OA
ATOM     23  O   LIG    1        4.853   1.270  -0.244  0.00  0.00    -0.940 OA
BRANCH  21  24
ATOM     24  N   LIG    1        2.401   1.108  -0.015  0.00  0.00    -0.940 N 
BRANCH  24  25
ATOM     25  C   LIG    1        1.182   1.791  -0.011  0.00  0.00    +0.130 A 
ATOM     26  C   LIG    1        1.021   2.931  -0.788  0.00  0.00    +0.030 A 
ATOM     27  C   LIG    1       -0.183   3.607  -0.778  0.00  0.00    +0.020 A 
ATOM     28  C   LIG    1       -1.232   3.143  -0.004  0.00  0.00    +0.020 A 
ATOM     29  C   LIG    1       -1.074   2.009   0.771  0.00  0.00    +0.020 A 
ATOM     30  C   LIG    1        0.129   1.332   0.770  0.00  0.00    +0.010 A 
ENDBRANCH  24  25
BRANCH  24  32
ATOM     31  C   LIG    1        2.583  -0.352  -1.968  0.00  0.00    +0.020 C 
ATOM     32  C   LIG    1        2.454  -0.291  -0.444  0.00  0.00    +0.290 C 
ENDBRANCH  24  32
ENDBRANCH  21  24
ENDBRANCH   1  21
TORSDOF 6
