REMARK  Name = ZINCpk000000o5SE.0
REMARK                            x       y       z     vdW  Elec       q    Type
REMARK                         _______ _______ _______ _____ _____    ______ ____
ROOT
ATOM      1  C   LIG    1        6.347   0.362   4.413  0.00  0.00    +0.030 C 
ATOM      2  C   LIG    1        6.058   0.071   2.939  0.00  0.00    -0.020 C 
ATOM      3  C   LIG    1        4.754  -0.721   2.822  0.00  0.00    +0.040 C 
ATOM      4  C   LIG    1        4.472  -1.022   1.348  0.00  0.00    +0.060 C 
ATOM      5  C   LIG    1        4.363   0.286   0.572  0.00  0.00    +0.140 C 
ATOM      6  N   LIG    1        4.061   0.021  -0.841  0.00  0.00    -0.710 N 
ATOM      7  H   LIG    1        4.609  -0.476  -1.469  0.00  0.00    +0.440 HD
ATOM      8  C   LIG    1        2.873   0.603  -1.092  0.00  0.00    +0.710 C 
ATOM      9  N   LIG    1        2.366   1.214  -0.014  0.00  0.00    -0.380 N 
ATOM     10  O   LIG    1        2.323   0.577  -2.175  0.00  0.00    -0.520 OA
ATOM     11  C   LIG    1        5.647   1.098   0.699  0.00  0.00    +0.060 C 
ATOM     12  C   LIG    1        3.182   1.095   1.054  0.00  0.00    +0.540 C 
ATOM     13  O   LIG    1        3.003   1.541   2.167  0.00  0.00    -0.440 OA
ATOM     14  C   LIG    1        5.925   1.390   2.176  0.00  0.00    +0.040 C 
ENDROOT
BRANCH   9  15
ATOM     15  N   LIG    1        1.143   1.898   0.001  0.00  0.00    -0.510 N 
ATOM     16  H   LIG    1        1.130   2.868   0.007  0.00  0.00    +0.430 HD
ATOM     17  C   LIG    1       -0.014   1.209   0.009  0.00  0.00    +0.520 C 
ATOM     18  O   LIG    1        0.002  -0.004   0.002  0.00  0.00    -0.490 OA
BRANCH  17  19
ATOM     19  C   LIG    1       -1.330   1.944   0.019  0.00  0.00    +0.250 C 
BRANCH  19  20
ATOM     20  N   LIG    1       -2.433   0.975   0.019  0.00  0.00    -0.670 NA
ATOM     21  H   LIG    1       -2.354   0.337   0.796  0.00  0.00    +0.360 HD
BRANCH  20  22
ATOM     22  C   LIG    1       -3.734   1.657   0.029  0.00  0.00    +0.280 C 
ATOM     23  C   LIG    1       -4.120   1.998   1.470  0.00  0.00    +0.020 C 
BRANCH  22  24
ATOM     24  C   LIG    1       -4.780   0.754  -0.572  0.00  0.00    +0.000 A 
ATOM     25  C   LIG    1       -5.771   1.137  -1.396  0.00  0.00    -0.060 A 
ATOM     26  C   LIG    1       -6.512  -0.024  -1.714  0.00  0.00    -0.060 A 
ATOM     27  C   LIG    1       -5.929  -1.048  -1.065  0.00  0.00    +0.160 A 
ATOM     28  O   LIG    1       -4.877  -0.572  -0.379  0.00  0.00    -0.160 OA
ENDBRANCH  22  24
ENDBRANCH  20  22
ENDBRANCH  19  20
ENDBRANCH  17  19
ENDBRANCH   9  15
TORSDOF 5
