REMARK  Name = ZINCrH000004k5WX.0
REMARK                            x       y       z     vdW  Elec       q    Type
REMARK                         _______ _______ _______ _____ _____    ______ ____
ROOT
ATOM      1  C   LIG    1        2.045   5.832  -2.694  0.00  0.00    +0.220 C 
ATOM      2  N   LIG    1        2.835   5.073  -1.715  0.00  0.00    -0.490 N 
ATOM      3  C   LIG    1        4.154   5.675  -1.528  0.00  0.00    +0.200 C 
ATOM      4  C   LIG    1        5.206   4.622  -1.205  0.00  0.00    +0.030 C 
ATOM      5  C   LIG    1        5.028   4.005   0.165  0.00  0.00    +0.290 C 
ATOM      6  N   LIG    1        3.740   3.292   0.231  0.00  0.00    -0.560 N 
ATOM      7  C   LIG    1        2.587   4.053   0.463  0.00  0.00    +0.150 A 
ATOM      8  C   LIG    1        1.888   3.909   1.657  0.00  0.00    -0.010 A 
ATOM      9  C   LIG    1        0.768   4.689   1.894  0.00  0.00    +0.100 A 
ATOM     10  C   LIG    1        0.348   5.612   0.951  0.00  0.00    +0.010 A 
ATOM     11  C   LIG    1        1.036   5.750  -0.242  0.00  0.00    +0.030 A 
ATOM     12  F   LIG    1        0.083   4.549   3.050  0.00  0.00    -0.130 F 
ATOM     13  C   LIG    1        3.673   1.956   0.069  0.00  0.00    +0.590 C 
ATOM     14  O   LIG    1        4.693   1.308  -0.061  0.00  0.00    -0.500 OA
ATOM     15  C   LIG    1        2.148   4.962  -0.487  0.00  0.00    +0.090 A 
ENDROOT
BRANCH  13  16
ATOM     16  C   LIG    1        2.361   1.280   0.049  0.00  0.00    -0.230 A 
ATOM     17  C   LIG    1        1.564   1.221   1.196  0.00  0.00    +0.350 A 
ATOM     18  N   LIG    1        0.396   0.605   1.134  0.00  0.00    -0.520 NA
ATOM     19  C   LIG    1       -0.025   0.050   0.014  0.00  0.00    +0.530 A 
ATOM     20  N   LIG    1        0.685   0.076  -1.095  0.00  0.00    -0.510 NA
ATOM     21  C   LIG    1        1.874   0.674  -1.128  0.00  0.00    +0.270 A 
BRANCH  21  22
ATOM     22  C   LIG    1        2.670   0.702  -2.377  0.00  0.00    -0.070 A 
ATOM     23  C   LIG    1        3.308   1.876  -2.774  0.00  0.00    +0.060 A 
ATOM     24  C   LIG    1        4.053   1.894  -3.936  0.00  0.00    +0.010 A 
ATOM     25  C   LIG    1        4.158   0.754  -4.711  0.00  0.00    +0.030 A 
ATOM     26  C   LIG    1        3.522  -0.413  -4.325  0.00  0.00    +0.000 A 
ATOM     27  C   LIG    1        2.779  -0.445  -3.163  0.00  0.00    +0.060 A 
ENDBRANCH  21  22
ENDBRANCH  13  16
TORSDOF 2
