REMARK  Name = ZINCpk00000e9R7C.0
REMARK                            x       y       z     vdW  Elec       q    Type
REMARK                         _______ _______ _______ _____ _____    ______ ____
ROOT
ATOM      1  S   LIG    1       -0.538   0.457   3.745  0.00  0.00    +2.690 S 
ATOM      2  O   LIG    1        0.543  -0.195   4.397  0.00  0.00    -0.950 OA
ATOM      3  O   LIG    1       -1.690  -0.230   3.274  0.00  0.00    -0.950 OA
ENDROOT
BRANCH   1  11
ATOM      4  C   LIG    1        0.041   2.917   8.940  0.00  0.00    +0.220 C 
ATOM      5  N   LIG    1       -0.059   3.803   7.772  0.00  0.00    -0.500 N 
ATOM      6  C   LIG    1       -0.805   5.036   8.105  0.00  0.00    +0.230 C 
ATOM      7  C   LIG    1       -2.247   4.687   7.670  0.00  0.00    +0.070 C 
ATOM      8  C   LIG    1       -2.031   3.633   6.602  0.00  0.00    -0.080 A 
ATOM      9  C   LIG    1       -2.870   3.131   5.630  0.00  0.00    +0.020 A 
ATOM     10  C   LIG    1       -2.415   2.159   4.756  0.00  0.00    +0.110 A 
ATOM     11  C   LIG    1       -1.118   1.693   4.859  0.00  0.00    -0.660 A 
ATOM     12  C   LIG    1       -0.277   2.187   5.835  0.00  0.00    +0.130 A 
ATOM     13  C   LIG    1       -0.727   3.168   6.717  0.00  0.00    +0.070 A 
ENDBRANCH   1  11
BRANCH   1  14
ATOM     14  N   LIG    1        0.107   1.240   2.437  0.00  0.00    -1.000 NA
ATOM     15  C   LIG    1        1.530   1.616   2.405  0.00  0.00    +0.270 C 
ATOM     16  C   LIG    1        2.132   1.119   1.086  0.00  0.00    +0.220 C 
ATOM     17  O   LIG    1        1.328   1.582  -0.002  0.00  0.00    -0.360 OA
ATOM     18  C   LIG    1       -0.013   1.086   0.008  0.00  0.00    +0.160 C 
ATOM     19  C   LIG    1       -0.725   1.581   1.272  0.00  0.00    +0.280 C 
BRANCH  18  20
ATOM     20  C   LIG    1       -0.755   1.594  -1.230  0.00  0.00    +0.200 C 
BRANCH  20  21
ATOM     21  O   LIG    1       -0.158   1.039  -2.404  0.00  0.00    -0.380 OA
BRANCH  21  22
ATOM     22  C   LIG    1       -0.780   1.452  -3.623  0.00  0.00    +0.190 C 
BRANCH  22  23
ATOM     23  C   LIG    1       -0.063   0.801  -4.807  0.00  0.00    -0.040 C 
ATOM     24  C   LIG    1        0.647   1.725  -5.798  0.00  0.00    +0.020 C 
ATOM     25  C   LIG    1       -0.653   1.026  -6.200  0.00  0.00    +0.030 C 
ENDBRANCH  22  23
ENDBRANCH  21  22
ENDBRANCH  20  21
ENDBRANCH  18  20
ENDBRANCH   1  14
TORSDOF 6
