REMARK  Name = ZINCrH000004jHnU.1
REMARK                            x       y       z     vdW  Elec       q    Type
REMARK                         _______ _______ _______ _____ _____    ______ ____
ROOT
ATOM      1  N   LIG    1       -1.201   1.036   1.253  0.00  0.00    -0.730 N 
ATOM      2  H   LIG    1       -1.969   1.622   1.164  0.00  0.00    +0.410 HD
ATOM      3  C   LIG    1       -0.950   0.427   2.429  0.00  0.00    +0.700 C 
ATOM      4  N   LIG    1       -1.765   0.634   3.482  0.00  0.00    -0.680 N 
ATOM      5  H   LIG    1       -2.573   1.160   3.374  0.00  0.00    +0.410 HD
ATOM      6  O   LIG    1        0.012  -0.308   2.540  0.00  0.00    -0.570 OA
ENDROOT
BRANCH   4   7
ATOM      7  C   LIG    1       -1.445   0.090   4.733  0.00  0.00    +0.130 A 
ATOM      8  C   LIG    1       -2.457  -0.318   5.592  0.00  0.00    +0.020 A 
ATOM      9  C   LIG    1       -2.141  -0.859   6.823  0.00  0.00    -0.060 A 
ATOM     10  C   LIG    1       -0.813  -0.986   7.205  0.00  0.00    +0.120 A 
ATOM     11  C   LIG    1        0.198  -0.573   6.350  0.00  0.00    +0.000 A 
ATOM     12  C   LIG    1       -0.117  -0.037   5.117  0.00  0.00    +0.060 A 
BRANCH  10  13
ATOM     13  O   LIG    1       -0.503  -1.514   8.419  0.00  0.00    -0.300 OA
BRANCH  13  14
ATOM     14  C   LIG    1       -1.594  -1.918   9.249  0.00  0.00    +0.190 C 
BRANCH  14  15
ATOM     15  C   LIG    1       -1.053  -2.483  10.564  0.00  0.00    +0.170 C 
ATOM     16  C   LIG    1       -2.217  -3.033  11.416  0.00  0.00    +0.020 C 
ATOM     17  C   LIG    1       -1.805  -2.601  12.851  0.00  0.00    +0.010 C 
ATOM     18  C   LIG    1       -1.103  -1.250  12.563  0.00  0.00    +0.200 C 
ATOM     19  O   LIG    1       -0.417  -1.442  11.315  0.00  0.00    -0.370 OA
ENDBRANCH  14  15
ENDBRANCH  13  14
ENDBRANCH  10  13
ENDBRANCH   4   7
BRANCH   1  20
ATOM     20  C   LIG    1       -0.316   0.811   0.108  0.00  0.00    +0.290 C 
BRANCH  20  21
ATOM     21  C   LIG    1       -0.749   1.704  -1.056  0.00  0.00    +0.250 C 
BRANCH  21  22
ATOM     22  C   LIG    1        0.061   1.364  -2.280  0.00  0.00    -0.220 A 
ATOM     23  C   LIG    1        1.046   2.110  -2.782  0.00  0.00    +0.020 A 
ATOM     24  C   LIG    1        1.649   1.593  -3.916  0.00  0.00    +0.000 A 
ATOM     25  C   LIG    1        1.154   0.427  -4.335  0.00  0.00    -0.060 A 
ATOM     26  S   LIG    1       -0.143  -0.082  -3.260  0.00  0.00    +0.120 S 
ENDBRANCH  21  22
BRANCH  21  28
ATOM     27  C   LIG    1       -2.576   2.159  -2.579  0.00  0.00    +0.200 C 
ATOM     28  N   LIG    1       -2.175   1.487  -1.336  0.00  0.00    -0.530 NA
ATOM     29  C   LIG    1       -2.488   0.053  -1.389  0.00  0.00    +0.200 C 
ENDBRANCH  21  28
ENDBRANCH  20  21
ENDBRANCH   1  20
TORSDOF 8
