REMARK  Name = ZINCpk000005nzyU.0
REMARK                            x       y       z     vdW  Elec       q    Type
REMARK                         _______ _______ _______ _____ _____    ______ ____
ROOT
ATOM      1  C   LIG    1        4.821   2.147  -0.074  0.00  0.00    +0.250 C 
ATOM      2  C   LIG    1        5.316   1.678   1.296  0.00  0.00    -0.010 C 
ATOM      3  C   LIG    1        5.203   2.826   2.301  0.00  0.00    +0.020 C 
ATOM      4  C   LIG    1        6.084   3.992   1.841  0.00  0.00    +0.270 C 
ATOM      5  N   LIG    1        5.710   4.354   0.467  0.00  0.00    -0.610 N 
ATOM      6  C   LIG    1        5.385   5.624   0.156  0.00  0.00    +0.540 C 
ATOM      7  O   LIG    1        5.178   5.932  -0.998  0.00  0.00    -0.510 OA
ATOM      8  C   LIG    1        4.464   0.499   1.770  0.00  0.00    +0.030 C 
ATOM      9  C   LIG    1        5.698   3.304  -0.562  0.00  0.00    +0.240 C 
ATOM     10  C   LIG    1        5.125   3.868  -1.864  0.00  0.00    +0.050 C 
ENDROOT
BRANCH   6  11
ATOM     11  C   LIG    1        5.277   6.662   1.244  0.00  0.00    -0.050 C 
ATOM     12  C   LIG    1        4.903   8.086   0.827  0.00  0.00    +0.140 C 
ATOM     13  C   LIG    1        3.885   7.210   1.562  0.00  0.00    +0.220 C 
ATOM     14  F   LIG    1        3.605   7.527   2.896  0.00  0.00    -0.150 F 
ATOM     15  F   LIG    1        2.809   6.709   0.822  0.00  0.00    -0.150 F 
ENDBRANCH   6  11
BRANCH   1  17
ATOM     16  C   LIG    1        2.424   1.707  -0.050  0.00  0.00    +0.590 C 
ATOM     17  N   LIG    1        3.432   2.599   0.036  0.00  0.00    -0.710 N 
ATOM     18  H   LIG    1        3.237   3.539   0.172  0.00  0.00    +0.400 HD
ATOM     19  O   LIG    1        2.668   0.528  -0.219  0.00  0.00    -0.500 OA
BRANCH  16  24
ATOM     20  C   LIG    1       -1.211   2.201   0.139  0.00  0.00    +0.260 A 
ATOM     21  N   LIG    1       -0.793   3.435   0.298  0.00  0.00    -0.310 NA
ATOM     22  N   LIG    1        0.606   3.447   0.251  0.00  0.00    -0.450 N 
ATOM     23  H   LIG    1        1.174   4.228   0.338  0.00  0.00    +0.440 HD
ATOM     24  C   LIG    1        1.029   2.161   0.061  0.00  0.00    +0.050 A 
ATOM     25  C   LIG    1       -0.099   1.369  -0.007  0.00  0.00    -0.010 A 
BRANCH  20  27
ATOM     26  C   LIG    1       -3.505   2.812   0.290  0.00  0.00    +0.250 C 
ATOM     27  O   LIG    1       -2.510   1.799   0.123  0.00  0.00    -0.290 OA
ENDBRANCH  20  27
ENDBRANCH  16  24
ENDBRANCH   1  17
TORSDOF 4
