REMARK  Name = ZINCtj00001n1jxP.0
REMARK                            x       y       z     vdW  Elec       q    Type
REMARK                         _______ _______ _______ _____ _____    ______ ____
ROOT
ATOM      1  C   LIG    1        2.183  -6.345   1.607  0.00  0.00    +0.180 C 
ATOM      2  C   LIG    1        1.313  -5.114   1.629  0.00  0.00    +0.140 A 
ATOM      3  C   LIG    1        1.676  -3.865   2.090  0.00  0.00    -0.230 A 
ATOM      4  C   LIG    1        0.558  -3.018   1.922  0.00  0.00    -0.440 A 
ATOM      5  N   LIG    1       -0.408  -3.722   1.401  0.00  0.00    -0.160 NA
ATOM      6  N   LIG    1        0.042  -5.033   1.204  0.00  0.00    -0.430 N 
ATOM      7  H   LIG    1       -0.477  -5.760   0.827  0.00  0.00    +0.450 HD
ENDROOT
BRANCH   3   8
ATOM      8  C   LIG    1        2.986  -3.485   2.650  0.00  0.00    +0.600 C 
ATOM      9  N   LIG    1        3.959  -3.027   1.839  0.00  0.00    -0.750 N 
ATOM     10  H   LIG    1        3.798  -2.948   0.885  0.00  0.00    +0.390 HD
ATOM     11  O   LIG    1        3.187  -3.585   3.845  0.00  0.00    -0.470 OA
BRANCH   9  12
ATOM     12  C   LIG    1        5.261  -2.650   2.396  0.00  0.00    +0.310 C 
BRANCH  12  13
ATOM     13  C   LIG    1        6.177  -2.168   1.270  0.00  0.00    +0.170 C 
ATOM     14  C   LIG    1        7.573  -1.891   1.832  0.00  0.00    +0.070 C 
ATOM     15  C   LIG    1        8.486  -1.408   0.702  0.00  0.00    +0.040 C 
ATOM     16  C   LIG    1        8.507  -2.461  -0.410  0.00  0.00    +0.050 C 
ATOM     17  C   LIG    1        7.076  -2.717  -0.889  0.00  0.00    +0.260 C 
ATOM     18  N   LIG    1        6.261  -3.201   0.231  0.00  0.00    -0.510 N 
ATOM     19  H   LIG    1        5.333  -3.420  -0.100  0.00  0.00    +0.420 HD
ATOM     20  H   LIG    1        6.682  -4.032   0.618  0.00  0.00    +0.430 HD
ENDBRANCH  12  13
ENDBRANCH   9  12
ENDBRANCH   3   8
BRANCH   4  21
ATOM     21  S   LIG    1        0.479  -1.310   2.350  0.00  0.00    +2.710 S 
ATOM     22  O   LIG    1       -0.896  -1.007   2.543  0.00  0.00    -0.920 OA
ATOM     23  O   LIG    1        1.468  -1.101   3.349  0.00  0.00    -0.920 OA
BRANCH  21  24
ATOM     24  N   LIG    1        0.966  -0.449   1.022  0.00  0.00    -0.990 NA
ATOM     25  C   LIG    1        0.002  -0.004   0.002  0.00  0.00    +0.300 C 
ATOM     26  C   LIG    1       -0.019   1.524   0.010  0.00  0.00    +0.090 C 
ATOM     27  C   LIG    1        1.381   2.079   0.000  0.00  0.00    -0.060 A 
ATOM     28  C   LIG    1        1.548   3.397  -0.407  0.00  0.00    +0.020 A 
ATOM     29  C   LIG    1        2.803   3.970  -0.431  0.00  0.00    +0.020 A 
ATOM     30  C   LIG    1        3.905   3.230  -0.046  0.00  0.00    +0.010 A 
ATOM     31  C   LIG    1        3.742   1.920   0.355  0.00  0.00    +0.000 A 
ATOM     32  C   LIG    1        2.481   1.340   0.375  0.00  0.00    -0.100 A 
ATOM     33  C   LIG    1        2.375  -0.099   0.814  0.00  0.00    +0.330 C 
ENDBRANCH  21  24
ENDBRANCH   4  21
TORSDOF 5
