REMARK  Name = ZINCvU0000000FAk.0
REMARK                            x       y       z     vdW  Elec       q    Type
REMARK                         _______ _______ _______ _____ _____    ______ ____
ROOT
ATOM      1  C   LIG    1        3.564   2.306  -0.021  0.00  0.00    +0.090 C 
ATOM      2  C   LIG    1        3.943   2.678   1.414  0.00  0.00    +0.100 C 
ENDROOT
BRANCH   1   3
ATOM      3  C   LIG    1        2.290   1.502  -0.013  0.00  0.00    +0.460 A 
ATOM      4  N   LIG    1        1.150   2.134   0.003  0.00  0.00    -0.560 NA
ATOM      5  C   LIG    1       -0.018   1.471   0.010  0.00  0.00    +0.540 A 
ATOM      6  C   LIG    1        0.002  -0.004   0.002  0.00  0.00    -0.210 A 
ATOM      7  C   LIG    1        1.239  -0.622  -0.013  0.00  0.00    +0.060 A 
ATOM      8  S   LIG    1        1.042  -2.368  -0.020  0.00  0.00    +0.210 S 
ATOM      9  C   LIG    1       -0.707  -2.241  -0.002  0.00  0.00    -0.010 A 
ATOM     10  C   LIG    1       -1.095  -0.963   0.008  0.00  0.00    +0.040 A 
ATOM     11  O   LIG    1       -1.077   2.078   0.018  0.00  0.00    -0.460 OA
ATOM     12  N   LIG    1        2.373   0.162  -0.020  0.00  0.00    -0.580 N 
ATOM     13  H   LIG    1        3.246  -0.261  -0.031  0.00  0.00    +0.430 HD
BRANCH  10  14
ATOM     14  C   LIG    1       -2.515  -0.557   0.025  0.00  0.00    +0.040 A 
ATOM     15  C   LIG    1       -3.485  -1.009  -0.815  0.00  0.00    -0.030 A 
ATOM     16  C   LIG    1       -4.680  -0.362  -0.440  0.00  0.00    -0.070 A 
ATOM     17  C   LIG    1       -4.383   0.451   0.592  0.00  0.00    +0.180 A 
ATOM     18  O   LIG    1       -3.073   0.331   0.870  0.00  0.00    -0.150 OA
ENDBRANCH  10  14
ENDBRANCH   1   3
BRANCH   1  19
ATOM     19  S   LIG    1        3.319   3.815  -0.991  0.00  0.00    +0.070 S 
BRANCH  19  24
ATOM     20  C   LIG    1        8.458   4.414  -0.034  0.00  0.00    +0.150 C 
ATOM     21  C   LIG    1        7.072   4.693  -0.557  0.00  0.00    +0.000 A 
ATOM     22  C   LIG    1        6.707   5.758  -1.290  0.00  0.00    +0.010 A 
ATOM     23  N   LIG    1        5.364   5.620  -1.558  0.00  0.00    -0.430 N 
ATOM     24  C   LIG    1        4.956   4.466  -0.962  0.00  0.00    +0.170 A 
ATOM     25  C   LIG    1        7.600   6.886  -1.739  0.00  0.00    +0.150 C 
ATOM     26  N   LIG    1        5.990   3.918  -0.369  0.00  0.00    -0.480 NA
BRANCH  23  27
ATOM     27  C   LIG    1        4.530   6.543  -2.333  0.00  0.00    +0.290 C 
BRANCH  27  28
ATOM     28  C   LIG    1        3.930   7.595  -1.399  0.00  0.00    +0.160 C 
ATOM     29  C   LIG    1        2.959   8.502  -2.186  0.00  0.00    +0.020 C 
ATOM     30  C   LIG    1        3.250   9.902  -1.579  0.00  0.00    +0.020 C 
ATOM     31  C   LIG    1        4.768   9.787  -1.290  0.00  0.00    +0.200 C 
ATOM     32  O   LIG    1        4.969   8.428  -0.872  0.00  0.00    -0.370 OA
ENDBRANCH  27  28
ENDBRANCH  23  27
ENDBRANCH  19  24
ENDBRANCH   1  19
TORSDOF 6
