REMARK  Name = ZINCqH0000001S96.0
REMARK                            x       y       z     vdW  Elec       q    Type
REMARK                         _______ _______ _______ _____ _____    ______ ____
ROOT
ATOM      1  C   LIG    1       -5.614   3.796   1.301  0.00  0.00    +0.180 C 
ATOM      2  C   LIG    1       -4.133   4.167   1.194  0.00  0.00    +0.070 C 
ENDROOT
BRANCH   1   3
ATOM      3  N   LIG    1       -6.429   5.018   1.262  0.00  0.00    -0.500 NA
ATOM      4  C   LIG    1       -6.035   5.877   0.138  0.00  0.00    +0.180 C 
ATOM      5  C   LIG    1       -6.800   7.201   0.213  0.00  0.00    +0.030 C 
ATOM      6  C   LIG    1       -8.304   6.919   0.162  0.00  0.00    -0.010 C 
ATOM      7  C   LIG    1       -8.680   5.983   1.315  0.00  0.00    +0.030 C 
ATOM      8  C   LIG    1       -7.860   4.695   1.208  0.00  0.00    +0.160 C 
BRANCH   6   9
ATOM      9  C   LIG    1       -9.076   8.233   0.298  0.00  0.00    +0.060 C 
BRANCH   9  10
ATOM     10  C   LIG    1       -8.800   9.104  -0.900  0.00  0.00    -0.080 A 
ATOM     11  C   LIG    1       -7.744   9.996  -0.878  0.00  0.00    +0.000 A 
ATOM     12  C   LIG    1       -7.488  10.791  -1.979  0.00  0.00    +0.000 A 
ATOM     13  C   LIG    1       -8.294  10.702  -3.099  0.00  0.00    -0.010 A 
ATOM     14  C   LIG    1       -9.353   9.814  -3.119  0.00  0.00    +0.000 A 
ATOM     15  C   LIG    1       -9.606   9.014  -2.020  0.00  0.00    +0.000 A 
ENDBRANCH   9  10
ENDBRANCH   6   9
ENDBRANCH   1   3
BRANCH   1  18
ATOM     16  N   LIG    1       -5.847   1.567   0.254  0.00  0.00    -0.650 N 
ATOM     17  H   LIG    1       -5.498   1.181   1.073  0.00  0.00    +0.410 HD
ATOM     18  C   LIG    1       -5.993   2.903   0.148  0.00  0.00    +0.490 C 
ATOM     19  O   LIG    1       -6.430   3.386  -0.875  0.00  0.00    -0.500 OA
BRANCH  16  24
ATOM     20  N   LIG    1       -6.104  -0.609  -0.843  0.00  0.00    -0.380 N 
ATOM     21  N   LIG    1       -6.563  -1.044  -2.092  0.00  0.00    -0.280 NA
ATOM     22  C   LIG    1       -6.916   0.004  -2.791  0.00  0.00    +0.250 A 
ATOM     23  C   LIG    1       -6.695   1.145  -2.014  0.00  0.00    -0.110 A 
ATOM     24  C   LIG    1       -6.198   0.740  -0.812  0.00  0.00    +0.300 A 
BRANCH  20  26
ATOM     25  C   LIG    1       -6.720  -2.430   0.668  0.00  0.00    +0.050 C 
ATOM     26  C   LIG    1       -5.614  -1.463   0.242  0.00  0.00    +0.250 C 
ATOM     27  C   LIG    1       -4.400  -2.258  -0.244  0.00  0.00    +0.050 C 
ENDBRANCH  20  26
ENDBRANCH  16  24
ENDBRANCH   1  18
TORSDOF 6
