REMARK  Name = ZINCpe00000gM38k.0
REMARK                            x       y       z     vdW  Elec       q    Type
REMARK                         _______ _______ _______ _____ _____    ______ ____
ROOT
ATOM      1  C   LIG    1       -5.197   4.994   0.078  0.00  0.00    -0.080 A 
ATOM      2  C   LIG    1       -5.871   4.814  -1.117  0.00  0.00    +0.020 A 
ATOM      3  C   LIG    1       -7.196   4.427  -1.113  0.00  0.00    +0.040 A 
ATOM      4  C   LIG    1       -7.857   4.227   0.100  0.00  0.00    -0.130 A 
ATOM      5  C   LIG    1       -7.172   4.415   1.301  0.00  0.00    +0.080 A 
ATOM      6  C   LIG    1       -5.847   4.797   1.283  0.00  0.00    +0.030 A 
ENDROOT
BRANCH   4   7
ATOM      7  C   LIG    1       -9.278   3.818   0.111  0.00  0.00    +0.560 C 
ATOM      8  N   LIG    1       -9.937   3.638  -1.051  0.00  0.00    -0.720 N 
ATOM      9  H   LIG    1       -9.479   3.776  -1.895  0.00  0.00    +0.410 HD
ATOM     10  O   LIG    1       -9.852   3.646   1.168  0.00  0.00    -0.530 OA
BRANCH   8  11
ATOM     11  C   LIG    1      -11.345   3.233  -1.039  0.00  0.00    +0.370 C 
BRANCH  11  12
ATOM     12  C   LIG    1      -11.841   3.101  -2.456  0.00  0.00    +0.460 C 
ATOM     13  O   LIG    1      -11.095   3.322  -3.381  0.00  0.00    -0.500 OA
BRANCH  12  14
ATOM     14  O   LIG    1      -13.112   2.737  -2.691  0.00  0.00    -0.350 OA
ATOM     15  C   LIG    1      -13.521   2.630  -4.080  0.00  0.00    +0.290 C 
ENDBRANCH  12  14
ENDBRANCH  11  12
ENDBRANCH   8  11
ENDBRANCH   4   7
BRANCH   1  16
ATOM     16  C   LIG    1       -3.749   5.412   0.066  0.00  0.00    +0.330 C 
BRANCH  16  18
ATOM     17  C   LIG    1       -1.555   4.351   0.040  0.00  0.00    +0.600 C 
ATOM     18  N   LIG    1       -2.897   4.220   0.052  0.00  0.00    -0.730 N 
ATOM     19  H   LIG    1       -3.298   3.337   0.051  0.00  0.00    +0.400 HD
ATOM     20  O   LIG    1       -1.052   5.459   0.041  0.00  0.00    -0.510 OA
BRANCH  17  22
ATOM     21  C   LIG    1        0.665   3.127   0.013  0.00  0.00    +0.110 A 
ATOM     22  C   LIG    1       -0.702   3.157   0.026  0.00  0.00    -0.100 A 
ATOM     23  N   LIG    1       -1.119   1.840   0.017  0.00  0.00    -0.560 N 
ATOM     24  H   LIG    1       -2.037   1.526   0.019  0.00  0.00    +0.420 HD
ATOM     25  C   LIG    1       -0.013   1.076   0.008  0.00  0.00    +0.450 A 
ATOM     26  N   LIG    1        1.043   1.849   0.002  0.00  0.00    -0.500 NA
BRANCH  21  28
ATOM     27  C   LIG    1        1.876   4.737  -1.433  0.00  0.00    +0.020 C 
ATOM     28  C   LIG    1        1.579   4.324   0.010  0.00  0.00    +0.120 C 
ENDBRANCH  21  28
ENDBRANCH  17  22
ENDBRANCH  16  18
ENDBRANCH   1  16
TORSDOF 8
