REMARK  Name = ZINCvU0000000Gyf.0
REMARK                            x       y       z     vdW  Elec       q    Type
REMARK                         _______ _______ _______ _____ _____    ______ ____
ROOT
ATOM      1  O   LIG    1       -1.210   2.779   0.078  0.00  0.00    -0.490 OA
ATOM      2  C   LIG    1       -1.190   1.565   0.151  0.00  0.00    +0.560 C 
ATOM      3  N   LIG    1       -0.011   0.913   0.194  0.00  0.00    -0.660 N 
ATOM      4  H   LIG    1        0.006  -0.057   0.197  0.00  0.00    +0.420 HD
ENDROOT
BRANCH   2   5
ATOM      5  C   LIG    1       -2.454   0.807   0.192  0.00  0.00    -0.160 A 
ATOM      6  C   LIG    1       -2.435  -0.587   0.275  0.00  0.00    +0.060 A 
ATOM      7  C   LIG    1       -3.620  -1.290   0.313  0.00  0.00    +0.020 A 
ATOM      8  C   LIG    1       -4.832  -0.620   0.269  0.00  0.00    +0.070 A 
ATOM      9  C   LIG    1       -4.865   0.758   0.187  0.00  0.00    +0.010 A 
ATOM     10  C   LIG    1       -3.683   1.482   0.153  0.00  0.00    +0.150 A 
BRANCH  10  11
ATOM     11  O   LIG    1       -3.714   2.836   0.078  0.00  0.00    -0.250 OA
BRANCH  11  12
ATOM     12  C   LIG    1       -3.567   3.410  -1.145  0.00  0.00    +0.150 A 
ATOM     13  C   LIG    1       -3.500   2.617  -2.282  0.00  0.00    -0.080 A 
ATOM     14  C   LIG    1       -3.356   3.204  -3.524  0.00  0.00    +0.040 A 
ATOM     15  C   LIG    1       -3.268   4.579  -3.634  0.00  0.00    -0.030 A 
ATOM     16  C   LIG    1       -3.328   5.372  -2.503  0.00  0.00    +0.050 A 
ATOM     17  C   LIG    1       -3.478   4.790  -1.258  0.00  0.00    -0.010 A 
ENDBRANCH  11  12
ENDBRANCH  10  11
ENDBRANCH   2   5
BRANCH   3  18
ATOM     18  C   LIG    1        1.187   1.634   0.227  0.00  0.00    +0.160 A 
ATOM     19  C   LIG    1        1.301   2.827  -0.473  0.00  0.00    +0.110 A 
ATOM     20  C   LIG    1        2.485   3.538  -0.438  0.00  0.00    -0.170 A 
ATOM     21  C   LIG    1        3.559   3.064   0.293  0.00  0.00    +0.090 A 
ATOM     22  C   LIG    1        3.455   1.877   0.993  0.00  0.00    +0.040 A 
ATOM     23  C   LIG    1        2.269   1.159   0.968  0.00  0.00    +0.150 A 
BRANCH  23  24
ATOM     24  N   LIG    1        2.159  -0.043   1.682  0.00  0.00    -0.330 N 
ATOM     25  C   LIG    1        3.078  -0.578   2.510  0.00  0.00    +0.500 A 
ATOM     26  N   LIG    1        2.596  -1.701   2.978  0.00  0.00    -0.530 NA
ATOM     27  C   LIG    1        1.380  -1.916   2.477  0.00  0.00    +0.460 A 
ATOM     28  N   LIG    1        1.067  -0.926   1.682  0.00  0.00    -0.340 NA
ENDBRANCH  23  24
BRANCH  20  29
ATOM     29  C   LIG    1        2.607   4.833  -1.199  0.00  0.00    +0.510 C 
ATOM     30  F   LIG    1        1.782   4.789  -2.328  0.00  0.00    -0.170 F 
ATOM     31  F   LIG    1        3.935   5.016  -1.598  0.00  0.00    -0.170 F 
ATOM     32  F   LIG    1        2.216   5.895  -0.377  0.00  0.00    -0.170 F 
ENDBRANCH  20  29
ENDBRANCH   3  18
TORSDOF 6
