REMARK  Name = ZINCrg00000AyrAT.0
REMARK                            x       y       z     vdW  Elec       q    Type
REMARK                         _______ _______ _______ _____ _____    ______ ____
ROOT
ATOM      1  C   LIG    1        5.395   1.999  -1.455  0.00  0.00    +0.510 C 
ATOM      2  N   LIG    1        6.700   1.783  -1.714  0.00  0.00    -0.600 N 
ATOM      3  C   LIG    1        7.648   1.739  -0.636  0.00  0.00    +0.280 C 
ATOM      4  C   LIG    1        8.236   3.126  -0.299  0.00  0.00    +0.260 C 
ATOM      5  N   LIG    1        8.477   3.879  -1.561  0.00  0.00    -0.600 N 
ATOM      6  C   LIG    1        8.989   3.245  -2.742  0.00  0.00    +0.320 C 
ATOM      7  C   LIG    1        7.792   2.826  -3.611  0.00  0.00    +0.140 C 
ATOM      8  C   LIG    1        8.207   5.199  -1.594  0.00  0.00    +0.480 C 
ATOM      9  O   LIG    1        8.396   5.831  -2.612  0.00  0.00    -0.520 OA
ATOM     10  C   LIG    1        7.156   1.596  -3.112  0.00  0.00    +0.270 C 
ATOM     11  O   LIG    1        4.595   2.041  -2.365  0.00  0.00    -0.520 OA
ENDROOT
BRANCH   7  12
ATOM     12  O   LIG    1        8.242   2.606  -4.949  0.00  0.00    -0.560 OA
ATOM     13  H   LIG    1        7.538   2.373  -5.569  0.00  0.00    +0.380 HD
ENDBRANCH   7  12
BRANCH   8  14
ATOM     14  C   LIG    1        7.669   5.889  -0.367  0.00  0.00    +0.210 C 
ATOM     15  C   LIG    1        8.723   5.854   0.741  0.00  0.00    +0.040 C 
BRANCH  14  16
ATOM     16  O   LIG    1        7.355   7.247  -0.684  0.00  0.00    -0.540 OA
ATOM     17  H   LIG    1        8.111   7.763  -0.994  0.00  0.00    +0.390 HD
ENDBRANCH  14  16
ENDBRANCH   8  14
BRANCH   1  18
ATOM     18  C   LIG    1        4.931   2.189  -0.034  0.00  0.00    +0.150 C 
BRANCH  18  24
ATOM     19  C   LIG    1       -1.297  -0.767   0.010  0.00  0.00    +0.090 C 
ATOM     20  C   LIG    1        0.002  -0.004   0.002  0.00  0.00    -0.060 A 
ATOM     21  C   LIG    1        1.204  -0.696  -0.013  0.00  0.00    +0.000 A 
ATOM     22  C   LIG    1        2.400  -0.011  -0.020  0.00  0.00    +0.050 A 
ATOM     23  C   LIG    1        2.395   1.383  -0.013  0.00  0.00    -0.110 A 
ATOM     24  C   LIG    1        3.441   2.413  -0.018  0.00  0.00    -0.170 A 
ATOM     25  C   LIG    1        2.804   3.592  -0.007  0.00  0.00    +0.240 A 
ATOM     26  O   LIG    1        1.473   3.400   0.005  0.00  0.00    -0.190 OA
ATOM     27  C   LIG    1        1.177   2.084   0.002  0.00  0.00    +0.060 A 
ATOM     28  C   LIG    1       -0.017   1.374   0.010  0.00  0.00    -0.070 A 
ATOM     29  C   LIG    1       -1.331   2.111   0.020  0.00  0.00    +0.090 C 
ENDBRANCH  18  24
ENDBRANCH   1  18
TORSDOF 5
