REMARK  Name = ZINCrH000004nP5x.0
REMARK                            x       y       z     vdW  Elec       q    Type
REMARK                         _______ _______ _______ _____ _____    ______ ____
ROOT
ATOM      1  N   LIG    1        4.979   5.490  -0.016  0.00  0.00    -0.690 N 
ATOM      2  H   LIG    1        4.202   6.067  -0.081  0.00  0.00    +0.420 HD
ATOM      3  C   LIG    1        4.826   4.151  -0.018  0.00  0.00    +0.520 C 
ATOM      4  O   LIG    1        5.801   3.429  -0.037  0.00  0.00    -0.470 OA
ENDROOT
BRANCH   1  10
ATOM      5  C   LIG    1        6.503   7.320  -0.421  0.00  0.00    -0.690 A 
ATOM      6  C   LIG    1        7.765   7.870  -0.317  0.00  0.00    +0.150 A 
ATOM      7  C   LIG    1        8.788   7.151   0.274  0.00  0.00    -0.010 A 
ATOM      8  C   LIG    1        8.550   5.883   0.769  0.00  0.00    +0.100 A 
ATOM      9  C   LIG    1        7.288   5.329   0.674  0.00  0.00    +0.000 A 
ATOM     10  C   LIG    1        6.258   6.048   0.081  0.00  0.00    +0.240 A 
BRANCH   5  12
ATOM     11  C   LIG    1        4.782   7.274  -2.663  0.00  0.00    -0.250 C 
ATOM     12  S   LIG    1        5.202   8.233  -1.181  0.00  0.00    +2.500 S 
ATOM     13  O   LIG    1        5.805   9.468  -1.541  0.00  0.00    -0.930 OA
ATOM     14  O   LIG    1        4.141   8.183  -0.238  0.00  0.00    -0.940 OA
ENDBRANCH   5  12
ENDBRANCH   1  10
BRANCH   3  15
ATOM     15  C   LIG    1        3.444   3.550   0.003  0.00  0.00    +0.250 C 
BRANCH  15  16
ATOM     16  O   LIG    1        3.544   2.125  -0.004  0.00  0.00    -0.280 OA
BRANCH  16  17
ATOM     17  C   LIG    1        2.380   1.425   0.013  0.00  0.00    +0.140 A 
ATOM     18  C   LIG    1        1.167   2.094   0.037  0.00  0.00    -0.080 A 
ATOM     19  C   LIG    1       -0.017   1.380   0.055  0.00  0.00    +0.050 A 
ATOM     20  C   LIG    1        0.002  -0.003   0.049  0.00  0.00    -0.020 A 
ATOM     21  C   LIG    1        1.203  -0.682   0.026  0.00  0.00    +0.060 A 
ATOM     22  C   LIG    1        2.402   0.027   0.008  0.00  0.00    -0.070 A 
BRANCH  22  23
ATOM     23  C   LIG    1        3.696  -0.698  -0.018  0.00  0.00    -0.040 A 
ATOM     24  C   LIG    1        4.666  -0.364  -0.961  0.00  0.00    +0.040 A 
ATOM     25  C   LIG    1        5.870  -1.039  -0.977  0.00  0.00    +0.000 A 
ATOM     26  C   LIG    1        6.110  -2.052  -0.066  0.00  0.00    +0.000 A 
ATOM     27  C   LIG    1        5.149  -2.391   0.869  0.00  0.00    +0.000 A 
ATOM     28  C   LIG    1        3.943  -1.720   0.897  0.00  0.00    +0.010 A 
ENDBRANCH  22  23
ENDBRANCH  16  17
ENDBRANCH  15  16
ENDBRANCH   3  15
TORSDOF 6
