REMARK  Name = ZINCpk00000y6xSV.0
REMARK                            x       y       z     vdW  Elec       q    Type
REMARK                         _______ _______ _______ _____ _____    ______ ____
ROOT
ATOM      1  N   LIG    1       -0.837   4.041   6.527  0.00  0.00    -0.430 N 
ATOM      2  C   LIG    1       -0.005   4.830   5.582  0.00  0.00    +0.200 C 
ATOM      3  C   LIG    1        0.660   3.774   4.674  0.00  0.00    +0.070 C 
ATOM      4  C   LIG    1       -0.268   2.544   4.743  0.00  0.00    +0.260 C 
ATOM      5  C   LIG    1       -1.416   2.960   5.688  0.00  0.00    +0.220 C 
ENDROOT
BRANCH   1  11
ATOM      6  C   LIG    1       -1.951   4.915   8.480  0.00  0.00    -0.160 A 
ATOM      7  C   LIG    1       -2.963   5.716   9.020  0.00  0.00    +0.100 A 
ATOM      8  C   LIG    1       -3.812   6.378   8.150  0.00  0.00    -0.030 A 
ATOM      9  C   LIG    1       -3.636   6.235   6.785  0.00  0.00    +0.300 A 
ATOM     10  N   LIG    1       -2.672   5.478   6.296  0.00  0.00    -0.510 NA
ATOM     11  C   LIG    1       -1.833   4.823   7.083  0.00  0.00    +0.330 A 
BRANCH   6  15
ATOM     12  C   LIG    1       -0.288   3.468  11.572  0.00  0.00    +0.290 C 
ATOM     13  N   LIG    1       -1.210   4.195  10.696  0.00  0.00    -0.740 N 
ATOM     14  H   LIG    1       -1.956   4.685  11.077  0.00  0.00    +0.400 HD
ATOM     15  C   LIG    1       -1.023   4.183   9.362  0.00  0.00    +0.560 C 
ATOM     16  O   LIG    1       -0.088   3.569   8.884  0.00  0.00    -0.490 OA
ENDBRANCH   6  15
ENDBRANCH   1  11
BRANCH   4  17
ATOM     17  C   LIG    1       -0.808   2.217   3.375  0.00  0.00    +0.040 A 
ATOM     18  N   LIG    1       -0.099   1.801   2.381  0.00  0.00    -0.410 NA
ATOM     19  C   LIG    1       -0.731   1.562   1.250  0.00  0.00    +0.060 A 
ATOM     20  C   LIG    1       -2.047   1.793   1.291  0.00  0.00    -0.080 A 
ATOM     21  C   LIG    1       -0.028   1.073   0.010  0.00  0.00    +0.140 C 
ATOM     22  S   LIG    1       -2.450   2.345   2.915  0.00  0.00    +0.110 S 
ENDBRANCH   4  17
BRANCH   4  23
ATOM     23  N   LIG    1        0.453   1.393   5.292  0.00  0.00    -0.720 N 
ATOM     24  H   LIG    1        0.166   0.995   6.129  0.00  0.00    +0.400 HD
ATOM     25  C   LIG    1        1.516   0.887   4.635  0.00  0.00    +0.500 C 
ATOM     26  O   LIG    1        1.875   1.385   3.589  0.00  0.00    -0.490 OA
ATOM     27  C   LIG    1        2.258  -0.296   5.200  0.00  0.00    +0.090 C 
ENDBRANCH   4  23
TORSDOF 4
