REMARK  Name = ZINCvU00000005wZ.0
REMARK                            x       y       z     vdW  Elec       q    Type
REMARK                         _______ _______ _______ _____ _____    ______ ____
ROOT
ATOM      1  N   LIG    1       -0.146   0.895   1.349  0.00  0.00    -0.630 N 
ATOM      2  H   LIG    1       -0.124  -0.070   1.256  0.00  0.00    +0.420 HD
ATOM      3  C   LIG    1       -1.304   1.563   1.173  0.00  0.00    +0.530 C 
ATOM      4  O   LIG    1       -1.331   2.770   1.288  0.00  0.00    -0.490 OA
ENDROOT
BRANCH   1  11
ATOM      5  C   LIG    1        5.168   4.045   2.318  0.00  0.00    +0.010 C 
ATOM      6  C   LIG    1        5.434   2.759   3.107  0.00  0.00    +0.030 C 
ATOM      7  C   LIG    1        4.736   1.588   2.413  0.00  0.00    +0.100 C 
ATOM      8  C   LIG    1        3.286   1.966   2.155  0.00  0.00    -0.040 A 
ATOM      9  C   LIG    1        2.833   3.226   2.188  0.00  0.00    -0.240 A 
ATOM     10  S   LIG    1        1.114   3.279   1.836  0.00  0.00    +0.320 S 
ATOM     11  C   LIG    1        1.016   1.589   1.655  0.00  0.00    +0.050 A 
ATOM     12  C   LIG    1        2.238   1.011   1.847  0.00  0.00    -0.110 A 
ATOM     13  C   LIG    1        3.697   4.437   2.485  0.00  0.00    +0.130 C 
BRANCH   5  15
ATOM     14  C   LIG    1        5.760   5.397   4.334  0.00  0.00    +0.020 C 
ATOM     15  C   LIG    1        6.060   5.167   2.852  0.00  0.00    -0.060 C 
ATOM     16  C   LIG    1        5.785   6.453   2.070  0.00  0.00    +0.030 C 
ATOM     17  C   LIG    1        7.529   4.773   2.685  0.00  0.00    +0.010 C 
ENDBRANCH   5  15
BRANCH  12  18
ATOM     18  C   LIG    1        2.464  -0.400   1.753  0.00  0.00    +0.270 C 
ATOM     19  N   LIG    1        2.642  -1.520   1.678  0.00  0.00    -0.420 NA
ENDBRANCH  12  18
ENDBRANCH   1  11
BRANCH   3  20
ATOM     20  C   LIG    1       -2.564   0.810   0.835  0.00  0.00    +0.100 C 
BRANCH  20  21
ATOM     21  S   LIG    1       -3.937   1.977   0.664  0.00  0.00    +0.100 S 
BRANCH  21  22
ATOM     22  C   LIG    1       -5.243   0.859   0.279  0.00  0.00    +0.130 A 
ATOM     23  N   LIG    1       -5.146  -0.446   0.164  0.00  0.00    -0.290 NA
ATOM     24  N   LIG    1       -6.295  -0.946  -0.122  0.00  0.00    -0.280 NA
ATOM     25  C   LIG    1       -7.185   0.002  -0.213  0.00  0.00    +0.230 A 
ATOM     26  N   LIG    1       -6.547   1.185   0.040  0.00  0.00    -0.430 N 
BRANCH  25  27
ATOM     27  C   LIG    1       -8.646  -0.174  -0.536  0.00  0.00    +0.040 C 
ATOM     28  C   LIG    1       -9.192  -1.603  -0.586  0.00  0.00    +0.070 C 
ATOM     29  C   LIG    1       -9.001  -0.812  -1.881  0.00  0.00    +0.060 C 
ENDBRANCH  25  27
BRANCH  26  30
ATOM     30  C   LIG    1       -7.140   2.524   0.050  0.00  0.00    +0.200 C 
ATOM     31  C   LIG    1       -6.188   3.719  -0.033  0.00  0.00    +0.070 C 
ATOM     32  C   LIG    1       -6.896   3.395   1.284  0.00  0.00    +0.060 C 
ENDBRANCH  26  30
ENDBRANCH  21  22
ENDBRANCH  20  21
ENDBRANCH   3  20
TORSDOF 8
