REMARK  Name = ZINCBI0000000kaE.0
REMARK                            x       y       z     vdW  Elec       q    Type
REMARK                         _______ _______ _______ _____ _____    ______ ____
ROOT
ATOM      1  C   LIG    1        3.190  -2.868  -4.070  0.00  0.00    +0.200 C 
ATOM      2  N   LIG    1        3.973  -3.726  -3.513  0.00  0.00    -0.250 NA
ATOM      3  N   LIG    1        4.064  -3.600  -2.128  0.00  0.00    -0.450 N 
ATOM      4  C   LIG    1        3.208  -2.484  -1.696  0.00  0.00    +0.300 C 
ATOM      5  C   LIG    1        4.812  -4.373  -1.318  0.00  0.00    +0.530 C 
ATOM      6  O   LIG    1        4.816  -4.173  -0.122  0.00  0.00    -0.510 OA
ATOM      7  C   LIG    1        2.597  -1.964  -3.013  0.00  0.00    +0.110 C 
ENDROOT
BRANCH   1  13
ATOM      8  C   LIG    1        3.530  -3.671  -6.405  0.00  0.00    +0.170 A 
ATOM      9  C   LIG    1        3.259  -3.584  -7.761  0.00  0.00    -0.070 A 
ATOM     10  C   LIG    1        2.396  -2.613  -8.235  0.00  0.00    +0.090 A 
ATOM     11  C   LIG    1        1.792  -1.727  -7.360  0.00  0.00    -0.020 A 
ATOM     12  C   LIG    1        2.045  -1.804  -6.006  0.00  0.00    +0.100 A 
ATOM     13  C   LIG    1        2.915  -2.780  -5.515  0.00  0.00    -0.090 A 
BRANCH   8  15
ATOM     14  C   LIG    1        4.971  -5.493  -6.906  0.00  0.00    +0.240 C 
ATOM     15  O   LIG    1        4.383  -4.620  -5.940  0.00  0.00    -0.300 OA
ENDBRANCH   8  15
ENDBRANCH   1  13
BRANCH   4  16
ATOM     16  C   LIG    1        2.127  -2.973  -0.767  0.00  0.00    -0.220 A 
ATOM     17  C   LIG    1        1.691  -4.247  -0.656  0.00  0.00    +0.250 A 
ATOM     18  N   LIG    1        0.714  -4.272   0.288  0.00  0.00    -0.310 N 
ATOM     19  N   LIG    1        0.549  -2.969   0.776  0.00  0.00    -0.260 NA
ATOM     20  C   LIG    1        1.393  -2.184   0.140  0.00  0.00    +0.150 A 
BRANCH  18  21
ATOM     21  C   LIG    1       -0.001  -5.403   0.704  0.00  0.00    +0.150 A 
ATOM     22  C   LIG    1        0.264  -6.642   0.134  0.00  0.00    -0.020 A 
ATOM     23  C   LIG    1       -0.438  -7.756   0.549  0.00  0.00    +0.040 A 
ATOM     24  C   LIG    1       -1.411  -7.638   1.524  0.00  0.00    +0.010 A 
ATOM     25  C   LIG    1       -1.681  -6.405   2.090  0.00  0.00    +0.050 A 
ATOM     26  C   LIG    1       -0.979  -5.288   1.682  0.00  0.00    +0.030 A 
ENDBRANCH  18  21
BRANCH  20  27
ATOM     27  C   LIG    1        1.548  -0.723   0.348  0.00  0.00    -0.030 A 
ATOM     28  C   LIG    1        0.423   0.089   0.475  0.00  0.00    +0.040 A 
ATOM     29  C   LIG    1        0.574   1.448   0.668  0.00  0.00    +0.020 A 
ATOM     30  C   LIG    1        1.839   2.003   0.736  0.00  0.00    +0.030 A 
ATOM     31  C   LIG    1        2.959   1.202   0.611  0.00  0.00    +0.010 A 
ATOM     32  C   LIG    1        2.820  -0.158   0.417  0.00  0.00    +0.020 A 
ENDBRANCH  20  27
ENDBRANCH   4  16
BRANCH   5  33
ATOM     33  C   LIG    1        5.646  -5.487  -1.898  0.00  0.00    +0.310 C 
BRANCH  33  34
ATOM     34  N   LIG    1        6.363  -6.176  -0.817  0.00  0.00    -0.500 N 
ATOM     35  H   LIG    1        5.698  -6.559  -0.163  0.00  0.00    +0.440 HD
ATOM     36  H   LIG    1        6.964  -5.520  -0.341  0.00  0.00    +0.430 HD
BRANCH  34  37
ATOM     37  C   LIG    1        7.175  -7.262  -1.382  0.00  0.00    +0.290 C 
BRANCH  37  38
ATOM     38  C   LIG    1        7.922  -7.979  -0.257  0.00  0.00    +0.220 C 
BRANCH  38  39
ATOM     39  O   LIG    1        6.981  -8.621   0.607  0.00  0.00    -0.580 OA
ATOM     40  H   LIG    1        7.386  -9.097   1.345  0.00  0.00    +0.410 HD
ENDBRANCH  38  39
ENDBRANCH  37  38
ENDBRANCH  34  37
ENDBRANCH  33  34
ENDBRANCH   5  33
TORSDOF 10
