REMARK  Name = ZINCrg000000tXsg.0
REMARK                            x       y       z     vdW  Elec       q    Type
REMARK                         _______ _______ _______ _____ _____    ______ ____
ROOT
ATOM      1  O   LIG    1        2.200   1.550  -0.567  0.00  0.00    -0.520 OA
ATOM      2  C   LIG    1        1.096   2.060  -0.488  0.00  0.00    +0.600 A 
ATOM      3  N   LIG    1       -0.014   1.298  -0.371  0.00  0.00    -0.660 N 
ATOM      4  H   LIG    1        0.065   0.331  -0.350  0.00  0.00    +0.420 HD
ATOM      5  C   LIG    1       -1.244   1.880  -0.289  0.00  0.00    +0.680 A 
ATOM      6  N   LIG    1       -1.401   3.184  -0.307  0.00  0.00    -0.590 NA
ATOM      7  C   LIG    1       -0.351   4.008  -0.420  0.00  0.00    +0.400 A 
ATOM      8  N   LIG    1       -0.213   5.363  -0.470  0.00  0.00    -0.320 N 
ATOM      9  N   LIG    1        1.150   5.661  -0.594  0.00  0.00    -0.280 NA
ATOM     10  C   LIG    1        1.838   4.553  -0.622  0.00  0.00    +0.350 A 
ATOM     11  C   LIG    1        0.943   3.469  -0.515  0.00  0.00    -0.380 A 
ENDROOT
BRANCH   8  12
ATOM     12  C   LIG    1       -1.255   6.297  -0.407  0.00  0.00    +0.150 A 
ATOM     13  C   LIG    1       -2.482   6.011  -0.992  0.00  0.00    +0.020 A 
ATOM     14  C   LIG    1       -3.509   6.932  -0.924  0.00  0.00    +0.030 A 
ATOM     15  C   LIG    1       -3.313   8.142  -0.284  0.00  0.00    +0.010 A 
ATOM     16  C   LIG    1       -2.091   8.432   0.295  0.00  0.00    +0.030 A 
ATOM     17  C   LIG    1       -1.062   7.513   0.235  0.00  0.00    +0.020 A 
ENDBRANCH   8  12
BRANCH   5  18
ATOM     18  N   LIG    1       -2.352   1.079  -0.178  0.00  0.00    -0.670 N 
ATOM     19  H   LIG    1       -2.253   0.115  -0.159  0.00  0.00    +0.430 HD
BRANCH  18  20
ATOM     20  C   LIG    1       -3.685   1.681  -0.088  0.00  0.00    +0.260 C 
ATOM     21  C   LIG    1       -4.280   1.650   1.330  0.00  0.00    +0.010 C 
ATOM     22  C   LIG    1       -4.867   0.275   0.969  0.00  0.00    +0.170 C 
ATOM     23  C   LIG    1       -4.820   0.729  -0.500  0.00  0.00    +0.280 C 
BRANCH  23  24
ATOM     24  N   LIG    1       -4.395  -0.324  -1.426  0.00  0.00    -0.370 N 
ATOM     25  C   LIG    1       -4.471  -0.275  -2.772  0.00  0.00    +0.220 A 
ATOM     26  C   LIG    1       -3.979  -1.440  -3.256  0.00  0.00    -0.120 A 
ATOM     27  C   LIG    1       -3.589  -2.227  -2.167  0.00  0.00    +0.210 A 
ATOM     28  N   LIG    1       -3.833  -1.557  -1.070  0.00  0.00    -0.250 NA
ENDBRANCH  23  24
BRANCH  22  29
ATOM     29  O   LIG    1       -3.990  -0.815   1.260  0.00  0.00    -0.520 OA
ATOM     30  H   LIG    1       -3.981  -1.075   2.191  0.00  0.00    +0.380 HD
ENDBRANCH  22  29
ENDBRANCH  18  20
ENDBRANCH   5  18
TORSDOF 5
