REMARK  Name = ZINCvU00000009iv.0
REMARK                            x       y       z     vdW  Elec       q    Type
REMARK                         _______ _______ _______ _____ _____    ______ ____
ROOT
ATOM      1  C   LIG    1       -0.579  -2.678   0.028  0.00  0.00    +0.110 C 
ENDROOT
BRANCH   1   7
ATOM      2  N   LIG    1       -1.777  -7.334  -0.019  0.00  0.00    -0.670 N 
ATOM      3  H   LIG    1       -0.838  -7.560  -0.106  0.00  0.00    +0.410 HD
ATOM      4  C   LIG    1       -2.160  -6.042  -0.005  0.00  0.00    +0.700 C 
ATOM      5  N   LIG    1       -1.233  -5.064   0.004  0.00  0.00    -0.680 N 
ATOM      6  H   LIG    1       -0.290  -5.290  -0.001  0.00  0.00    +0.420 HD
ATOM      7  C   LIG    1       -1.616  -3.772   0.018  0.00  0.00    +0.540 C 
ATOM      8  O   LIG    1       -2.795  -3.489   0.024  0.00  0.00    -0.440 OA
ATOM      9  O   LIG    1       -3.342  -5.758   0.001  0.00  0.00    -0.500 OA
BRANCH   2  15
ATOM     10  C   LIG    1       -3.126 -11.988  -0.853  0.00  0.00    +0.090 C 
ATOM     11  C   LIG    1       -3.414 -10.614  -0.304  0.00  0.00    -0.070 A 
ATOM     12  C   LIG    1       -4.626 -10.356   0.309  0.00  0.00    -0.010 A 
ATOM     13  C   LIG    1       -4.895  -9.096   0.813  0.00  0.00    +0.030 A 
ATOM     14  C   LIG    1       -3.951  -8.094   0.711  0.00  0.00    +0.020 A 
ATOM     15  C   LIG    1       -2.734  -8.349   0.091  0.00  0.00    +0.160 A 
ATOM     16  C   LIG    1       -2.467  -9.614  -0.414  0.00  0.00    -0.120 A 
ATOM     17  C   LIG    1       -1.147  -9.896  -1.083  0.00  0.00    +0.090 C 
ENDBRANCH   2  15
ENDBRANCH   1   7
BRANCH   1  18
ATOM     18  S   LIG    1       -1.402  -1.067   0.047  0.00  0.00    +0.160 S 
BRANCH  18  19
ATOM     19  C   LIG    1        0.004  -0.005   0.055  0.00  0.00    +0.120 A 
ATOM     20  N   LIG    1        1.262  -0.382   0.049  0.00  0.00    -0.290 NA
ATOM     21  N   LIG    1        2.020   0.658   0.059  0.00  0.00    -0.270 NA
ATOM     22  C   LIG    1        1.278   1.738   0.072  0.00  0.00    +0.220 A 
ATOM     23  O   LIG    1       -0.014   1.341   0.070  0.00  0.00    -0.200 OA
BRANCH  22  24
ATOM     24  C   LIG    1        1.765   3.133   0.086  0.00  0.00    -0.040 A 
ATOM     25  C   LIG    1        0.856   4.193   0.092  0.00  0.00    +0.050 A 
ATOM     26  C   LIG    1        1.317   5.493   0.112  0.00  0.00    +0.020 A 
ATOM     27  C   LIG    1        2.677   5.748   0.112  0.00  0.00    -0.040 A 
ATOM     28  C   LIG    1        3.583   4.703   0.099  0.00  0.00    +0.010 A 
ATOM     29  C   LIG    1        3.136   3.398   0.086  0.00  0.00    +0.080 A 
BRANCH  27  30
ATOM     30  C   LIG    1        3.173   7.171   0.126  0.00  0.00    -0.030 C 
ATOM     31  C   LIG    1        4.024   7.402   1.377  0.00  0.00    +0.040 C 
ATOM     32  C   LIG    1        1.979   8.127   0.138  0.00  0.00    +0.030 C 
ATOM     33  C   LIG    1        4.020   7.428  -1.121  0.00  0.00    +0.040 C 
ENDBRANCH  27  30
ENDBRANCH  22  24
ENDBRANCH  18  19
ENDBRANCH   1  18
TORSDOF 6
