REMARK  Name = ZINCpk000000mUco.0
REMARK                            x       y       z     vdW  Elec       q    Type
REMARK                         _______ _______ _______ _____ _____    ______ ____
ROOT
ATOM      1  N   LIG    1        5.586   2.399   1.648  0.00  0.00    -0.740 N 
ATOM      2  H   LIG    1        5.487   3.364   1.633  0.00  0.00    +0.400 HD
ATOM      3  C   LIG    1        4.627   1.615   1.116  0.00  0.00    +0.710 C 
ATOM      4  N   LIG    1        3.531   2.173   0.563  0.00  0.00    -0.730 N 
ATOM      5  H   LIG    1        3.433   3.138   0.548  0.00  0.00    +0.400 HD
ATOM      6  O   LIG    1        4.750   0.406   1.135  0.00  0.00    -0.590 OA
ENDROOT
BRANCH   1   7
ATOM      7  C   LIG    1        6.777   1.793   2.249  0.00  0.00    +0.280 C 
BRANCH   7   8
ATOM      8  C   LIG    1        7.699   2.894   2.774  0.00  0.00    +0.020 C 
BRANCH   8   9
ATOM      9  C   LIG    1        8.943   2.262   3.402  0.00  0.00    +0.260 C 
BRANCH   9  12
ATOM     10  C   LIG    1       11.900   4.078   5.019  0.00  0.00    +0.110 C 
ATOM     11  C   LIG    1       10.991   2.993   4.502  0.00  0.00    +0.510 C 
ATOM     12  N   LIG    1        9.827   3.317   3.905  0.00  0.00    -0.730 N 
ATOM     13  H   LIG    1        9.574   4.248   3.808  0.00  0.00    +0.400 HD
ATOM     14  O   LIG    1       11.307   1.828   4.623  0.00  0.00    -0.540 OA
ENDBRANCH   9  12
ENDBRANCH   8   9
ENDBRANCH   7   8
ENDBRANCH   1   7
BRANCH   4  15
ATOM     15  C   LIG    1        2.489   1.321  -0.015  0.00  0.00    +0.410 C 
BRANCH  15  16
ATOM     16  C   LIG    1        1.173   2.056   0.002  0.00  0.00    -0.120 A 
ATOM     17  C   LIG    1        1.153   3.438   0.010  0.00  0.00    +0.060 A 
ATOM     18  C   LIG    1       -0.054   4.112   0.025  0.00  0.00    +0.020 A 
ATOM     19  C   LIG    1       -1.242   3.405   0.032  0.00  0.00    +0.060 A 
ATOM     20  C   LIG    1       -1.224   2.023   0.019  0.00  0.00    -0.010 A 
ATOM     21  C   LIG    1       -0.016   1.347   0.009  0.00  0.00    +0.110 A 
ATOM     22  F   LIG    1        0.002  -0.004   0.002  0.00  0.00    -0.140 F 
ENDBRANCH  15  16
BRANCH  15  23
ATOM     23  C   LIG    1        2.853   0.976  -1.436  0.00  0.00    +0.190 A 
ATOM     24  N   LIG    1        3.298   1.814  -2.332  0.00  0.00    -0.470 NA
ATOM     25  C   LIG    1        3.518   1.158  -3.481  0.00  0.00    +0.140 A 
ATOM     26  C   LIG    1        3.190  -0.134  -3.292  0.00  0.00    +0.130 A 
ATOM     27  N   LIG    1        2.768  -0.250  -1.995  0.00  0.00    -0.440 N 
ATOM     28  C   LIG    1        2.311  -1.476  -1.336  0.00  0.00    +0.330 C 
ENDBRANCH  15  23
ENDBRANCH   4  15
TORSDOF 7
