REMARK  Name = ZINCpk00001AZj7v.0
REMARK                            x       y       z     vdW  Elec       q    Type
REMARK                         _______ _______ _______ _____ _____    ______ ____
ROOT
ATOM      1  C   LIG    1       -0.014   1.213   0.009  0.00  0.00    +0.570 C 
ATOM      2  N   LIG    1        1.143   1.903   0.001  0.00  0.00    -0.620 N 
ATOM      3  C   LIG    1        1.268   3.368   0.002  0.00  0.00    +0.260 C 
ATOM      4  C   LIG    1        2.776   3.699   0.021  0.00  0.00    +0.050 C 
ATOM      5  C   LIG    1        3.411   2.405   0.594  0.00  0.00    +0.240 C 
ATOM      6  C   LIG    1        2.495   1.313  -0.015  0.00  0.00    +0.260 C 
ATOM      7  O   LIG    1        0.002  -0.004   0.002  0.00  0.00    -0.550 OA
ENDROOT
BRANCH   1   9
ATOM      8  C   LIG    1       -2.412   1.214   0.020  0.00  0.00    +0.200 C 
ATOM      9  C   LIG    1       -1.252   1.906   0.018  0.00  0.00    -0.130 C 
BRANCH   8  13
ATOM     10  C   LIG    1       -7.306   2.213   0.048  0.00  0.00    +0.350 C 
ATOM     11  N   LIG    1       -5.849   2.365   0.043  0.00  0.00    -0.360 N 
ATOM     12  C   LIG    1       -4.955   1.362   0.033  0.00  0.00    +0.290 A 
ATOM     13  C   LIG    1       -3.695   1.932   0.030  0.00  0.00    -0.250 A 
ATOM     14  C   LIG    1       -3.873   3.335   0.045  0.00  0.00    +0.270 A 
ATOM     15  N   LIG    1       -5.154   3.580   0.046  0.00  0.00    -0.300 NA
ENDBRANCH   8  13
ENDBRANCH   1   9
BRANCH   5  16
ATOM     16  N   LIG    1        4.792   2.248   0.131  0.00  0.00    -0.690 N 
ATOM     17  H   LIG    1        5.101   2.738  -0.647  0.00  0.00    +0.420 HD
BRANCH  16  18
ATOM     18  C   LIG    1        5.659   1.398   0.807  0.00  0.00    +0.440 A 
ATOM     19  C   LIG    1        5.211   0.703   1.926  0.00  0.00    -0.090 A 
ATOM     20  C   LIG    1        6.083  -0.144   2.586  0.00  0.00    +0.190 A 
ATOM     21  C   LIG    1        7.382  -0.259   2.110  0.00  0.00    -0.160 A 
ATOM     22  C   LIG    1        7.762   0.465   0.997  0.00  0.00    +0.430 A 
ATOM     23  N   LIG    1        6.907   1.261   0.384  0.00  0.00    -0.530 NA
BRANCH  21  24
ATOM     24  N   LIG    1        8.351  -1.149   2.788  0.00  0.00    +0.040 N 
ATOM     25  O   LIG    1        8.009  -1.786   3.769  0.00  0.00    -0.170 OA
ATOM     26  O   LIG    1        9.489  -1.246   2.365  0.00  0.00    -0.160 OA
ENDBRANCH  21  24
ENDBRANCH  16  18
ENDBRANCH   5  16
TORSDOF 5
