REMARK  Name = ZINCtV00001bB3qm.0
REMARK                            x       y       z     vdW  Elec       q    Type
REMARK                         _______ _______ _______ _____ _____    ______ ____
ROOT
ATOM      1  C   LIG    1       -1.232   7.453  -0.376  0.00  0.00    +0.070 C 
ATOM      2  C   LIG    1       -1.919   7.637   0.978  0.00  0.00    +0.190 C 
ENDROOT
BRANCH   2   3
ATOM      3  C   LIG    1       -2.181   6.288   1.596  0.00  0.00    +0.520 C 
ATOM      4  N   LIG    1       -1.149   5.499   1.956  0.00  0.00    -0.660 N 
ATOM      5  H   LIG    1       -0.240   5.833   1.895  0.00  0.00    +0.420 HD
ATOM      6  O   LIG    1       -3.321   5.911   1.771  0.00  0.00    -0.480 OA
BRANCH   4   7
ATOM      7  C   LIG    1       -1.388   4.199   2.417  0.00  0.00    +0.180 A 
ATOM      8  C   LIG    1       -2.594   3.572   2.135  0.00  0.00    +0.070 A 
ATOM      9  C   LIG    1       -2.825   2.287   2.587  0.00  0.00    -0.000 A 
ATOM     10  C   LIG    1       -1.860   1.628   3.329  0.00  0.00    -0.040 A 
ATOM     11  C   LIG    1       -0.657   2.251   3.612  0.00  0.00    +0.100 A 
ATOM     12 CL   LIG    1       -2.156   0.016   3.901  0.00  0.00    -0.030 Cl
ATOM     13 CL   LIG    1       -4.330   1.499   2.228  0.00  0.00    -0.030 Cl
ATOM     14  C   LIG    1       -0.418   3.534   3.158  0.00  0.00    -0.060 A 
ATOM     15 CL   LIG    1        1.091   4.314   3.513  0.00  0.00    -0.040 Cl
ENDBRANCH   4   7
ENDBRANCH   2   3
BRANCH   2  16
ATOM     16  O   LIG    1       -3.178   8.336   0.792  0.00  0.00    -0.310 OA
BRANCH  16  17
ATOM     17  C   LIG    1       -3.146   9.683   0.856  0.00  0.00    +0.520 C 
ATOM     18  O   LIG    1       -2.094  10.257   1.062  0.00  0.00    -0.510 OA
BRANCH  17  19
ATOM     19  C   LIG    1       -4.380  10.456   0.676  0.00  0.00    -0.130 C 
ATOM     20  C   LIG    1       -4.347  11.834   0.742  0.00  0.00    +0.240 C 
BRANCH  19  21
ATOM     21  C   LIG    1       -5.656   9.760   0.426  0.00  0.00    -0.160 A 
ATOM     22  C   LIG    1       -6.664   9.636   1.316  0.00  0.00    +0.050 A 
ATOM     23  C   LIG    1       -7.761   8.940   0.850  0.00  0.00    +0.020 A 
ATOM     24  C   LIG    1       -7.657   8.496  -0.406  0.00  0.00    -0.030 A 
ATOM     25  S   LIG    1       -6.103   8.967  -1.079  0.00  0.00    +0.140 S 
ENDBRANCH  19  21
BRANCH  20  26
ATOM     26  C   LIG    1       -5.507  12.582   0.451  0.00  0.00    -0.240 A 
ATOM     27  C   LIG    1       -5.639  13.940   0.604  0.00  0.00    +0.080 A 
ATOM     28  C   LIG    1       -6.881  14.407   0.245  0.00  0.00    -0.020 A 
ATOM     29  C   LIG    1       -7.737  13.472  -0.187  0.00  0.00    -0.100 A 
ATOM     30  S   LIG    1       -7.015  11.927  -0.172  0.00  0.00    +0.260 S 
ENDBRANCH  20  26
ENDBRANCH  17  19
ENDBRANCH  16  17
ENDBRANCH   2  16
TORSDOF 7
