REMARK  Name = ZINCrD00000F5Llj.0
REMARK                            x       y       z     vdW  Elec       q    Type
REMARK                         _______ _______ _______ _____ _____    ______ ____
ROOT
ATOM      1  C   LIG    1        4.400   3.221  -0.619  0.00  0.00    -0.130 C 
ATOM      2  C   LIG    1        4.006   2.258  -1.533  0.00  0.00    +0.190 A 
ATOM      3  S   LIG    1        4.535   2.105  -3.218  0.00  0.00    +0.130 S 
ATOM      4  C   LIG    1        3.548   0.667  -3.543  0.00  0.00    -0.300 A 
ATOM      5  C   LIG    1        2.882   0.403  -2.321  0.00  0.00    +0.550 A 
ATOM      6  O   LIG    1        2.116  -0.537  -2.199  0.00  0.00    -0.470 OA
ATOM      7  C   LIG    1        3.456  -0.034  -4.710  0.00  0.00    +0.280 C 
ATOM      8  N   LIG    1        3.131   1.231  -1.321  0.00  0.00    -0.540 N 
ENDROOT
BRANCH   7   9
ATOM      9  C   LIG    1        4.204   0.372  -5.839  0.00  0.00    -0.240 A 
ATOM     10  C   LIG    1        4.196  -0.246  -7.063  0.00  0.00    +0.080 A 
ATOM     11  C   LIG    1        5.019   0.361  -7.982  0.00  0.00    +0.000 A 
ATOM     12  C   LIG    1        5.677   1.437  -7.532  0.00  0.00    -0.060 A 
ATOM     13  S   LIG    1        5.287   1.756  -5.902  0.00  0.00    +0.230 S 
ENDBRANCH   7   9
BRANCH   1  14
ATOM     14  C   LIG    1        5.222   4.266  -1.021  0.00  0.00    +0.400 C 
ATOM     15  O   LIG    1        5.596   4.335  -2.177  0.00  0.00    -0.470 OA
BRANCH  14  17
ATOM     16  C   LIG    1        6.545   6.341  -0.722  0.00  0.00    +0.050 C 
ATOM     17  C   LIG    1        5.650   5.313  -0.026  0.00  0.00    -0.100 C 
ATOM     18  C   LIG    1        6.427   4.649   1.112  0.00  0.00    +0.050 C 
ATOM     19  C   LIG    1        4.414   6.014   0.541  0.00  0.00    +0.050 C 
ENDBRANCH  14  17
ENDBRANCH   1  14
BRANCH   8  20
ATOM     20  C   LIG    1        2.488   1.048  -0.017  0.00  0.00    +0.370 C 
BRANCH  20  21
ATOM     21  C   LIG    1        3.407   0.272   0.891  0.00  0.00    -0.160 A 
ATOM     22  C   LIG    1        4.166   0.935   1.836  0.00  0.00    +0.060 A 
ATOM     23  C   LIG    1        5.013   0.224   2.666  0.00  0.00    +0.000 A 
ATOM     24  C   LIG    1        5.093  -1.152   2.558  0.00  0.00    +0.060 A 
ATOM     25  C   LIG    1        4.335  -1.817   1.613  0.00  0.00    -0.020 A 
ATOM     26  C   LIG    1        3.490  -1.106   0.778  0.00  0.00    +0.120 A 
ATOM     27  F   LIG    1        2.748  -1.755  -0.145  0.00  0.00    -0.120 F 
ENDBRANCH  20  21
ENDBRANCH   8  20
TORSDOF 5
