REMARK  Name = ZINCrD000000BgAb.0
REMARK                            x       y       z     vdW  Elec       q    Type
REMARK                         _______ _______ _______ _____ _____    ______ ____
ROOT
ATOM      1  C   LIG    1       -3.030   3.802   1.934  0.00  0.00    +0.560 C 
ATOM      2  N   LIG    1       -3.941   3.185   1.157  0.00  0.00    -0.710 N 
ATOM      3  H   LIG    1       -3.709   2.363   0.697  0.00  0.00    +0.410 HD
ATOM      4  O   LIG    1       -3.320   4.832   2.511  0.00  0.00    -0.530 OA
ENDROOT
BRANCH   1  11
ATOM      5  O   LIG    1        3.747   2.810   3.968  0.00  0.00    -0.480 OA
ATOM      6  C   LIG    1        2.623   2.788   3.504  0.00  0.00    +0.640 A 
ATOM      7  N   LIG    1        1.666   3.707   3.740  0.00  0.00    -0.650 N 
ATOM      8  H   LIG    1        1.751   4.493   4.302  0.00  0.00    +0.450 HD
ATOM      9  C   LIG    1        0.530   3.320   3.028  0.00  0.00    +0.060 A 
ATOM     10  C   LIG    1       -0.733   3.865   2.891  0.00  0.00    +0.110 A 
ATOM     11  C   LIG    1       -1.678   3.227   2.086  0.00  0.00    -0.110 A 
ATOM     12  C   LIG    1       -1.341   2.046   1.418  0.00  0.00    +0.080 A 
ATOM     13  C   LIG    1       -0.083   1.504   1.563  0.00  0.00    +0.070 A 
ATOM     14  C   LIG    1        0.860   2.136   2.363  0.00  0.00    +0.060 A 
ATOM     15  O   LIG    1        2.144   1.844   2.679  0.00  0.00    -0.230 OA
ENDBRANCH   1  11
BRANCH   2  16
ATOM     16  C   LIG    1       -5.282   3.755   1.006  0.00  0.00    +0.290 C 
BRANCH  16  17
ATOM     17  C   LIG    1       -6.113   2.867   0.078  0.00  0.00    +0.210 C 
BRANCH  17  18
ATOM     18  C   LIG    1       -7.493   3.453  -0.075  0.00  0.00    -0.110 A 
ATOM     19  C   LIG    1       -8.560   2.895   0.604  0.00  0.00    +0.040 A 
ATOM     20  C   LIG    1       -9.826   3.433   0.464  0.00  0.00    +0.010 A 
ATOM     21  C   LIG    1      -10.026   4.527  -0.356  0.00  0.00    +0.030 A 
ATOM     22  C   LIG    1       -8.960   5.086  -1.036  0.00  0.00    +0.030 A 
ATOM     23  C   LIG    1       -7.691   4.553  -0.891  0.00  0.00    -0.030 A 
ATOM     24 CL   LIG    1       -6.351   5.259  -1.738  0.00  0.00    -0.060 Cl
ENDBRANCH  17  18
BRANCH  17  25
ATOM     25  N   LIG    1       -6.215   1.519   0.653  0.00  0.00    -0.500 NA
ATOM     26  C   LIG    1       -6.605   1.578   2.084  0.00  0.00    +0.170 C 
ATOM     27  C   LIG    1       -7.164   0.159   2.358  0.00  0.00    +0.020 C 
ATOM     28  C   LIG    1       -7.904  -0.180   1.044  0.00  0.00    +0.020 C 
ATOM     29  C   LIG    1       -7.271   0.734  -0.021  0.00  0.00    +0.160 C 
ENDBRANCH  17  25
ENDBRANCH  16  17
ENDBRANCH   2  16
TORSDOF 5
