REMARK  Name = ZINCpk00000LofBY.0
REMARK                            x       y       z     vdW  Elec       q    Type
REMARK                         _______ _______ _______ _____ _____    ______ ____
ROOT
ATOM      1  N   LIG    1       -1.698  -3.105   3.239  0.00  0.00    -0.460 N 
ATOM      2  C   LIG    1       -0.236  -2.989   3.141  0.00  0.00    +0.250 C 
ATOM      3  C   LIG    1        0.169  -1.525   3.326  0.00  0.00    +0.280 C 
ATOM      4  N   LIG    1       -0.475  -0.704   2.292  0.00  0.00    -0.390 N 
ATOM      5  C   LIG    1       -1.934  -0.811   2.419  0.00  0.00    +0.280 C 
ATOM      6  H   LIG    1       -0.192  -1.029   1.380  0.00  0.00    +0.420 HD
ATOM      7  C   LIG    1       -2.358  -2.268   2.226  0.00  0.00    +0.260 C 
ENDROOT
BRANCH   1  10
ATOM      8  C   LIG    1       -1.579  -6.646   2.856  0.00  0.00    +0.600 A 
ATOM      9  N   LIG    1       -1.193  -5.378   2.955  0.00  0.00    -0.650 NA
ATOM     10  C   LIG    1       -2.098  -4.421   3.130  0.00  0.00    +0.530 A 
ATOM     11  N   LIG    1       -3.390  -4.732   3.195  0.00  0.00    -0.550 NA
ATOM     12  C   LIG    1       -3.775  -5.998   3.090  0.00  0.00    +0.380 A 
ATOM     13  N   LIG    1       -2.871  -6.955   2.921  0.00  0.00    -0.570 NA
BRANCH   8  14
ATOM     14  N   LIG    1       -0.639  -7.641   2.679  0.00  0.00    -0.810 N 
ATOM     15  H   LIG    1        0.303  -7.415   2.632  0.00  0.00    +0.410 HD
ATOM     16  H   LIG    1       -0.921  -8.566   2.603  0.00  0.00    +0.420 HD
ENDBRANCH   8  14
BRANCH  12  17
ATOM     17  C   LIG    1       -5.220  -6.344   3.163  0.00  0.00    +0.550 C 
ATOM     18  O   LIG    1       -5.574  -7.509   3.066  0.00  0.00    -0.630 OA
ATOM     19  O   LIG    1       -6.052  -5.464   3.318  0.00  0.00    -0.640 OA
ENDBRANCH  12  17
ENDBRANCH   1  10
BRANCH   4  20
ATOM     20  C   LIG    1       -0.071   0.699   2.459  0.00  0.00    +0.260 C 
BRANCH  20  21
ATOM     21  C   LIG    1       -0.641   1.534   1.311  0.00  0.00    -0.020 C 
ATOM     22  C   LIG    1       -0.013   1.086   0.008  0.00  0.00    +0.010 C 
ATOM     23  C   LIG    1       -0.657   1.542  -1.262  0.00  0.00    +0.050 C 
ATOM     24  C   LIG    1       -0.292   2.954  -1.633  0.00  0.00    -0.050 C 
ATOM     25  C   LIG    1       -1.000   3.918  -1.082  0.00  0.00    -0.040 C 
ATOM     26  C   LIG    1       -2.103   3.532  -0.129  0.00  0.00    +0.040 C 
ATOM     27  C   LIG    1       -1.646   3.816   1.300  0.00  0.00    +0.020 C 
ATOM     28  C   LIG    1       -0.343   3.021   1.569  0.00  0.00    +0.040 C 
ENDBRANCH  20  21
ENDBRANCH   4  20
TORSDOF 5
