REMARK  Name = ZINCrD00000hQ4XZ.0
REMARK                            x       y       z     vdW  Elec       q    Type
REMARK                         _______ _______ _______ _____ _____    ______ ____
ROOT
ATOM      1  O   LIG    1        3.099   6.641  -1.980  0.00  0.00    -0.350 OA
ENDROOT
BRANCH   1   3
ATOM      2  O   LIG    1        3.923   5.838  -3.866  0.00  0.00    -0.490 OA
ATOM      3  C   LIG    1        3.008   6.380  -3.293  0.00  0.00    +0.490 C 
BRANCH   3   4
ATOM      4  C   LIG    1        1.764   6.763  -4.053  0.00  0.00    -0.010 C 
ATOM      5  C   LIG    1        0.872   5.631  -4.565  0.00  0.00    +0.100 C 
ATOM      6  C   LIG    1        1.722   6.439  -5.548  0.00  0.00    +0.050 C 
BRANCH   6   7
ATOM      7  C   LIG    1        2.927   5.761  -6.147  0.00  0.00    -0.100 A 
ATOM      8  C   LIG    1        3.929   6.518  -6.729  0.00  0.00    +0.140 A 
ATOM      9  C   LIG    1        5.039   5.894  -7.274  0.00  0.00    -0.020 A 
ATOM     10  C   LIG    1        5.140   4.516  -7.248  0.00  0.00    +0.080 A 
ATOM     11  C   LIG    1        4.137   3.759  -6.673  0.00  0.00    -0.020 A 
ATOM     12  F   LIG    1        3.828   7.865  -6.759  0.00  0.00    -0.130 F 
ATOM     13  C   LIG    1        3.029   4.381  -6.122  0.00  0.00    +0.140 A 
ATOM     14  F   LIG    1        2.049   3.641  -5.559  0.00  0.00    -0.130 F 
ENDBRANCH   6   7
ENDBRANCH   3   4
ENDBRANCH   1   3
BRANCH   1  15
ATOM     15  C   LIG    1        4.326   6.245  -1.312  0.00  0.00    +0.220 C 
BRANCH  15  16
ATOM     16  C   LIG    1        4.245   6.621   0.169  0.00  0.00    +0.340 C 
BRANCH  16  17
ATOM     17  N   LIG    1        3.184   5.843   0.813  0.00  0.00    -0.550 N 
ATOM     18  C   LIG    1        3.497   4.658   1.352  0.00  0.00    +0.710 C 
ATOM     19  N   LIG    1        2.596   3.869   1.966  0.00  0.00    -0.730 N 
ATOM     20  H   LIG    1        2.866   3.017   2.342  0.00  0.00    +0.430 HD
ATOM     21  C   LIG    1        1.195   4.314   2.053  0.00  0.00    +0.310 C 
ATOM     22  C   LIG    1        0.864   5.656   1.443  0.00  0.00    -0.140 A 
ATOM     23  C   LIG    1       -0.415   6.161   1.477  0.00  0.00    +0.060 A 
ATOM     24  C   LIG    1       -0.682   7.394   0.904  0.00  0.00    -0.010 A 
ATOM     25  C   LIG    1        0.335   8.111   0.300  0.00  0.00    +0.050 A 
ATOM     26  C   LIG    1        1.620   7.606   0.265  0.00  0.00    -0.010 A 
ATOM     27  O   LIG    1        4.650   4.276   1.283  0.00  0.00    -0.580 OA
ATOM     28  C   LIG    1        1.893   6.371   0.838  0.00  0.00    +0.180 A 
ENDBRANCH  16  17
ENDBRANCH  15  16
ENDBRANCH   1  15
TORSDOF 6
