REMARK  Name = ZINCnE00000hdbgt.1
REMARK                            x       y       z     vdW  Elec       q    Type
REMARK                         _______ _______ _______ _____ _____    ______ ____
ROOT
ATOM      1  C   LIG    1       -0.959   1.732  -3.566  0.00  0.00    +0.390 A 
ATOM      2  N   LIG    1       -2.022   2.462  -3.545  0.00  0.00    -0.510 NA
ATOM      3  C   LIG    1       -2.556   2.828  -4.719  0.00  0.00    +0.130 A 
ATOM      4  C   LIG    1       -1.851   2.342  -5.815  0.00  0.00    -0.320 A 
ATOM      5  C   LIG    1       -2.312   2.658  -7.168  0.00  0.00    +0.270 A 
ATOM      6  N   LIG    1       -3.384   3.394  -7.346  0.00  0.00    -0.270 NA
ATOM      7  N   LIG    1       -4.112   3.896  -6.265  0.00  0.00    -0.520 N 
ATOM      8  H   LIG    1       -4.899   4.436  -6.436  0.00  0.00    +0.430 HD
ATOM      9  C   LIG    1       -3.750   3.648  -4.995  0.00  0.00    +0.550 A 
ATOM     10  O   LIG    1       -4.408   4.101  -4.073  0.00  0.00    -0.520 OA
ATOM     11  S   LIG    1       -0.480   1.409  -5.228  0.00  0.00    +0.050 S 
ENDROOT
BRANCH   5  12
ATOM     12  C   LIG    1       -1.569   2.146  -8.337  0.00  0.00    -0.140 A 
ATOM     13  C   LIG    1       -1.896   2.369  -9.627  0.00  0.00    +0.050 A 
ATOM     14  C   LIG    1       -1.048   1.786 -10.545  0.00  0.00    +0.000 A 
ATOM     15  C   LIG    1       -0.035   1.091 -10.019  0.00  0.00    -0.050 A 
ATOM     16  S   LIG    1       -0.117   1.157  -8.264  0.00  0.00    +0.170 S 
ENDBRANCH   5  12
BRANCH   1  18
ATOM     17  C   LIG    1       -0.742   1.585  -1.213  0.00  0.00    +0.460 C 
ATOM     18  N   LIG    1       -0.288   1.272  -2.443  0.00  0.00    -0.670 NA
ATOM     19  O   LIG    1       -1.736   2.268  -1.088  0.00  0.00    -0.550 OA
BRANCH  17  20
ATOM     20  C   LIG    1       -0.013   1.086   0.008  0.00  0.00    +0.050 C 
BRANCH  20  21
ATOM     21  C   LIG    1       -0.729   1.579   1.267  0.00  0.00    -0.010 C 
ATOM     22  C   LIG    1       -2.121   0.950   1.341  0.00  0.00    +0.010 C 
BRANCH  21  24
ATOM     23  C   LIG    1       -0.570   1.778   3.752  0.00  0.00    +0.010 C 
ATOM     24  C   LIG    1        0.079   1.179   2.503  0.00  0.00    +0.000 C 
ENDBRANCH  21  24
ENDBRANCH  20  21
ENDBRANCH  17  20
ENDBRANCH   1  18
TORSDOF 5
