REMARK  Name = ZINCvU00000004o0.0
REMARK                            x       y       z     vdW  Elec       q    Type
REMARK                         _______ _______ _______ _____ _____    ______ ____
ROOT
ATOM      1  C   LIG    1       -0.030   0.063  -0.105  0.00  0.00    +0.230 C 
ATOM      2  C   LIG    1       -0.059   1.601  -0.239  0.00  0.00    +0.050 C 
ATOM      3  C   LIG    1        1.446   1.970  -0.323  0.00  0.00    +0.040 C 
ATOM      4  C   LIG    1        2.017   0.772  -1.122  0.00  0.00    +0.260 C 
ATOM      5  N   LIG    1        1.260  -0.398  -0.641  0.00  0.00    -0.600 N 
ATOM      6  C   LIG    1        1.679  -1.677  -0.685  0.00  0.00    +0.550 C 
ATOM      7  O   LIG    1        1.004  -2.555  -0.189  0.00  0.00    -0.520 OA
ENDROOT
BRANCH   6   8
ATOM      8  C   LIG    1        2.987  -2.019  -1.352  0.00  0.00    -0.060 C 
ATOM      9  C   LIG    1        4.145  -1.485  -0.506  0.00  0.00    +0.030 C 
ATOM     10  C   LIG    1        5.473  -1.832  -1.182  0.00  0.00    -0.010 C 
ATOM     11  C   LIG    1        5.519  -1.193  -2.571  0.00  0.00    +0.020 C 
ATOM     12  C   LIG    1        4.362  -1.726  -3.417  0.00  0.00    -0.010 C 
ATOM     13  C   LIG    1        4.485  -3.245  -3.550  0.00  0.00    +0.010 C 
ATOM     14  C   LIG    1        4.438  -3.885  -2.161  0.00  0.00    -0.020 C 
ATOM     15  C   LIG    1        5.596  -3.351  -1.315  0.00  0.00    +0.010 C 
ATOM     16  C   LIG    1        3.034  -1.380  -2.741  0.00  0.00    +0.040 C 
ATOM     17  C   LIG    1        3.111  -3.538  -1.485  0.00  0.00    +0.050 C 
ENDBRANCH   6   8
BRANCH   1  19
ATOM     18  O   LIG    1       -0.920  -1.298  -1.815  0.00  0.00    -0.490 OA
ATOM     19  C   LIG    1       -1.160  -0.542  -0.898  0.00  0.00    +0.510 C 
ATOM     20  N   LIG    1       -2.437  -0.242  -0.588  0.00  0.00    -0.670 N 
ATOM     21  H   LIG    1       -2.627   0.414   0.101  0.00  0.00    +0.410 HD
BRANCH  20  22
ATOM     22  C   LIG    1       -3.489  -0.877  -1.260  0.00  0.00    +0.140 A 
ATOM     23  C   LIG    1       -4.661  -1.183  -0.583  0.00  0.00    +0.040 A 
ATOM     24  C   LIG    1       -5.699  -1.809  -1.247  0.00  0.00    -0.010 A 
ATOM     25  C   LIG    1       -5.570  -2.132  -2.589  0.00  0.00    +0.100 A 
ATOM     26  C   LIG    1       -4.397  -1.827  -3.267  0.00  0.00    -0.030 A 
ATOM     27 CL   LIG    1       -4.236  -2.232  -4.947  0.00  0.00    -0.040 Cl
ATOM     28  C   LIG    1       -3.361  -1.197  -2.606  0.00  0.00    +0.080 A 
BRANCH  25  29
ATOM     29  O   LIG    1       -6.591  -2.748  -3.241  0.00  0.00    -0.310 OA
BRANCH  29  30
ATOM     30  C   LIG    1       -7.768  -3.032  -2.482  0.00  0.00    +0.600 C 
ATOM     31  F   LIG    1       -8.304  -1.838  -1.987  0.00  0.00    -0.200 F 
ATOM     32  F   LIG    1       -7.442  -3.875  -1.414  0.00  0.00    -0.200 F 
ENDBRANCH  29  30
ENDBRANCH  25  29
ENDBRANCH  20  22
ENDBRANCH   1  19
TORSDOF 5
