REMARK  Name = ZINCvU000000099t.0
REMARK                            x       y       z     vdW  Elec       q    Type
REMARK                         _______ _______ _______ _____ _____    ______ ____
ROOT
ATOM      1  C   LIG    1       -1.660   0.927   4.610  0.00  0.00    +0.090 C 
ATOM      2  C   LIG    1       -2.418   1.590   5.509  0.00  0.00    -0.080 C 
ATOM      3  C   LIG    1       -1.755   2.317   6.639  0.00  0.00    +0.090 C 
ATOM      4  C   LIG    1       -2.700   3.149   7.483  0.00  0.00    +0.010 C 
ATOM      5  C   LIG    1       -4.101   2.551   7.594  0.00  0.00    +0.050 C 
ATOM      6  C   LIG    1       -4.716   2.514   6.194  0.00  0.00    +0.020 C 
ATOM      7  C   LIG    1       -6.060   1.768   6.177  0.00  0.00    +0.270 C 
ATOM      8  N   LIG    1       -5.945   0.980   4.928  0.00  0.00    -0.470 N 
ATOM      9  C   LIG    1       -6.966   0.465   4.215  0.00  0.00    +0.580 C 
ATOM     10  O   LIG    1       -8.111   0.676   4.556  0.00  0.00    -0.510 OA
ATOM     11  N   LIG    1       -4.584   0.867   4.620  0.00  0.00    -0.220 NA
ATOM     12  C   LIG    1       -3.825   1.593   5.367  0.00  0.00    +0.140 C 
ENDROOT
BRANCH   1  18
ATOM     13  C   LIG    1       -1.932  -0.924   2.964  0.00  0.00    +0.150 A 
ATOM     14  C   LIG    1       -2.517  -1.442   1.821  0.00  0.00    -0.090 A 
ATOM     15  C   LIG    1       -3.446  -0.696   1.118  0.00  0.00    +0.050 A 
ATOM     16  C   LIG    1       -3.791   0.575   1.544  0.00  0.00    -0.040 A 
ATOM     17  C   LIG    1       -3.215   1.109   2.677  0.00  0.00    +0.100 A 
ATOM     18  C   LIG    1       -2.279   0.364   3.400  0.00  0.00    -0.100 A 
BRANCH  13  20
ATOM     19  C   LIG    1       -0.722  -2.960   3.154  0.00  0.00    +0.250 C 
ATOM     20  O   LIG    1       -1.024  -1.658   3.658  0.00  0.00    -0.310 OA
ENDBRANCH  13  20
ENDBRANCH   1  18
BRANCH   7  21
ATOM     21  C   LIG    1       -7.214   2.734   6.103  0.00  0.00    -0.130 A 
ATOM     22  C   LIG    1       -7.835   2.979   4.893  0.00  0.00    +0.090 A 
ATOM     23  C   LIG    1       -8.897   3.861   4.825  0.00  0.00    -0.040 A 
ATOM     24  C   LIG    1       -9.334   4.509   5.966  0.00  0.00    +0.050 A 
ATOM     25  C   LIG    1       -8.714   4.272   7.177  0.00  0.00    -0.080 A 
ATOM     26  C   LIG    1       -7.651   3.383   7.249  0.00  0.00    +0.140 A 
BRANCH  26  27
ATOM     27  O   LIG    1       -7.040   3.148   8.439  0.00  0.00    -0.310 OA
ATOM     28  C   LIG    1       -7.542   3.851   9.577  0.00  0.00    +0.250 C 
ENDBRANCH  26  27
ENDBRANCH   7  21
BRANCH   9  29
ATOM     29  C   LIG    1       -6.687  -0.373   2.994  0.00  0.00    -0.060 C 
ATOM     30  C   LIG    1       -7.530  -0.106   1.746  0.00  0.00    +0.050 C 
ATOM     31  C   LIG    1       -7.759  -1.377   2.566  0.00  0.00    +0.050 C 
ENDBRANCH   9  29
TORSDOF 5
