REMARK  Name = ZINCvU0000000HWg.0
REMARK                            x       y       z     vdW  Elec       q    Type
REMARK                         _______ _______ _______ _____ _____    ______ ____
ROOT
ATOM      1  N   LIG    1        0.002  -0.004   0.002  0.00  0.00    -0.620 N 
ATOM      2  H   LIG    1        0.846  -0.477  -0.071  0.00  0.00    +0.410 HD
ENDROOT
BRANCH   1   3
ATOM      3  C   LIG    1       -0.018   1.392  -0.006  0.00  0.00    +0.130 A 
ATOM      4  C   LIG    1       -0.944   2.067  -0.795  0.00  0.00    +0.080 A 
ATOM      5  C   LIG    1       -0.970   3.445  -0.801  0.00  0.00    +0.030 A 
ATOM      6  C   LIG    1       -0.058   4.162  -0.024  0.00  0.00    -0.020 A 
ATOM      7  C   LIG    1        0.873   3.481   0.762  0.00  0.00    +0.080 A 
ATOM      8  C   LIG    1        0.890   2.104   0.769  0.00  0.00    +0.010 A 
BRANCH   6   9
ATOM      9  C   LIG    1       -0.079   5.640  -0.034  0.00  0.00    +0.330 A 
ATOM     10  N   LIG    1        0.725   6.410   0.658  0.00  0.00    -0.480 NA
ATOM     11  C   LIG    1        0.433   7.711   0.412  0.00  0.00    +0.050 A 
ATOM     12  C   LIG    1        0.968   8.918   0.873  0.00  0.00    +0.070 A 
ATOM     13  C   LIG    1        0.440  10.111   0.433  0.00  0.00    +0.000 A 
ATOM     14  C   LIG    1       -0.618  10.126  -0.464  0.00  0.00    +0.030 A 
ATOM     15  C   LIG    1       -1.156   8.944  -0.930  0.00  0.00    +0.010 A 
ATOM     16  C   LIG    1       -0.639   7.732  -0.497  0.00  0.00    +0.050 A 
ATOM     17  N   LIG    1       -0.944   6.411  -0.764  0.00  0.00    -0.600 N 
ATOM     18  H   LIG    1       -1.641   6.089  -1.357  0.00  0.00    +0.420 HD
ENDBRANCH   6   9
ENDBRANCH   1   3
BRANCH   1  19
ATOM     19  C   LIG    1       -1.150  -0.694   0.111  0.00  0.00    +0.510 C 
ATOM     20  S   LIG    1       -2.647   0.137   0.130  0.00  0.00    -0.490 S 
BRANCH  19  23
ATOM     21  O   LIG    1       -3.337  -2.140   0.328  0.00  0.00    -0.400 OA
ATOM     22  C   LIG    1       -2.277  -2.729   0.314  0.00  0.00    +0.500 C 
ATOM     23  N   LIG    1       -1.125  -2.038   0.205  0.00  0.00    -0.640 N 
ATOM     24  H   LIG    1       -0.277  -2.509   0.194  0.00  0.00    +0.410 HD
BRANCH  22  25
ATOM     25  C   LIG    1       -2.248  -4.232   0.419  0.00  0.00    -0.060 C 
ATOM     26  C   LIG    1       -1.583  -4.817  -0.828  0.00  0.00    +0.030 C 
ATOM     27  C   LIG    1       -1.554  -6.343  -0.721  0.00  0.00    +0.000 C 
ATOM     28  C   LIG    1       -0.759  -6.753   0.521  0.00  0.00    +0.020 C 
ATOM     29  C   LIG    1       -1.424  -6.167   1.768  0.00  0.00    +0.000 C 
ATOM     30  C   LIG    1       -2.855  -6.698   1.880  0.00  0.00    +0.030 C 
ATOM     31  C   LIG    1       -3.649  -6.289   0.638  0.00  0.00    -0.010 C 
ATOM     32  C   LIG    1       -2.984  -6.875  -0.609  0.00  0.00    +0.030 C 
ATOM     33  C   LIG    1       -1.453  -4.641   1.661  0.00  0.00    +0.030 C 
ATOM     34  C   LIG    1       -3.679  -4.763   0.532  0.00  0.00    +0.050 C 
ENDBRANCH  22  25
ENDBRANCH  19  23
ENDBRANCH   1  19
TORSDOF 5
