REMARK  Name = ZINC650000003WlD.0
REMARK                            x       y       z     vdW  Elec       q    Type
REMARK                         _______ _______ _______ _____ _____    ______ ____
ROOT
ATOM      1  C   LIG    1        2.422   1.183  -0.015  0.00  0.00    +0.290 C 
ATOM      2  N   LIG    1        1.143   1.898   0.001  0.00  0.00    -0.730 N 
ATOM      3  H   LIG    1        1.130   2.868   0.007  0.00  0.00    +0.400 HD
ATOM      4  C   LIG    1       -0.014   1.209   0.009  0.00  0.00    +0.530 C 
ATOM      5  O   LIG    1        0.002  -0.004   0.002  0.00  0.00    -0.510 OA
ENDROOT
BRANCH   4   6
ATOM      6  C   LIG    1       -1.330   1.944   0.019  0.00  0.00    +0.110 C 
BRANCH   6   7
ATOM      7  S   LIG    1       -2.692   0.747   0.019  0.00  0.00    -0.170 S 
ATOM      8  H   LIG    1       -3.784   1.532   0.028  0.00  0.00    +0.070 HD
ENDBRANCH   6   7
ENDBRANCH   4   6
TORSDOF 2
