REMARK  Name = ZINCrD00000F5LtB.0
REMARK                            x       y       z     vdW  Elec       q    Type
REMARK                         _______ _______ _______ _____ _____    ______ ____
ROOT
ATOM      1  C   LIG    1        1.680   3.091   0.003  0.00  0.00    +0.240 C 
ATOM      2  C   LIG    1        1.264   1.765   0.024  0.00  0.00    -0.090 C 
ATOM      3  N   LIG    1        0.000   1.295  -0.173  0.00  0.00    -0.450 NA
ATOM      4  C   LIG    1        0.009  -0.007  -0.075  0.00  0.00    +0.340 C 
ATOM      5  O   LIG    1        1.246  -0.472   0.186  0.00  0.00    -0.290 OA
ATOM      6  C   LIG    1        2.094   0.577   0.264  0.00  0.00    +0.470 C 
ATOM      7  O   LIG    1        3.291   0.544   0.486  0.00  0.00    -0.410 OA
ENDROOT
BRANCH   1  13
ATOM      8  C   LIG    1        8.005   3.876  -0.276  0.00  0.00    +0.180 A 
ATOM      9  C   LIG    1        7.580   3.331  -1.484  0.00  0.00    -0.100 A 
ATOM     10  C   LIG    1        6.267   2.999  -1.671  0.00  0.00    +0.110 A 
ATOM     11  C   LIG    1        5.347   3.209  -0.640  0.00  0.00    -0.180 A 
ATOM     12  C   LIG    1        3.930   2.868  -0.798  0.00  0.00    +0.140 C 
ATOM     13  C   LIG    1        3.043   3.398   0.096  0.00  0.00    -0.210 C 
ATOM     14  C   LIG    1        3.539   4.320   1.180  0.00  0.00    +0.320 C 
ATOM     15  O   LIG    1        4.865   3.955   1.573  0.00  0.00    -0.300 OA
ATOM     16  C   LIG    1        5.773   3.760   0.585  0.00  0.00    +0.190 A 
ATOM     17  C   LIG    1        7.102   4.091   0.758  0.00  0.00    -0.030 A 
BRANCH   8  19
ATOM     18  C   LIG    1       10.189   3.955  -1.208  0.00  0.00    +0.240 C 
ATOM     19  O   LIG    1        9.312   4.201  -0.107  0.00  0.00    -0.310 OA
ENDBRANCH   8  19
ENDBRANCH   1  13
BRANCH   4  20
ATOM     20  C   LIG    1       -1.183  -0.860  -0.231  0.00  0.00    -0.080 A 
ATOM     21  C   LIG    1       -1.075  -2.248  -0.114  0.00  0.00    +0.100 A 
ATOM     22  C   LIG    1       -2.195  -3.039  -0.256  0.00  0.00    -0.020 A 
ATOM     23  C   LIG    1       -3.426  -2.466  -0.524  0.00  0.00    +0.080 A 
ATOM     24  C   LIG    1       -3.546  -1.094  -0.647  0.00  0.00    -0.080 A 
ATOM     25  C   LIG    1       -2.432  -0.283  -0.503  0.00  0.00    +0.190 A 
BRANCH  25  26
ATOM     26  O   LIG    1       -2.549   1.064  -0.624  0.00  0.00    -0.280 OA
ATOM     27  C   LIG    1       -3.853   1.579  -0.901  0.00  0.00    +0.240 C 
ENDBRANCH  25  26
ENDBRANCH   4  20
TORSDOF 4
