REMARK  Name = ZINCvU00000009j0.0
REMARK                            x       y       z     vdW  Elec       q    Type
REMARK                         _______ _______ _______ _____ _____    ______ ____
ROOT
ATOM      1  C   LIG    1       -3.332   5.018   9.656  0.00  0.00    +0.130 C 
ENDROOT
BRANCH   1   2
ATOM      2  C   LIG    1       -3.700   5.612  10.991  0.00  0.00    +0.530 C 
ATOM      3  N   LIG    1       -4.984   5.927  11.257  0.00  0.00    -0.620 N 
ATOM      4  H   LIG    1       -5.670   5.770  10.590  0.00  0.00    +0.420 HD
ATOM      5  O   LIG    1       -2.842   5.808  11.825  0.00  0.00    -0.480 OA
BRANCH   3   6
ATOM      6  C   LIG    1       -5.323   6.474  12.487  0.00  0.00    +0.050 A 
ATOM      7  C   LIG    1       -6.589   6.832  12.855  0.00  0.00    -0.100 A 
ATOM      8  C   LIG    1       -6.666   7.376  14.198  0.00  0.00    -0.040 A 
ATOM      9  C   LIG    1       -5.471   7.424  14.798  0.00  0.00    -0.240 A 
ATOM     10  C   LIG    1       -5.239   7.950  16.202  0.00  0.00    +0.120 C 
ATOM     11  C   LIG    1       -6.460   8.770  16.627  0.00  0.00    -0.010 C 
ATOM     12  C   LIG    1       -7.728   7.952  16.364  0.00  0.00    +0.030 C 
ATOM     13  C   LIG    1       -6.362   9.099  18.118  0.00  0.00    +0.030 C 
ATOM     14  C   LIG    1       -7.954   7.847  14.854  0.00  0.00    +0.100 C 
ATOM     15  S   LIG    1       -4.217   6.798  13.740  0.00  0.00    +0.330 S 
BRANCH   7  16
ATOM     16  C   LIG    1       -7.728   6.681  12.001  0.00  0.00    +0.270 C 
ATOM     17  N   LIG    1       -8.632   6.561  11.323  0.00  0.00    -0.420 NA
ENDBRANCH   7  16
ENDBRANCH   3   6
ENDBRANCH   1   2
BRANCH   1  18
ATOM     18  S   LIG    1       -1.546   4.708   9.604  0.00  0.00    +0.110 S 
BRANCH  18  22
ATOM     19  C   LIG    1       -0.560   3.037   5.828  0.00  0.00    +0.300 A 
ATOM     20  N   LIG    1       -1.828   3.286   5.922  0.00  0.00    -0.330 NA
ATOM     21  N   LIG    1       -2.242   3.826   7.120  0.00  0.00    -0.260 NA
ATOM     22  C   LIG    1       -1.308   4.026   7.997  0.00  0.00    -0.010 A 
ATOM     23  S   LIG    1        0.235   3.508   7.326  0.00  0.00    +0.100 S 
BRANCH  19  24
ATOM     24  N   LIG    1        0.074   2.490   4.717  0.00  0.00    -0.620 N 
ATOM     25  H   LIG    1        1.014   2.257   4.761  0.00  0.00    +0.430 HD
BRANCH  24  30
ATOM     26  C   LIG    1       -2.849   1.615  -0.063  0.00  0.00    +0.090 C 
ATOM     27  C   LIG    1       -2.070   1.849   1.206  0.00  0.00    -0.100 A 
ATOM     28  C   LIG    1       -1.000   1.031   1.520  0.00  0.00    +0.040 A 
ATOM     29  C   LIG    1       -0.288   1.240   2.684  0.00  0.00    -0.020 A 
ATOM     30  C   LIG    1       -0.645   2.276   3.538  0.00  0.00    +0.150 A 
ATOM     31  C   LIG    1       -1.717   3.099   3.217  0.00  0.00    +0.020 A 
ATOM     32  C   LIG    1       -2.425   2.885   2.051  0.00  0.00    -0.060 A 
ATOM     33  C   LIG    1       -3.588   3.777   1.702  0.00  0.00    +0.090 C 
ENDBRANCH  24  30
ENDBRANCH  19  24
ENDBRANCH  18  22
ENDBRANCH   1  18
TORSDOF 7
