REMARK  Name = ZINCAx0000000eyL.0
REMARK                            x       y       z     vdW  Elec       q    Type
REMARK                         _______ _______ _______ _____ _____    ______ ____
ROOT
ATOM      1  N   LIG    1       -2.367   3.811   0.229  0.00  0.00    -0.530 N 
ATOM      2  C   LIG    1       -2.358   5.160   0.195  0.00  0.00    +0.530 C 
ATOM      3  O   LIG    1       -1.324   5.754  -0.030  0.00  0.00    -0.510 OA
ENDROOT
BRANCH   1   9
ATOM      4  N   LIG    1        0.273   1.605  -1.062  0.00  0.00    -0.540 N 
ATOM      5  C   LIG    1        1.191   1.715  -0.085  0.00  0.00    +0.710 A 
ATOM      6  N   LIG    1        0.975   2.493   0.990  0.00  0.00    -0.660 N 
ATOM      7  H   LIG    1        1.653   2.555   1.681  0.00  0.00    +0.430 HD
ATOM      8  C   LIG    1       -0.176   3.182   1.122  0.00  0.00    +0.570 A 
ATOM      9  C   LIG    1       -1.156   3.094   0.116  0.00  0.00    -0.140 A 
ATOM     10  O   LIG    1       -0.364   3.880   2.104  0.00  0.00    -0.510 OA
ATOM     11  O   LIG    1        2.237   1.101  -0.177  0.00  0.00    -0.530 OA
ATOM     12  C   LIG    1       -0.916   2.291  -0.980  0.00  0.00    +0.480 A 
BRANCH  12  13
ATOM     13  N   LIG    1       -1.854   2.178  -1.978  0.00  0.00    -0.830 N 
ATOM     14  H   LIG    1       -2.718   2.609  -1.883  0.00  0.00    +0.420 HD
ATOM     15  H   LIG    1       -1.653   1.668  -2.778  0.00  0.00    +0.410 HD
ENDBRANCH  12  13
BRANCH   4  16
ATOM     16  C   LIG    1        0.541   0.749  -2.221  0.00  0.00    +0.300 C 
BRANCH  16  17
ATOM     17  C   LIG    1        0.037  -0.667  -1.936  0.00  0.00    +0.010 C 
BRANCH  17  19
ATOM     18  C   LIG    1       -0.188  -2.977  -2.861  0.00  0.00    +0.020 C 
ATOM     19  C   LIG    1        0.317  -1.561  -3.146  0.00  0.00    +0.020 C 
ENDBRANCH  17  19
ENDBRANCH  16  17
ENDBRANCH   4  16
ENDBRANCH   1   9
BRANCH   2  20
ATOM     20  C   LIG    1       -3.632   5.928   0.436  0.00  0.00    +0.050 C 
BRANCH  20  21
ATOM     21  C   LIG    1       -3.348   7.428   0.342  0.00  0.00    +0.300 C 
BRANCH  21  22
ATOM     22  N   LIG    1       -4.587   8.175   0.576  0.00  0.00    -0.750 N 
ATOM     23  H   LIG    1       -5.413   7.700   0.756  0.00  0.00    +0.390 HD
ATOM     24  C   LIG    1       -4.578   9.522   0.541  0.00  0.00    +0.710 C 
ATOM     25  N   LIG    1       -5.717  10.209   0.757  0.00  0.00    -0.740 N 
ATOM     26  H   LIG    1       -6.543   9.734   0.937  0.00  0.00    +0.390 HD
ATOM     27  O   LIG    1       -3.542  10.118   0.316  0.00  0.00    -0.580 OA
BRANCH  25  28
ATOM     28  C   LIG    1       -5.708  11.674   0.720  0.00  0.00    +0.200 C 
ATOM     29  C   LIG    1       -4.748  12.205   1.786  0.00  0.00    +0.030 C 
ATOM     30  C   LIG    1       -4.738  13.735   1.747  0.00  0.00    -0.010 C 
ATOM     31  C   LIG    1       -4.278  14.207   0.366  0.00  0.00    +0.020 C 
ATOM     32  C   LIG    1       -5.237  13.675  -0.700  0.00  0.00    -0.010 C 
ATOM     33  C   LIG    1       -6.647  14.201  -0.425  0.00  0.00    +0.010 C 
ATOM     34  C   LIG    1       -7.108  13.730   0.955  0.00  0.00    -0.010 C 
ATOM     35  C   LIG    1       -6.148  14.261   2.022  0.00  0.00    +0.010 C 
ATOM     36  C   LIG    1       -5.247  12.146  -0.661  0.00  0.00    +0.030 C 
ATOM     37  C   LIG    1       -7.118  12.200   0.995  0.00  0.00    +0.030 C 
ENDBRANCH  25  28
ENDBRANCH  21  22
ENDBRANCH  20  21
ENDBRANCH   2  20
BRANCH   1  38
ATOM     38  C   LIG    1       -3.633   3.090   0.385  0.00  0.00    +0.270 C 
BRANCH  38  39
ATOM     39  C   LIG    1       -3.860   2.772   1.864  0.00  0.00    +0.000 C 
BRANCH  39  40
ATOM     40  C   LIG    1       -5.183   2.020   2.026  0.00  0.00    +0.000 C 
ATOM     41  C   LIG    1       -5.410   1.702   3.505  0.00  0.00    +0.020 C 
ENDBRANCH  39  40
ENDBRANCH  38  39
ENDBRANCH   1  38
TORSDOF 12
