REMARK  Name = ZINCrD000000Al0W.0
REMARK                            x       y       z     vdW  Elec       q    Type
REMARK                         _______ _______ _______ _____ _____    ______ ____
ROOT
ATOM      1  O   LIG    1       -1.996   5.640  -1.281  0.00  0.00    -0.490 OA
ATOM      2  C   LIG    1       -1.706   5.779  -2.451  0.00  0.00    +0.500 C 
ATOM      3  N   LIG    1       -1.730   7.004  -3.010  0.00  0.00    -0.620 N 
ATOM      4  H   LIG    1       -1.499   7.115  -3.946  0.00  0.00    +0.430 HD
ENDROOT
BRANCH   3   5
ATOM      5  C   LIG    1       -2.087   8.110  -2.248  0.00  0.00    +0.270 A 
ATOM      6  N   LIG    1       -2.140   9.332  -2.677  0.00  0.00    -0.470 NA
ATOM      7  C   LIG    1       -2.506  10.261  -1.806  0.00  0.00    +0.120 A 
ATOM      8  C   LIG    1       -2.771   9.816  -0.565  0.00  0.00    -0.100 A 
ATOM      9  S   LIG    1       -2.531   8.070  -0.544  0.00  0.00    +0.200 S 
BRANCH   7  10
ATOM     10  C   LIG    1       -2.611  11.694  -2.173  0.00  0.00    -0.020 A 
ATOM     11  C   LIG    1       -3.001  12.633  -1.220  0.00  0.00    +0.040 A 
ATOM     12  C   LIG    1       -3.092  13.967  -1.566  0.00  0.00    +0.010 A 
ATOM     13  C   LIG    1       -2.808  14.370  -2.858  0.00  0.00    +0.030 A 
ATOM     14  C   LIG    1       -2.426  13.443  -3.810  0.00  0.00    +0.020 A 
ATOM     15  C   LIG    1       -2.326  12.107  -3.475  0.00  0.00    -0.010 A 
ATOM     16 CL   LIG    1       -1.846  10.943  -4.671  0.00  0.00    -0.040 Cl
ENDBRANCH   7  10
ENDBRANCH   3   5
BRANCH   2  17
ATOM     17  C   LIG    1       -1.320   4.580  -3.278  0.00  0.00    +0.360 C 
BRANCH  17  18
ATOM     18  N   LIG    1       -1.370   3.375  -2.446  0.00  0.00    -0.570 N 
ATOM     19  C   LIG    1       -0.322   2.927  -1.732  0.00  0.00    +0.540 C 
ATOM     20  C   LIG    1       -0.695   1.561  -1.232  0.00  0.00    +0.000 C 
ATOM     21  C   LIG    1       -0.013   1.086   0.008  0.00  0.00    +0.110 C 
ATOM     22  C   LIG    1       -0.672   1.548   1.269  0.00  0.00    -0.030 C 
ATOM     23  C   LIG    1       -1.834   2.106   1.300  0.00  0.00    -0.040 C 
ATOM     24  C   LIG    1       -2.662   2.414   0.101  0.00  0.00    +0.090 C 
ATOM     25  C   LIG    1       -2.228   1.646  -1.150  0.00  0.00    +0.040 C 
ATOM     26  O   LIG    1        0.722   3.512  -1.540  0.00  0.00    -0.460 OA
ATOM     27  C   LIG    1       -2.477   2.619  -2.315  0.00  0.00    +0.530 C 
ATOM     28  O   LIG    1       -3.482   2.692  -2.988  0.00  0.00    -0.460 OA
ENDBRANCH  17  18
ENDBRANCH   2  17
TORSDOF 4
