REMARK  Name = ZINCqH00000088yE.0
REMARK                            x       y       z     vdW  Elec       q    Type
REMARK                         _______ _______ _______ _____ _____    ______ ____
ROOT
ATOM      1  N   LIG    1        3.852   5.838   0.825  0.00  0.00    -0.700 N 
ATOM      2  H   LIG    1        4.302   5.776  -0.032  0.00  0.00    +0.410 HD
ENDROOT
BRANCH   1   9
ATOM      3  C   LIG    1        7.636   9.029   1.168  0.00  0.00    +0.320 A 
ATOM      4  N   LIG    1        7.016   9.106   2.333  0.00  0.00    -0.500 NA
ATOM      5  C   LIG    1        5.936   8.357   2.566  0.00  0.00    +0.240 A 
ATOM      6  C   LIG    1        5.232   8.392   3.781  0.00  0.00    -0.080 A 
ATOM      7  C   LIG    1        4.139   7.592   3.930  0.00  0.00    +0.350 A 
ATOM      8  N   LIG    1        3.721   6.785   2.966  0.00  0.00    -0.560 NA
ATOM      9  C   LIG    1        4.330   6.697   1.796  0.00  0.00    +0.480 A 
ATOM     10  C   LIG    1        5.475   7.481   1.548  0.00  0.00    -0.270 A 
ATOM     11  C   LIG    1        6.170   7.447   0.331  0.00  0.00    +0.410 A 
ATOM     12  N   LIG    1        7.226   8.222   0.190  0.00  0.00    -0.540 NA
BRANCH   3  14
ATOM     13  C   LIG    1        9.476   9.537  -0.792  0.00  0.00    +0.140 C 
ATOM     14  S   LIG    1        9.058  10.032   0.897  0.00  0.00    +0.020 S 
ENDBRANCH   3  14
ENDBRANCH   1   9
BRANCH   1  15
ATOM     15  C   LIG    1        2.665   5.021   1.090  0.00  0.00    +0.310 C 
BRANCH  15  16
ATOM     16  C   LIG    1        2.426   4.072  -0.086  0.00  0.00    +0.180 C 
BRANCH  16  17
ATOM     17  C   LIG    1        3.583   3.112  -0.200  0.00  0.00    -0.160 A 
ATOM     18  C   LIG    1        4.522   3.276  -1.204  0.00  0.00    +0.120 A 
ATOM     19  C   LIG    1        5.584   2.393  -1.308  0.00  0.00    -0.020 A 
ATOM     20  C   LIG    1        5.702   1.345  -0.414  0.00  0.00    +0.090 A 
ATOM     21  C   LIG    1        4.768   1.185   0.592  0.00  0.00    -0.020 A 
ATOM     22  F   LIG    1        4.404   4.296  -2.081  0.00  0.00    -0.130 F 
ATOM     23  C   LIG    1        3.705   2.066   0.698  0.00  0.00    +0.160 A 
ATOM     24  F   LIG    1        2.789   1.906   1.678  0.00  0.00    -0.110 F 
ENDBRANCH  16  17
BRANCH  16  25
ATOM     25  N   LIG    1        1.185   3.319   0.136  0.00  0.00    -0.530 NA
ATOM     26  C   LIG    1        0.893   2.437  -1.002  0.00  0.00    +0.200 C 
ATOM     27  C   LIG    1        0.060   4.225   0.402  0.00  0.00    +0.210 C 
ENDBRANCH  16  25
ENDBRANCH  15  16
ENDBRANCH   1  15
TORSDOF 6
