REMARK  Name = ZINCrH000004sfhW.0
REMARK                            x       y       z     vdW  Elec       q    Type
REMARK                         _______ _______ _______ _____ _____    ______ ____
ROOT
ATOM      1  C   LIG    1       -1.712   5.640  -1.292  0.00  0.00    +0.070 A 
ATOM      2  N   LIG    1       -2.940   5.488  -1.715  0.00  0.00    -0.270 NA
ATOM      3  N   LIG    1       -3.067   6.139  -2.949  0.00  0.00    -0.480 N 
ATOM      4  H   LIG    1       -3.871   6.189  -3.489  0.00  0.00    +0.440 HD
ATOM      5  C   LIG    1       -1.862   6.684  -3.258  0.00  0.00    +0.250 A 
ATOM      6  C   LIG    1       -1.006   6.388  -2.246  0.00  0.00    -0.010 A 
ENDROOT
BRANCH   1  11
ATOM      7  N   LIG    1       -0.749   3.048   1.275  0.00  0.00    -0.510 NA
ATOM      8  C   LIG    1       -1.511   3.558   2.422  0.00  0.00    +0.170 C 
ATOM      9  C   LIG    1       -1.389   5.082   2.481  0.00  0.00    +0.030 C 
ATOM     10  C   LIG    1       -1.927   5.683   1.179  0.00  0.00    +0.030 C 
ATOM     11  C   LIG    1       -1.149   5.099  -0.003  0.00  0.00    +0.090 C 
ATOM     12  C   LIG    1       -1.278   3.574   0.010  0.00  0.00    +0.210 C 
BRANCH   7  13
ATOM     13  C   LIG    1       -0.729   1.579   1.267  0.00  0.00    +0.290 C 
ATOM     14  C   LIG    1       -0.013   1.086   0.008  0.00  0.00    +0.070 C 
BRANCH  13  19
ATOM     15  C   LIG    1       -4.835  -1.118   2.391  0.00  0.00    +0.180 C 
ATOM     16  C   LIG    1       -3.908  -0.107   1.766  0.00  0.00    -0.050 A 
ATOM     17  C   LIG    1       -4.229   0.795   0.824  0.00  0.00    +0.140 A 
ATOM     18  N   LIG    1       -3.122   1.505   0.544  0.00  0.00    -0.470 NA
ATOM     19  C   LIG    1       -2.143   1.058   1.278  0.00  0.00    +0.160 A 
ATOM     20  O   LIG    1       -2.601   0.061   2.047  0.00  0.00    -0.200 OA
ENDBRANCH  13  19
ENDBRANCH   7  13
ENDBRANCH   1  11
BRANCH   6  21
ATOM     21  N   LIG    1        0.348   6.765  -2.168  0.00  0.00    -0.640 N 
ATOM     22  H   LIG    1        0.880   6.504  -1.401  0.00  0.00    +0.410 HD
ATOM     23  C   LIG    1        0.904   7.488  -3.160  0.00  0.00    +0.520 C 
ATOM     24  O   LIG    1        0.238   7.814  -4.120  0.00  0.00    -0.530 OA
BRANCH  23  25
ATOM     25  C   LIG    1        2.354   7.891  -3.077  0.00  0.00    -0.010 C 
ATOM     26  C   LIG    1        2.577   8.813  -1.861  0.00  0.00    +0.030 C 
ATOM     27  C   LIG    1        3.623   9.844  -2.352  0.00  0.00    +0.020 C 
ATOM     28  C   LIG    1        3.195  10.092  -3.820  0.00  0.00    +0.010 C 
ATOM     29  C   LIG    1        2.747   8.704  -4.323  0.00  0.00    +0.040 C 
ENDBRANCH  23  25
ENDBRANCH   6  21
TORSDOF 5
