REMARK  Name = ZINCah0000002oZ2.0
REMARK                            x       y       z     vdW  Elec       q    Type
REMARK                         _______ _______ _______ _____ _____    ______ ____
ROOT
ATOM      1  N   LIG    1       -0.020   1.094   2.454  0.00  0.00    -0.270 N 
ATOM      2  N   LIG    1       -0.260  -0.014   3.058  0.00  0.00    -0.270 NA
ATOM      3  C   LIG    1        0.539  -0.172   4.083  0.00  0.00    +0.180 A 
ATOM      4  C   LIG    1        1.372   0.946   4.156  0.00  0.00    +0.010 A 
ATOM      5  C   LIG    1        0.994   1.754   3.092  0.00  0.00    -0.100 A 
ENDROOT
BRANCH   5   6
ATOM      6  C   LIG    1        1.566   3.050   2.727  0.00  0.00    +0.520 C 
ATOM      7  O   LIG    1        2.469   3.522   3.386  0.00  0.00    -0.440 OA
ENDBRANCH   5   6
BRANCH   1   8
ATOM      8  C   LIG    1       -0.729   1.579   1.267  0.00  0.00    +0.320 C 
BRANCH   8  10
ATOM      9  C   LIG    1       -0.753   1.593  -1.232  0.00  0.00    +0.040 C 
ATOM     10  C   LIG    1       -0.013   1.086   0.008  0.00  0.00    +0.010 C 
ENDBRANCH   8  10
ENDBRANCH   1   8
TORSDOF 3
