REMARK  Name = ZINCvU0000000D9M.0
REMARK                            x       y       z     vdW  Elec       q    Type
REMARK                         _______ _______ _______ _____ _____    ______ ____
ROOT
ATOM      1  C   LIG    1        2.527   2.916  -4.293  0.00  0.00    +0.150 A 
ATOM      2  C   LIG    1        1.734   3.874  -3.669  0.00  0.00    -0.020 A 
ATOM      3  C   LIG    1        1.366   3.686  -2.349  0.00  0.00    +0.200 A 
ATOM      4  C   LIG    1        1.804   2.543  -1.694  0.00  0.00    -0.750 A 
ATOM      5  C   LIG    1        2.594   1.636  -2.373  0.00  0.00    +0.400 A 
ATOM      6  N   LIG    1        2.926   1.838  -3.634  0.00  0.00    -0.500 NA
ENDROOT
BRANCH   4   7
ATOM      7  S   LIG    1        1.364   2.256  -0.013  0.00  0.00    +2.700 S 
ATOM      8  O   LIG    1        2.351   1.382   0.517  0.00  0.00    -0.950 OA
ATOM      9  O   LIG    1        1.071   3.529   0.548  0.00  0.00    -0.950 OA
BRANCH   7  10
ATOM     10  N   LIG    1       -0.059   1.408  -0.016  0.00  0.00    -0.990 NA
ATOM     11  C   LIG    1       -1.337   2.123  -0.008  0.00  0.00    +0.300 C 
BRANCH  10  12
ATOM     12  C   LIG    1       -0.038  -0.057  -0.033  0.00  0.00    +0.250 C 
ATOM     13  C   LIG    1       -0.758  -0.562  -1.285  0.00  0.00    +0.000 C 
ATOM     14  C   LIG    1       -0.736  -2.092  -1.303  0.00  0.00    +0.020 C 
ATOM     15  C   LIG    1       -1.445  -2.626  -0.057  0.00  0.00    +0.000 C 
ATOM     16  C   LIG    1       -0.725  -2.121   1.195  0.00  0.00    +0.020 C 
ATOM     17  C   LIG    1       -0.747  -0.591   1.213  0.00  0.00    +0.020 C 
ENDBRANCH  10  12
ENDBRANCH   7  10
ENDBRANCH   4   7
BRANCH   1  18
ATOM     18  S   LIG    1        3.006   3.138  -5.974  0.00  0.00    +0.030 S 
BRANCH  18  19
ATOM     19  C   LIG    1        4.003   1.661  -6.313  0.00  0.00    +0.020 C 
ATOM     20  C   LIG    1        3.116   0.417  -6.228  0.00  0.00    +0.090 C 
BRANCH  19  23
ATOM     21  N   LIG    1        5.669   1.015  -8.024  0.00  0.00    -0.660 N 
ATOM     22  H   LIG    1        6.109   0.474  -7.349  0.00  0.00    +0.420 HD
ATOM     23  C   LIG    1        4.596   1.762  -7.695  0.00  0.00    +0.540 C 
ATOM     24  O   LIG    1        4.107   2.514  -8.511  0.00  0.00    -0.500 OA
BRANCH  21  32
ATOM     25  C   LIG    1        8.409   0.380  -8.456  0.00  0.00    +0.110 C 
ATOM     26  C   LIG    1        7.480   0.717  -9.594  0.00  0.00    -0.110 A 
ATOM     27  C   LIG    1        7.950   0.719 -10.894  0.00  0.00    -0.020 A 
ATOM     28  C   LIG    1        7.098   1.034 -11.938  0.00  0.00    +0.020 A 
ATOM     29  C   LIG    1        5.774   1.342 -11.685  0.00  0.00    +0.050 A 
ATOM     30  C   LIG    1        5.297   1.337 -10.388  0.00  0.00    +0.030 A 
ATOM     31 CL   LIG    1        9.611   0.334 -11.216  0.00  0.00    -0.060 Cl
ATOM     32  C   LIG    1        6.149   1.021  -9.338  0.00  0.00    +0.160 A 
ENDBRANCH  21  32
ENDBRANCH  19  23
ENDBRANCH  18  19
ENDBRANCH   1  18
TORSDOF 7
