REMARK  Name = ZINCpk000000ooZT.0
REMARK                            x       y       z     vdW  Elec       q    Type
REMARK                         _______ _______ _______ _____ _____    ______ ____
ROOT
ATOM      1  C   LIG    1       -2.467   1.247   1.796  0.00  0.00    +0.520 C 
ATOM      2  N   LIG    1       -3.790   1.301   2.049  0.00  0.00    -0.650 N 
ATOM      3  H   LIG    1       -4.154   2.031   2.573  0.00  0.00    +0.420 HD
ATOM      4  O   LIG    1       -1.998   0.288   1.221  0.00  0.00    -0.520 OA
ENDROOT
BRANCH   2   5
ATOM      5  C   LIG    1       -4.639   0.302   1.555  0.00  0.00    +0.080 A 
ATOM      6  C   LIG    1       -4.360  -0.324   0.342  0.00  0.00    +0.110 A 
ATOM      7  C   LIG    1       -5.226  -1.305  -0.107  0.00  0.00    +0.010 A 
ATOM      8  C   LIG    1       -6.337  -1.631   0.661  0.00  0.00    +0.360 A 
ATOM      9  N   LIG    1       -6.571  -1.016   1.808  0.00  0.00    -0.490 NA
ATOM     10  C   LIG    1       -5.764  -0.081   2.271  0.00  0.00    +0.290 A 
BRANCH   8  11
ATOM     11  N   LIG    1       -7.219  -2.622   0.215  0.00  0.00    -0.330 N 
ATOM     12  C   LIG    1       -8.339  -3.044   0.857  0.00  0.00    +0.260 A 
ATOM     13  C   LIG    1       -8.907  -4.009   0.098  0.00  0.00    -0.100 A 
ATOM     14  C   LIG    1       -8.113  -4.185  -1.042  0.00  0.00    +0.260 A 
ATOM     15  N   LIG    1       -7.107  -3.352  -0.976  0.00  0.00    -0.290 NA
ENDBRANCH   8  11
ENDBRANCH   2   5
BRANCH   1  20
ATOM     16  N   LIG    1       -0.409   2.485   1.327  0.00  0.00    -1.000 NA
ATOM     17  C   LIG    1        0.770   2.859   2.121  0.00  0.00    +0.260 C 
ATOM     18  C   LIG    1        0.318   2.959   3.593  0.00  0.00    +0.040 C 
ATOM     19  C   LIG    1       -0.963   2.084   3.623  0.00  0.00    +0.060 C 
ATOM     20  C   LIG    1       -1.571   2.380   2.227  0.00  0.00    +0.250 C 
BRANCH  16  21
ATOM     21  S   LIG    1       -0.429   2.232  -0.310  0.00  0.00    +2.620 S 
ATOM     22  O   LIG    1       -1.808   2.259  -0.651  0.00  0.00    -0.950 OA
ATOM     23  O   LIG    1        0.473   3.201  -0.826  0.00  0.00    -0.950 OA
BRANCH  21  24
ATOM     24  C   LIG    1        0.245   0.561  -0.517  0.00  0.00    -0.340 C 
BRANCH  24  26
ATOM     25  C   LIG    1        1.009  -1.139  -2.182  0.00  0.00    +0.040 C 
ATOM     26  C   LIG    1        0.440   0.271  -2.007  0.00  0.00    +0.040 C 
ENDBRANCH  24  26
ENDBRANCH  21  24
ENDBRANCH  16  21
ENDBRANCH   1  20
TORSDOF 6
