REMARK  Name = ZINCrg00001JduVK.1
REMARK                            x       y       z     vdW  Elec       q    Type
REMARK                         _______ _______ _______ _____ _____    ______ ____
ROOT
ATOM      1  C   LIG    1        1.207   6.103  -2.814  0.00  0.00    +0.390 C 
ENDROOT
BRANCH   1   2
ATOM      2  C   LIG    1       -0.221   6.264  -3.269  0.00  0.00    -0.070 A 
ATOM      3  C   LIG    1       -0.832   5.591  -4.272  0.00  0.00    +0.180 A 
ATOM      4  N   LIG    1       -2.100   6.060  -4.323  0.00  0.00    -0.390 N 
ATOM      5  H   LIG    1       -2.789   5.771  -4.942  0.00  0.00    +0.450 HD
ATOM      6  N   LIG    1       -2.236   6.955  -3.408  0.00  0.00    -0.070 NA
ATOM      7  N   LIG    1       -1.135   7.096  -2.758  0.00  0.00    -0.230 NA
ENDBRANCH   1   2
BRANCH   1   8
ATOM      8  C   LIG    1        1.899   7.441  -2.847  0.00  0.00    +0.200 A 
ATOM      9  N   LIG    1        1.738   8.427  -1.998  0.00  0.00    -0.270 NA
ATOM     10  N   LIG    1        2.504   9.396  -2.363  0.00  0.00    -0.070 NA
ATOM     11  N   LIG    1        3.143   9.058  -3.428  0.00  0.00    -0.100 NA
ATOM     12  N   LIG    1        2.797   7.859  -3.758  0.00  0.00    -0.280 N 
BRANCH  12  13
ATOM     13  C   LIG    1        3.289   7.097  -4.908  0.00  0.00    +0.200 C 
ATOM     14  C   LIG    1        4.458   7.688  -5.699  0.00  0.00    +0.090 C 
ATOM     15  C   LIG    1        3.051   7.686  -6.300  0.00  0.00    +0.070 C 
ENDBRANCH  12  13
ENDBRANCH   1   8
BRANCH   1  16
ATOM     16  N   LIG    1        1.227   5.575  -1.444  0.00  0.00    -0.660 NA
ATOM     17  H   LIG    1        0.494   5.987  -0.886  0.00  0.00    +0.370 HD
BRANCH  16  18
ATOM     18  C   LIG    1        1.127   4.109  -1.442  0.00  0.00    +0.190 C 
BRANCH  18  19
ATOM     19  C   LIG    1        1.151   3.597  -0.001  0.00  0.00    +0.100 C 
BRANCH  19  24
ATOM     20  C   LIG    1        0.009  -0.011  -0.089  0.00  0.00    +0.110 A 
ATOM     21  C   LIG    1        1.220  -0.680  -0.008  0.00  0.00    -0.070 A 
ATOM     22  C   LIG    1        2.401   0.034   0.076  0.00  0.00    +0.050 A 
ATOM     23  C   LIG    1        2.377   1.416   0.078  0.00  0.00    -0.010 A 
ATOM     24  C   LIG    1        1.173   2.091  -0.003  0.00  0.00    -0.060 A 
ATOM     25  C   LIG    1       -0.014   1.381  -0.087  0.00  0.00    +0.070 A 
BRANCH  20  27
ATOM     26  C   LIG    1       -1.052  -2.137  -0.170  0.00  0.00    +0.240 C 
ATOM     27  O   LIG    1       -1.153  -0.712  -0.172  0.00  0.00    -0.310 OA
ENDBRANCH  20  27
BRANCH  25  28
ATOM     28  O   LIG    1       -1.199   2.043  -0.167  0.00  0.00    -0.320 OA
ATOM     29  C   LIG    1       -1.909   2.253   1.056  0.00  0.00    +0.220 C 
ENDBRANCH  25  28
ENDBRANCH  19  24
ENDBRANCH  18  19
ENDBRANCH  16  18
ENDBRANCH   1  16
TORSDOF 9
