REMARK  Name = ZINCrg00001JduVk.0
REMARK                            x       y       z     vdW  Elec       q    Type
REMARK                         _______ _______ _______ _____ _____    ______ ____
ROOT
ATOM      1  C   LIG    1        2.820   3.331  -2.076  0.00  0.00    -0.050 C 
ATOM      2  C   LIG    1        3.251   2.191  -1.567  0.00  0.00    -0.010 C 
ATOM      3  C   LIG    1        2.764   1.731  -0.206  0.00  0.00    +0.270 C 
ATOM      4  C   LIG    1        3.561   2.562   0.834  0.00  0.00    +0.050 C 
ATOM      5  C   LIG    1        2.776   3.894   0.931  0.00  0.00    +0.030 C 
ATOM      6  C   LIG    1        1.542   3.694   0.030  0.00  0.00    +0.250 C 
ATOM      7  N   LIG    1        1.372   2.223  -0.058  0.00  0.00    -0.610 N 
ATOM      8  C   LIG    1        0.230   1.508  -0.020  0.00  0.00    +0.630 C 
ATOM      9  O   LIG    1       -0.844   2.079   0.012  0.00  0.00    -0.520 OA
ATOM     10  C   LIG    1        1.832   4.218  -1.372  0.00  0.00    +0.080 C 
ENDROOT
BRANCH   8  11
ATOM     11  C   LIG    1        0.282   0.038  -0.022  0.00  0.00    -0.300 A 
ATOM     12  C   LIG    1        0.642  -0.660   1.115  0.00  0.00    +0.230 A 
ATOM     13  C   LIG    1        1.011  -0.155   2.494  0.00  0.00    +0.130 C 
ATOM     14  C   LIG    1        0.877  -1.397   3.403  0.00  0.00    +0.070 C 
ATOM     15  C   LIG    1        1.091  -2.549   2.400  0.00  0.00    +0.310 C 
ATOM     16  N   LIG    1        0.681  -2.017   1.088  0.00  0.00    -0.530 N 
ATOM     17  C   LIG    1        0.373  -2.690  -0.041  0.00  0.00    +0.710 A 
ATOM     18  N   LIG    1        0.021  -2.073  -1.179  0.00  0.00    -0.650 N 
ATOM     19  H   LIG    1       -0.190  -2.599  -1.966  0.00  0.00    +0.440 HD
ATOM     20  O   LIG    1        0.416  -3.905  -0.026  0.00  0.00    -0.530 OA
ATOM     21  C   LIG    1       -0.042  -0.726  -1.237  0.00  0.00    +0.570 A 
ATOM     22  O   LIG    1       -0.357  -0.159  -2.266  0.00  0.00    -0.490 OA
ENDBRANCH   8  11
BRANCH   1  28
ATOM     23  C   LIG    1        2.225   6.017  -3.514  0.00  0.00    +0.350 C 
ATOM     24  N   LIG    1        3.069   4.933  -4.024  0.00  0.00    -0.370 N 
ATOM     25  N   LIG    1        3.752   4.924  -5.247  0.00  0.00    -0.290 NA
ATOM     26  C   LIG    1        4.399   3.792  -5.359  0.00  0.00    +0.240 A 
ATOM     27  C   LIG    1        4.168   3.029  -4.215  0.00  0.00    -0.110 A 
ATOM     28  C   LIG    1        3.331   3.752  -3.392  0.00  0.00    +0.110 A 
ENDBRANCH   1  28
TORSDOF 2
