REMARK  Name = ZINCvU00000008RD.1
REMARK                            x       y       z     vdW  Elec       q    Type
REMARK                         _______ _______ _______ _____ _____    ______ ____
ROOT
ATOM      1  C   LIG    1        5.600   4.549   1.845  0.00  0.00    +0.130 A 
ATOM      2  C   LIG    1        5.050   4.712   3.110  0.00  0.00    +0.110 A 
ATOM      3  C   LIG    1        3.742   4.336   3.347  0.00  0.00    +0.040 A 
ATOM      4  C   LIG    1        2.980   3.797   2.325  0.00  0.00    +0.040 A 
ATOM      5  C   LIG    1        3.526   3.634   1.064  0.00  0.00    -0.650 A 
ATOM      6 CL   LIG    1        1.337   3.325   2.627  0.00  0.00    -0.040 Cl
ATOM      7  C   LIG    1        4.834   4.003   0.823  0.00  0.00    +0.130 A 
ENDROOT
BRANCH   1   9
ATOM      8  C   LIG    1        7.442   6.003   2.230  0.00  0.00    +0.570 C 
ATOM      9  N   LIG    1        6.924   4.929   1.602  0.00  0.00    -0.670 N 
ATOM     10  H   LIG    1        7.469   4.420   0.982  0.00  0.00    +0.420 HD
ATOM     11  O   LIG    1        6.782   6.601   3.058  0.00  0.00    -0.490 OA
BRANCH   8  12
ATOM     12  C   LIG    1        8.808   6.452   1.914  0.00  0.00    -0.130 C 
ATOM     13  C   LIG    1        9.155   7.762   2.090  0.00  0.00    +0.240 C 
BRANCH  13  14
ATOM     14  C   LIG    1        8.125   8.757   2.409  0.00  0.00    -0.100 A 
ATOM     15  C   LIG    1        6.882   8.715   1.765  0.00  0.00    +0.060 A 
ATOM     16  C   LIG    1        5.918   9.651   2.075  0.00  0.00    +0.010 A 
ATOM     17  C   LIG    1        6.179  10.635   3.012  0.00  0.00    +0.040 A 
ATOM     18  C   LIG    1        7.407  10.687   3.650  0.00  0.00    +0.000 A 
ATOM     19  C   LIG    1        8.380   9.757   3.356  0.00  0.00    +0.050 A 
ENDBRANCH  13  14
BRANCH  12  21
ATOM     20  N   LIG    1       10.540   4.774   1.031  0.00  0.00    -0.390 NA
ATOM     21  C   LIG    1        9.774   5.516   1.421  0.00  0.00    +0.240 C 
ENDBRANCH  12  21
ENDBRANCH   8  12
ENDBRANCH   1   9
BRANCH   5  22
ATOM     22  S   LIG    1        2.551   2.947  -0.234  0.00  0.00    +2.690 S 
ATOM     23  O   LIG    1        1.281   3.579  -0.160  0.00  0.00    -0.930 OA
ATOM     24  O   LIG    1        3.364   2.967  -1.399  0.00  0.00    -0.940 OA
BRANCH  22  25
ATOM     25  N   LIG    1        2.301   1.351   0.133  0.00  0.00    -1.050 N 
ATOM     26  H   LIG    1        1.402   1.028   0.303  0.00  0.00    +0.430 HD
BRANCH  25  27
ATOM     27  C   LIG    1        3.384   0.471   0.199  0.00  0.00    +0.160 A 
ATOM     28  C   LIG    1        3.462  -0.461   1.225  0.00  0.00    +0.020 A 
ATOM     29  C   LIG    1        4.536  -1.327   1.290  0.00  0.00    +0.070 A 
ATOM     30  C   LIG    1        5.529  -1.273   0.329  0.00  0.00    -0.100 A 
ATOM     31  C   LIG    1        5.454  -0.345  -0.695  0.00  0.00    +0.070 A 
ATOM     32 BR   LIG    1        6.995  -2.464   0.417  0.00  0.00    -0.040 Br
ATOM     33  C   LIG    1        4.385   0.526  -0.762  0.00  0.00    +0.020 A 
ENDBRANCH  25  27
ENDBRANCH  22  25
ENDBRANCH   5  22
TORSDOF 7
