REMARK  Name = ZINCpk00000kc1ga.0
REMARK                            x       y       z     vdW  Elec       q    Type
REMARK                         _______ _______ _______ _____ _____    ______ ____
ROOT
ATOM      1  N   LIG    1       -0.083   1.748  -0.251  0.00  0.00    -0.470 N 
ATOM      2  C   LIG    1        1.287   2.276  -0.258  0.00  0.00    +0.200 C 
ATOM      3  C   LIG    1        2.035   1.739  -1.480  0.00  0.00    +0.040 C 
ATOM      4  C   LIG    1        2.058   0.209  -1.427  0.00  0.00    -0.010 C 
ATOM      5  C   LIG    1        0.620  -0.314  -1.371  0.00  0.00    +0.030 C 
ATOM      6  C   LIG    1       -0.087   0.283  -0.152  0.00  0.00    +0.210 C 
ENDROOT
BRANCH   1  11
ATOM      7  C   LIG    1       -2.142   2.088   2.644  0.00  0.00    +0.350 A 
ATOM      8  N   LIG    1       -2.284   3.393   2.761  0.00  0.00    -0.530 NA
ATOM      9  C   LIG    1       -1.712   4.222   1.899  0.00  0.00    +0.190 A 
ATOM     10  C   LIG    1       -0.959   3.704   0.865  0.00  0.00    -0.090 A 
ATOM     11  C   LIG    1       -0.829   2.317   0.769  0.00  0.00    +0.360 A 
ATOM     12  C   LIG    1       -1.883   5.712   2.046  0.00  0.00    +0.140 C 
ATOM     13  N   LIG    1       -1.437   1.550   1.669  0.00  0.00    -0.540 NA
BRANCH   7  14
ATOM     14  C   LIG    1       -2.811   1.185   3.649  0.00  0.00    +0.290 C 
BRANCH  14  16
ATOM     15  C   LIG    1       -4.846  -0.006   4.075  0.00  0.00    +0.220 C 
ATOM     16  O   LIG    1       -4.122   0.851   3.190  0.00  0.00    -0.380 OA
ENDBRANCH  14  16
ENDBRANCH   7  14
ENDBRANCH   1  11
BRANCH   4  17
ATOM     17  C   LIG    1        2.752  -0.337  -2.677  0.00  0.00    +0.040 C 
BRANCH  17  18
ATOM     18  C   LIG    1        4.223   0.083  -2.667  0.00  0.00    +0.170 C 
ATOM     19  O   LIG    1        4.901  -0.536  -1.561  0.00  0.00    -0.360 OA
ATOM     20  C   LIG    1        6.250  -0.812  -1.995  0.00  0.00    +0.210 C 
ATOM     21  C   LIG    1        6.068  -1.302  -3.454  0.00  0.00    +0.040 C 
ATOM     22  C   LIG    1        4.913  -0.397  -3.958  0.00  0.00    -0.050 C 
BRANCH  22  23
ATOM     23  C   LIG    1        3.953  -1.190  -4.806  0.00  0.00    +0.530 C 
ATOM     24  O   LIG    1        3.819  -2.381  -4.618  0.00  0.00    -0.530 OA
ATOM     25  N   LIG    1        3.243  -0.577  -5.774  0.00  0.00    -0.860 N 
ATOM     26  H   LIG    1        2.624  -1.088  -6.319  0.00  0.00    +0.400 HD
ATOM     27  H   LIG    1        3.350   0.375  -5.924  0.00  0.00    +0.400 HD
ENDBRANCH  22  23
ENDBRANCH  17  18
ENDBRANCH   4  17
TORSDOF 6
