REMARK  Name = ZINCrg000000soUl.0
REMARK                            x       y       z     vdW  Elec       q    Type
REMARK                         _______ _______ _______ _____ _____    ______ ____
ROOT
ATOM      1  C   LIG    1       -3.062  -1.731   1.460  0.00  0.00    +0.510 C 
ATOM      2  N   LIG    1       -3.680  -2.000   2.628  0.00  0.00    -0.730 N 
ATOM      3  H   LIG    1       -3.295  -1.690   3.462  0.00  0.00    +0.400 HD
ATOM      4  O   LIG    1       -3.544  -2.118   0.417  0.00  0.00    -0.540 OA
ENDROOT
BRANCH   1   5
ATOM      5  C   LIG    1       -1.774  -0.950   1.452  0.00  0.00    +0.050 C 
BRANCH   5   6
ATOM      6  C   LIG    1       -1.287  -0.785   0.011  0.00  0.00    +0.150 C 
BRANCH   6   9
ATOM      7  C   LIG    1        1.238  -2.151  -0.021  0.00  0.00    +0.160 C 
ATOM      8  C   LIG    1        1.190  -0.645  -0.013  0.00  0.00    +0.200 A 
ATOM      9  C   LIG    1        0.002  -0.004   0.002  0.00  0.00    -0.270 A 
ATOM     10  C   LIG    1       -0.017   1.411   0.010  0.00  0.00    +0.550 A 
ATOM     11  N   LIG    1        1.149   2.089   0.002  0.00  0.00    -0.660 N 
ATOM     12  H   LIG    1        1.144   3.059   0.007  0.00  0.00    +0.430 HD
ATOM     13  C   LIG    1        2.319   1.425  -0.012  0.00  0.00    +0.700 A 
ATOM     14  O   LIG    1        3.362   2.049  -0.019  0.00  0.00    -0.540 OA
ATOM     15  O   LIG    1       -1.077   2.012   0.018  0.00  0.00    -0.510 OA
ATOM     16  N   LIG    1        2.351   0.080  -0.020  0.00  0.00    -0.630 N 
ATOM     17  H   LIG    1        3.205  -0.381  -0.031  0.00  0.00    +0.440 HD
ENDBRANCH   6   9
ENDBRANCH   5   6
ENDBRANCH   1   5
BRANCH   2  18
ATOM     18  C   LIG    1       -4.933  -2.759   2.636  0.00  0.00    +0.330 C 
BRANCH  18  19
ATOM     19  C   LIG    1       -5.412  -2.921   4.056  0.00  0.00    -0.190 A 
ATOM     20  C   LIG    1       -6.255  -1.975   4.623  0.00  0.00    +0.110 A 
ATOM     21  C   LIG    1       -6.673  -2.161   5.929  0.00  0.00    -0.050 A 
ATOM     22  C   LIG    1       -6.236  -3.284   6.625  0.00  0.00    +0.320 A 
ATOM     23  N   LIG    1       -5.431  -4.163   6.048  0.00  0.00    -0.520 NA
ATOM     24  C   LIG    1       -5.022  -4.015   4.803  0.00  0.00    +0.310 A 
BRANCH  22  25
ATOM     25  N   LIG    1       -6.647  -3.483   7.938  0.00  0.00    -0.480 N 
ATOM     26  C   LIG    1       -6.311  -2.326   8.776  0.00  0.00    +0.190 C 
ATOM     27  C   LIG    1       -6.905  -2.517  10.174  0.00  0.00    +0.030 C 
ATOM     28  C   LIG    1       -6.341  -3.800  10.791  0.00  0.00    +0.000 C 
ATOM     29  C   LIG    1       -6.663  -4.983   9.874  0.00  0.00    +0.020 C 
ATOM     30  C   LIG    1       -6.076  -4.720   8.486  0.00  0.00    +0.210 C 
ENDBRANCH  22  25
ENDBRANCH  18  19
ENDBRANCH   2  18
TORSDOF 6
