REMARK  Name = ZINCrH000004j4oa.0
REMARK                            x       y       z     vdW  Elec       q    Type
REMARK                         _______ _______ _______ _____ _____    ______ ____
ROOT
ATOM      1  C   LIG    1        1.863  -3.333   8.074  0.00  0.00    -0.110 A 
ATOM      2  C   LIG    1        2.406  -4.495   7.560  0.00  0.00    +0.040 A 
ATOM      3  C   LIG    1        1.895  -5.725   7.932  0.00  0.00    -0.040 A 
ATOM      4  C   LIG    1        0.835  -5.794   8.821  0.00  0.00    +0.110 A 
ATOM      5  C   LIG    1        0.288  -4.623   9.339  0.00  0.00    +0.100 A 
ATOM      6  C   LIG    1        0.809  -3.395   8.967  0.00  0.00    -0.010 A 
ENDROOT
BRANCH   5   7
ATOM      7  O   LIG    1       -0.752  -4.686  10.213  0.00  0.00    -0.300 OA
ATOM      8  C   LIG    1       -1.263  -3.445  10.704  0.00  0.00    +0.250 C 
ENDBRANCH   5   7
BRANCH   1   9
ATOM      9  C   LIG    1        2.425  -1.996   7.666  0.00  0.00    +0.330 C 
BRANCH   9  11
ATOM     10  C   LIG    1        2.053  -0.326   5.931  0.00  0.00    +0.560 C 
ATOM     11  N   LIG    1        1.717  -1.511   6.478  0.00  0.00    -0.720 N 
ATOM     12  H   LIG    1        1.008  -2.043   6.085  0.00  0.00    +0.400 HD
ATOM     13  O   LIG    1        2.942   0.341   6.422  0.00  0.00    -0.540 OA
BRANCH  10  17
ATOM     14  C   LIG    1        0.000   1.080   2.488  0.00  0.00    -0.050 A 
ATOM     15  C   LIG    1       -0.350  -0.135   3.050  0.00  0.00    +0.000 A 
ATOM     16  C   LIG    1        0.316  -0.600   4.165  0.00  0.00    +0.040 A 
ATOM     17  C   LIG    1        1.338   0.163   4.732  0.00  0.00    -0.140 A 
ATOM     18  C   LIG    1        1.683   1.390   4.163  0.00  0.00    +0.090 A 
ATOM     19  C   LIG    1        1.013   1.841   3.045  0.00  0.00    +0.000 A 
BRANCH  14  21
ATOM     20  C   LIG    1       -0.013   1.086   0.008  0.00  0.00    +0.030 C 
ATOM     21  C   LIG    1       -0.729   1.579   1.267  0.00  0.00    +0.070 C 
ENDBRANCH  14  21
ENDBRANCH  10  17
ENDBRANCH   9  11
ENDBRANCH   1   9
BRANCH   4  22
ATOM     22  O   LIG    1        0.330  -7.002   9.188  0.00  0.00    -0.290 OA
BRANCH  22  23
ATOM     23  C   LIG    1        0.941  -8.161   8.616  0.00  0.00    +0.190 C 
BRANCH  23  24
ATOM     24  C   LIG    1        0.244  -9.417   9.142  0.00  0.00    +0.170 C 
ATOM     25  C   LIG    1        0.973 -10.676   8.625  0.00  0.00    +0.020 C 
ATOM     26  C   LIG    1       -0.210 -11.635   8.313  0.00  0.00    +0.010 C 
ATOM     27  C   LIG    1       -1.288 -10.629   7.836  0.00  0.00    +0.190 C 
ATOM     28  O   LIG    1       -1.103  -9.465   8.656  0.00  0.00    -0.370 OA
ENDBRANCH  23  24
ENDBRANCH  22  23
ENDBRANCH   4  22
TORSDOF 8
