REMARK  Name = ZINCqH0000002UY8.0
REMARK                            x       y       z     vdW  Elec       q    Type
REMARK                         _______ _______ _______ _____ _____    ______ ____
ROOT
ATOM      1  N   LIG    1        1.654  -2.861   1.636  0.00  0.00    -0.660 N 
ATOM      2  H   LIG    1        0.867  -2.309   1.505  0.00  0.00    +0.410 HD
ATOM      3  C   LIG    1        2.832  -2.288   1.953  0.00  0.00    +0.520 C 
ATOM      4  O   LIG    1        3.797  -2.982   2.197  0.00  0.00    -0.490 OA
ENDROOT
BRANCH   3   5
ATOM      5  C   LIG    1        2.951  -0.787   2.005  0.00  0.00    +0.200 C 
ATOM      6  C   LIG    1        2.076  -0.244   3.136  0.00  0.00    +0.110 C 
ATOM      7  C   LIG    1        2.366   1.215   3.367  0.00  0.00    -0.040 A 
ATOM      8  C   LIG    1        1.433   2.010   4.002  0.00  0.00    +0.020 A 
ATOM      9  C   LIG    1        1.696   3.351   4.220  0.00  0.00    +0.050 A 
ATOM     10  C   LIG    1        2.892   3.908   3.805  0.00  0.00    +0.010 A 
ATOM     11  C   LIG    1        3.834   3.125   3.167  0.00  0.00    +0.090 A 
ATOM     12  C   LIG    1        3.573   1.775   2.945  0.00  0.00    -0.180 A 
ATOM     13  C   LIG    1        4.570   0.921   2.259  0.00  0.00    +0.530 C 
ATOM     14  O   LIG    1        5.555   1.397   1.731  0.00  0.00    -0.440 OA
ATOM     15  O   LIG    1        4.339  -0.416   2.251  0.00  0.00    -0.330 OA
ENDBRANCH   3   5
BRANCH   1  22
ATOM     16  N   LIG    1        2.851  -7.510   2.804  0.00  0.00    -0.480 N 
ATOM     17  C   LIG    1        2.406  -8.692   2.274  0.00  0.00    +0.220 A 
ATOM     18  C   LIG    1        1.516  -8.451   1.300  0.00  0.00    -0.050 A 
ATOM     19  C   LIG    1        1.378  -6.995   1.196  0.00  0.00    -0.120 A 
ATOM     20  C   LIG    1        0.619  -6.150   0.385  0.00  0.00    +0.080 A 
ATOM     21  C   LIG    1        0.715  -4.796   0.535  0.00  0.00    -0.030 A 
ATOM     22  C   LIG    1        1.567  -4.251   1.494  0.00  0.00    +0.150 A 
ATOM     23  C   LIG    1        2.332  -5.073   2.303  0.00  0.00    +0.010 A 
ATOM     24  C   LIG    1        2.241  -6.453   2.166  0.00  0.00    +0.110 A 
BRANCH  16  25
ATOM     25  C   LIG    1        3.829  -7.389   3.888  0.00  0.00    +0.290 C 
BRANCH  25  27
ATOM     26  C   LIG    1        4.117  -7.126   6.356  0.00  0.00    +0.030 C 
ATOM     27  C   LIG    1        3.096  -7.253   5.223  0.00  0.00    +0.000 C 
ENDBRANCH  25  27
ENDBRANCH  16  25
ENDBRANCH   1  22
TORSDOF 4
