REMARK  Name = ZINCqH0000008pFb.0
REMARK                            x       y       z     vdW  Elec       q    Type
REMARK                         _______ _______ _______ _____ _____    ______ ____
ROOT
ATOM      1  N   LIG    1        0.556  -2.764  -0.560  0.00  0.00    -0.720 N 
ATOM      2  H   LIG    1       -0.369  -2.505  -0.428  0.00  0.00    +0.400 HD
ATOM      3  C   LIG    1        1.531  -1.835  -0.497  0.00  0.00    +0.590 C 
ATOM      4  O   LIG    1        2.691  -2.159  -0.663  0.00  0.00    -0.530 OA
ENDROOT
BRANCH   3   5
ATOM      5  C   LIG    1        1.190  -0.427  -0.228  0.00  0.00    -0.280 A 
ATOM      6  C   LIG    1       -0.075   0.112  -0.124  0.00  0.00    +0.300 A 
ATOM      7  N   LIG    1        0.054   1.423   0.127  0.00  0.00    -0.460 N 
ATOM      8  H   LIG    1       -0.681   2.045   0.243  0.00  0.00    +0.450 HD
ATOM      9  N   LIG    1        1.410   1.758   0.191  0.00  0.00    -0.260 NA
ATOM     10  C   LIG    1        2.129   0.679  -0.017  0.00  0.00    +0.170 A 
BRANCH  10  11
ATOM     11  C   LIG    1        3.610   0.595  -0.035  0.00  0.00    -0.010 A 
ATOM     12  C   LIG    1        4.264  -0.378   0.718  0.00  0.00    +0.080 A 
ATOM     13  C   LIG    1        5.642  -0.456   0.693  0.00  0.00    +0.010 A 
ATOM     14  C   LIG    1        6.374   0.438  -0.068  0.00  0.00    +0.040 A 
ATOM     15  C   LIG    1        5.731   1.410  -0.813  0.00  0.00    +0.020 A 
ATOM     16  C   LIG    1        4.353   1.493  -0.800  0.00  0.00    -0.010 A 
ATOM     17 CL   LIG    1        3.547   2.714  -1.736  0.00  0.00    -0.060 Cl
ENDBRANCH  10  11
ENDBRANCH   3   5
BRANCH   1  19
ATOM     18  C   LIG    1        0.999  -4.383  -2.338  0.00  0.00    +0.030 C 
ATOM     19  C   LIG    1        0.895  -4.163  -0.828  0.00  0.00    +0.220 C 
BRANCH  19  20
ATOM     20  C   LIG    1       -0.196  -5.071  -0.255  0.00  0.00    +0.260 C 
BRANCH  20  21
ATOM     21  C   LIG    1        0.211  -6.512  -0.421  0.00  0.00    -0.150 A 
ATOM     22  C   LIG    1       -0.232  -7.233  -1.514  0.00  0.00    +0.050 A 
ATOM     23  C   LIG    1        0.146  -8.554  -1.669  0.00  0.00    +0.000 A 
ATOM     24  C   LIG    1        0.958  -9.158  -0.727  0.00  0.00    +0.050 A 
ATOM     25  C   LIG    1        1.397  -8.440   0.369  0.00  0.00    -0.010 A 
ATOM     26  C   LIG    1        1.024  -7.116   0.523  0.00  0.00    +0.110 A 
ATOM     27  F   LIG    1        1.452  -6.413   1.595  0.00  0.00    -0.130 F 
ENDBRANCH  20  21
BRANCH  20  28
ATOM     28  O   LIG    1       -1.423  -4.838  -0.950  0.00  0.00    -0.550 OA
ATOM     29  H   LIG    1       -1.375  -5.014  -1.900  0.00  0.00    +0.380 HD
ENDBRANCH  20  28
ENDBRANCH  19  20
ENDBRANCH   1  19
TORSDOF 6
