REMARK  Name = ZINCnE00000hdc7n.1
REMARK                            x       y       z     vdW  Elec       q    Type
REMARK                         _______ _______ _______ _____ _____    ______ ____
ROOT
ATOM      1  O   LIG    1        5.096   2.110  -1.909  0.00  0.00    -0.590 OA
ATOM      2  C   LIG    1        4.647   1.486  -0.971  0.00  0.00    +0.480 C 
ATOM      3  N   LIG    1        4.996   0.197  -0.790  0.00  0.00    -0.650 NA
ENDROOT
BRANCH   2   4
ATOM      4  C   LIG    1        3.698   2.152  -0.008  0.00  0.00    +0.060 C 
ATOM      5  C   LIG    1        3.474   3.604  -0.437  0.00  0.00    +0.020 C 
ATOM      6  C   LIG    1        2.296   4.169   0.366  0.00  0.00    +0.220 C 
ATOM      7  O   LIG    1        1.117   3.449   0.001  0.00  0.00    -0.320 OA
ATOM      8  C   LIG    1        1.176   2.092   0.002  0.00  0.00    +0.130 A 
ATOM      9  C   LIG    1       -0.017   1.376   0.010  0.00  0.00    -0.050 A 
ATOM     10  C   LIG    1        0.002  -0.004   0.002  0.00  0.00    +0.030 A 
ATOM     11  C   LIG    1        1.209  -0.678  -0.013  0.00  0.00    -0.040 A 
ATOM     12  C   LIG    1        2.395   0.030  -0.018  0.00  0.00    +0.100 A 
ATOM     13  C   LIG    1        2.383   1.415  -0.009  0.00  0.00    -0.140 A 
ENDBRANCH   2   4
BRANCH   3  14
ATOM     14  C   LIG    1        5.866  -0.414  -1.673  0.00  0.00    +0.510 A 
ATOM     15  N   LIG    1        6.269  -1.655  -1.590  0.00  0.00    -0.560 NA
ATOM     16  C   LIG    1        7.116  -1.910  -2.624  0.00  0.00    +0.100 A 
ATOM     17  C   LIG    1        7.830  -3.038  -3.028  0.00  0.00    -0.010 A 
ATOM     18  C   LIG    1        8.626  -2.977  -4.154  0.00  0.00    +0.100 A 
ATOM     19  C   LIG    1        8.718  -1.800  -4.884  0.00  0.00    -0.040 A 
ATOM     20  C   LIG    1        8.016  -0.677  -4.493  0.00  0.00    +0.080 A 
ATOM     21  F   LIG    1        9.319  -4.068  -4.548  0.00  0.00    -0.150 F 
ATOM     22  C   LIG    1        7.213  -0.723  -3.365  0.00  0.00    -0.040 A 
ATOM     23  O   LIG    1        6.418   0.180  -2.746  0.00  0.00    -0.240 OA
ENDBRANCH   3  14
TORSDOF 2
