REMARK  Name = ZINCpe000000SPeQ.0
REMARK                            x       y       z     vdW  Elec       q    Type
REMARK                         _______ _______ _______ _____ _____    ______ ____
ROOT
ATOM      1  C   LIG    1        3.775   0.828  -1.719  0.00  0.00    +0.510 C 
ATOM      2  N   LIG    1        5.072   0.865  -2.084  0.00  0.00    -0.600 N 
ATOM      3  O   LIG    1        2.909   0.759  -2.565  0.00  0.00    -0.500 OA
ENDROOT
BRANCH   1   4
ATOM      4  C   LIG    1        3.401   0.872  -0.260  0.00  0.00    +0.370 C 
BRANCH   4   9
ATOM      5  C   LIG    1        1.115   1.869   0.025  0.00  0.00    +0.210 A 
ATOM      6  N   LIG    1       -0.100   1.382   0.103  0.00  0.00    -0.300 NA
ATOM      7  N   LIG    1       -0.022   0.100   0.003  0.00  0.00    -0.070 NA
ATOM      8  N   LIG    1        1.211  -0.244  -0.136  0.00  0.00    -0.080 NA
ATOM      9  N   LIG    1        1.943   0.819  -0.128  0.00  0.00    -0.300 N 
BRANCH   5  11
ATOM     10  C   LIG    1        0.249   4.190   0.122  0.00  0.00    +0.080 C 
ATOM     11  C   LIG    1        1.508   3.322   0.093  0.00  0.00    +0.010 C 
ATOM     12  C   LIG    1        2.347   3.681  -1.135  0.00  0.00    +0.050 C 
ATOM     13  C   LIG    1        2.328   3.570   1.361  0.00  0.00    +0.050 C 
ENDBRANCH   5  11
ENDBRANCH   4   9
ENDBRANCH   1   4
BRANCH   2  14
ATOM     14  C   LIG    1        5.435   0.822  -3.502  0.00  0.00    +0.350 C 
BRANCH  14  15
ATOM     15  C   LIG    1        5.503   2.226  -4.046  0.00  0.00    -0.110 A 
ATOM     16  C   LIG    1        4.376   2.809  -4.596  0.00  0.00    +0.040 A 
ATOM     17  C   LIG    1        4.437   4.099  -5.091  0.00  0.00    +0.000 A 
ATOM     18  C   LIG    1        5.627   4.801  -5.045  0.00  0.00    +0.010 A 
ATOM     19  C   LIG    1        6.754   4.216  -4.500  0.00  0.00    +0.000 A 
ATOM     20  C   LIG    1        6.692   2.929  -4.001  0.00  0.00    +0.020 A 
ENDBRANCH  14  15
ENDBRANCH   2  14
BRANCH   2  21
ATOM     21  C   LIG    1        6.118   0.949  -1.062  0.00  0.00    +0.310 C 
BRANCH  21  22
ATOM     22  C   LIG    1        6.540  -0.462  -0.648  0.00  0.00    +0.040 C 
BRANCH  22  23
ATOM     23  C   LIG    1        7.616  -0.376   0.404  0.00  0.00    +0.520 C 
ATOM     24  O   LIG    1        8.007   0.707   0.784  0.00  0.00    -0.540 OA
ATOM     25  N   LIG    1        8.145  -1.503   0.921  0.00  0.00    -0.850 N 
ATOM     26  H   LIG    1        8.837  -1.448   1.598  0.00  0.00    +0.410 HD
ATOM     27  H   LIG    1        7.832  -2.369   0.617  0.00  0.00    +0.400 HD
ENDBRANCH  22  23
ENDBRANCH  21  22
ENDBRANCH   2  21
TORSDOF 8
