REMARK  Name = ZINCvU00000003Kf.0
REMARK                            x       y       z     vdW  Elec       q    Type
REMARK                         _______ _______ _______ _____ _____    ______ ____
ROOT
ATOM      1  C   LIG    1        3.332   7.473  -0.305  0.00  0.00    +0.060 A 
ATOM      2  N   LIG    1        3.236   8.270   0.705  0.00  0.00    -0.450 NA
ATOM      3  C   LIG    1        2.975   9.536   0.449  0.00  0.00    +0.040 A 
ATOM      4  C   LIG    1        2.833   9.821  -0.849  0.00  0.00    -0.070 A 
ATOM      5  S   LIG    1        3.067   8.332  -1.760  0.00  0.00    +0.150 S 
ENDROOT
BRANCH   1   6
ATOM      6  C   LIG    1        3.628   5.998  -0.216  0.00  0.00    +0.180 C 
BRANCH   6   9
ATOM      7  N   LIG    1        2.356   3.889   0.001  0.00  0.00    -0.670 N 
ATOM      8  H   LIG    1        3.202   3.419   0.068  0.00  0.00    +0.410 HD
ATOM      9  C   LIG    1        2.336   5.233  -0.094  0.00  0.00    +0.520 C 
ATOM     10  O   LIG    1        1.278   5.827  -0.082  0.00  0.00    -0.500 OA
BRANCH   7  15
ATOM     11  C   LIG    1       -2.515   0.980   0.014  0.00  0.00    +0.090 C 
ATOM     12  C   LIG    1       -1.220   1.751   0.008  0.00  0.00    -0.100 A 
ATOM     13  C   LIG    1       -1.113   2.914  -0.733  0.00  0.00    +0.030 A 
ATOM     14  C   LIG    1        0.070   3.626  -0.736  0.00  0.00    +0.010 A 
ATOM     15  C   LIG    1        1.155   3.170   0.002  0.00  0.00    +0.140 A 
ATOM     16  C   LIG    1        1.046   1.999   0.741  0.00  0.00    -0.010 A 
ATOM     17  C   LIG    1       -0.141   1.292   0.740  0.00  0.00    +0.030 A 
ENDBRANCH   7  15
ENDBRANCH   6   9
ENDBRANCH   1   6
BRANCH   3  18
ATOM     18  C   LIG    1        2.841  10.576   1.531  0.00  0.00    +0.310 C 
BRANCH  18  19
ATOM     19  N   LIG    1        1.469  10.563   2.056  0.00  0.00    -0.480 NA
ATOM     20  C   LIG    1        1.209   9.331   2.830  0.00  0.00    +0.180 C 
ATOM     21  C   LIG    1       -0.267   8.955   2.600  0.00  0.00    +0.020 C 
ATOM     22  C   LIG    1       -0.809  10.028   1.628  0.00  0.00    +0.050 C 
ATOM     23  C   LIG    1        0.477  10.564   0.950  0.00  0.00    +0.210 C 
BRANCH  23  24
ATOM     24  C   LIG    1        0.261  11.962   0.430  0.00  0.00    +0.110 A 
ATOM     25  N   LIG    1        0.094  12.989   1.174  0.00  0.00    -0.430 NA
ATOM     26  C   LIG    1       -0.085  14.180   0.572  0.00  0.00    +0.080 A 
ATOM     27  C   LIG    1       -0.285  15.454   1.139  0.00  0.00    +0.080 A 
ATOM     28  C   LIG    1       -0.453  16.546   0.341  0.00  0.00    +0.030 A 
ATOM     29  C   LIG    1       -0.431  16.425  -1.041  0.00  0.00    +0.040 A 
ATOM     30  C   LIG    1       -0.237  15.192  -1.623  0.00  0.00    +0.060 A 
ATOM     31  C   LIG    1       -0.064  14.065  -0.823  0.00  0.00    -0.180 A 
ATOM     32  S   LIG    1        0.201  12.371  -1.225  0.00  0.00    +0.080 S 
ENDBRANCH  23  24
ENDBRANCH  18  19
ENDBRANCH   3  18
TORSDOF 6
