REMARK  Name = ZINCvU0000000Gcv.0
REMARK                            x       y       z     vdW  Elec       q    Type
REMARK                         _______ _______ _______ _____ _____    ______ ____
ROOT
ATOM      1  C   LIG    1       -4.002   1.649   1.420  0.00  0.00    -0.010 C 
ATOM      2  C   LIG    1       -3.757   0.718   0.230  0.00  0.00    +0.030 C 
ATOM      3  C   LIG    1       -2.334   0.922  -0.295  0.00  0.00    +0.020 C 
ATOM      4  C   LIG    1       -1.331   0.571   0.808  0.00  0.00    +0.260 C 
ATOM      5  N   LIG    1       -1.648   1.359   2.007  0.00  0.00    -0.620 N 
ATOM      6  C   LIG    1       -0.704   2.115   2.601  0.00  0.00    +0.520 C 
ATOM      7  O   LIG    1       -0.977   2.761   3.590  0.00  0.00    -0.520 OA
ATOM      8  C   LIG    1       -3.018   1.306   2.543  0.00  0.00    +0.310 C 
ENDROOT
BRANCH   1  10
ATOM      9  O   LIG    1       -5.615   1.109   3.055  0.00  0.00    -0.510 OA
ATOM     10  C   LIG    1       -5.414   1.471   1.915  0.00  0.00    +0.520 C 
ATOM     11  N   LIG    1       -6.453   1.715   1.092  0.00  0.00    -0.670 N 
ATOM     12  H   LIG    1       -6.294   2.064   0.201  0.00  0.00    +0.410 HD
BRANCH  11  13
ATOM     13  C   LIG    1       -7.761   1.465   1.523  0.00  0.00    +0.140 A 
ATOM     14  C   LIG    1       -8.711   0.996   0.626  0.00  0.00    -0.020 A 
ATOM     15  C   LIG    1       -9.999   0.746   1.055  0.00  0.00    +0.030 A 
ATOM     16  C   LIG    1      -10.346   0.972   2.374  0.00  0.00    -0.010 A 
ATOM     17  C   LIG    1       -9.404   1.444   3.269  0.00  0.00    +0.030 A 
ATOM     18  C   LIG    1       -8.112   1.691   2.847  0.00  0.00    +0.020 A 
ENDBRANCH  11  13
ENDBRANCH   1  10
BRANCH   6  19
ATOM     19  C   LIG    1        0.693   2.158   2.035  0.00  0.00    +0.070 C 
BRANCH  19  20
ATOM     20  C   LIG    1        1.561   3.084   2.890  0.00  0.00    +0.100 C 
BRANCH  20  21
ATOM     21  C   LIG    1        2.921   3.224   2.256  0.00  0.00    -0.070 A 
ATOM     22  C   LIG    1        3.644   2.096   1.916  0.00  0.00    +0.010 A 
ATOM     23  C   LIG    1        4.889   2.224   1.330  0.00  0.00    +0.000 A 
ATOM     24  C   LIG    1        5.416   3.480   1.095  0.00  0.00    +0.000 A 
ATOM     25  C   LIG    1        4.695   4.608   1.440  0.00  0.00    +0.000 A 
ATOM     26  C   LIG    1        3.448   4.480   2.021  0.00  0.00    +0.010 A 
ENDBRANCH  20  21
BRANCH  20  27
ATOM     27  C   LIG    1        1.708   2.500   4.272  0.00  0.00    -0.060 A 
ATOM     28  C   LIG    1        1.414   3.269   5.382  0.00  0.00    +0.030 A 
ATOM     29  C   LIG    1        1.544   2.732   6.649  0.00  0.00    +0.000 A 
ATOM     30  C   LIG    1        1.979   1.430   6.806  0.00  0.00    +0.000 A 
ATOM     31  C   LIG    1        2.278   0.662   5.696  0.00  0.00    +0.000 A 
ATOM     32  C   LIG    1        2.143   1.197   4.429  0.00  0.00    +0.000 A 
ENDBRANCH  20  27
ENDBRANCH  19  20
ENDBRANCH   6  19
TORSDOF 6
