REMARK  Name = ZINCvU0000000GLx.0
REMARK                            x       y       z     vdW  Elec       q    Type
REMARK                         _______ _______ _______ _____ _____    ______ ____
ROOT
ATOM      1  C   LIG    1       -4.849  -2.836  -0.278  0.00  0.00    -0.680 A 
ATOM      2  C   LIG    1       -4.827  -4.216  -0.389  0.00  0.00    +0.190 A 
ATOM      3  C   LIG    1       -3.623  -4.896  -0.404  0.00  0.00    +0.020 A 
ATOM      4  C   LIG    1       -2.433  -4.202  -0.308  0.00  0.00    +0.070 A 
ATOM      5  C   LIG    1       -2.449  -2.809  -0.196  0.00  0.00    -0.150 A 
ATOM      6 CL   LIG    1       -0.923  -5.057  -0.327  0.00  0.00    -0.010 Cl
ATOM      7  C   LIG    1       -3.668  -2.130  -0.177  0.00  0.00    +0.180 A 
ENDROOT
BRANCH   5   8
ATOM      8  C   LIG    1       -1.180  -2.058  -0.093  0.00  0.00    +0.560 C 
ATOM      9  N   LIG    1       -1.199  -0.715   0.015  0.00  0.00    -0.680 N 
ATOM     10  H   LIG    1       -2.044  -0.246   0.091  0.00  0.00    +0.410 HD
ATOM     11  O   LIG    1       -0.120  -2.653  -0.105  0.00  0.00    -0.480 OA
BRANCH   9  12
ATOM     12  C   LIG    1        0.002   0.003   0.018  0.00  0.00    +0.200 A 
ATOM     13  C   LIG    1        1.135  -0.538   0.611  0.00  0.00    +0.030 A 
ATOM     14  C   LIG    1        2.318   0.173   0.612  0.00  0.00    +0.070 A 
ATOM     15  C   LIG    1        2.376   1.423   0.024  0.00  0.00    +0.010 A 
ATOM     16  C   LIG    1        1.249   1.965  -0.568  0.00  0.00    +0.090 A 
ATOM     17  C   LIG    1        0.063   1.259  -0.573  0.00  0.00    -0.210 A 
BRANCH  17  18
ATOM     18  C   LIG    1       -1.163   1.847  -1.223  0.00  0.00    +0.510 C 
ATOM     19  F   LIG    1       -2.182   1.970  -0.272  0.00  0.00    -0.180 F 
ATOM     20  F   LIG    1       -1.590   1.008  -2.258  0.00  0.00    -0.170 F 
ATOM     21  F   LIG    1       -0.855   3.109  -1.742  0.00  0.00    -0.170 F 
ENDBRANCH  17  18
ENDBRANCH   9  12
ENDBRANCH   5   8
BRANCH   1  22
ATOM     22  S   LIG    1       -6.389  -1.981  -0.259  0.00  0.00    +2.690 S 
ATOM     23  O   LIG    1       -7.328  -2.830  -0.905  0.00  0.00    -0.930 OA
ATOM     24  O   LIG    1       -6.116  -0.654  -0.690  0.00  0.00    -0.940 OA
BRANCH  22  26
ATOM     25  C   LIG    1       -6.559  -0.667   2.099  0.00  0.00    +0.320 C 
ATOM     26  N   LIG    1       -6.869  -1.870   1.322  0.00  0.00    -0.950 N 
BRANCH  26  27
ATOM     27  C   LIG    1       -7.569  -2.923   1.915  0.00  0.00    +0.120 A 
ATOM     28  C   LIG    1       -8.794  -3.324   1.397  0.00  0.00    +0.030 A 
ATOM     29  C   LIG    1       -9.481  -4.368   1.982  0.00  0.00    +0.020 A 
ATOM     30  C   LIG    1       -8.956  -5.009   3.090  0.00  0.00    +0.020 A 
ATOM     31  C   LIG    1       -7.740  -4.609   3.612  0.00  0.00    +0.020 A 
ATOM     32  C   LIG    1       -7.045  -3.568   3.028  0.00  0.00    +0.010 A 
ENDBRANCH  26  27
ENDBRANCH  22  26
ENDBRANCH   1  22
TORSDOF 6
