REMARK  Name = ZINCvU0000000Fjc.1
REMARK                            x       y       z     vdW  Elec       q    Type
REMARK                         _______ _______ _______ _____ _____    ______ ____
ROOT
ATOM      1  N   LIG    1       -1.192  -6.422  -0.020  0.00  0.00    -0.710 N 
ATOM      2  H   LIG    1       -0.341  -6.886  -0.031  0.00  0.00    +0.410 HD
ATOM      3  C   LIG    1       -1.226  -5.074  -0.012  0.00  0.00    +0.570 C 
ATOM      4  O   LIG    1       -2.292  -4.493   0.002  0.00  0.00    -0.530 OA
ENDROOT
BRANCH   3   5
ATOM      5  C   LIG    1        0.039  -4.302  -0.021  0.00  0.00    +0.080 A 
ATOM      6  C   LIG    1       -0.003  -2.912  -0.013  0.00  0.00    +0.040 A 
ATOM      7  C   LIG    1        1.199  -2.200  -0.021  0.00  0.00    +0.020 A 
ATOM      8  C   LIG    1        2.395  -2.921  -0.042  0.00  0.00    -0.010 A 
ATOM      9  C   LIG    1        2.350  -4.303  -0.044  0.00  0.00    +0.280 A 
ATOM     10  N   LIG    1        1.201  -4.944  -0.036  0.00  0.00    -0.460 NA
BRANCH   7  11
ATOM     11  C   LIG    1        1.204  -0.716  -0.013  0.00  0.00    -0.140 A 
ATOM     12  C   LIG    1        0.002  -0.004   0.002  0.00  0.00    +0.330 A 
ATOM     13  N   LIG    1       -0.016   1.310   0.009  0.00  0.00    -0.490 NA
ATOM     14  C   LIG    1        1.102   2.026   0.002  0.00  0.00    +0.290 A 
ATOM     15  N   LIG    1        1.349   3.377   0.007  0.00  0.00    -0.580 N 
ATOM     16  H   LIG    1        0.668   4.067   0.017  0.00  0.00    +0.420 HD
ATOM     17  C   LIG    1        2.699   3.607  -0.004  0.00  0.00    +0.250 A 
ATOM     18  C   LIG    1        3.362   2.441  -0.017  0.00  0.00    -0.040 A 
ATOM     19  C   LIG    1        2.354   1.379  -0.013  0.00  0.00    -0.150 A 
ATOM     20  C   LIG    1        2.409  -0.014  -0.021  0.00  0.00    +0.140 A 
ENDBRANCH   7  11
ENDBRANCH   3   5
BRANCH   1  21
ATOM     21  C   LIG    1       -2.442  -7.186  -0.011  0.00  0.00    +0.260 C 
BRANCH  21  26
ATOM     22  C   LIG    1       -3.034 -13.101   0.900  0.00  0.00    +0.030 C 
ATOM     23  C   LIG    1       -2.638 -11.623   0.875  0.00  0.00    +0.030 C 
ATOM     24  C   LIG    1       -3.235 -10.952  -0.364  0.00  0.00    +0.020 C 
ATOM     25  C   LIG    1       -3.419  -9.464  -0.139  0.00  0.00    +0.030 C 
ATOM     26  C   LIG    1       -2.126  -8.682  -0.022  0.00  0.00    -0.010 C 
ATOM     27  C   LIG    1       -1.379  -9.048   1.263  0.00  0.00    +0.080 C 
ATOM     28  C   LIG    1       -0.534 -10.276   0.993  0.00  0.00    -0.080 A 
ATOM     29  C   LIG    1        0.843 -10.155   0.933  0.00  0.00    +0.010 A 
ATOM     30  C   LIG    1        1.617 -11.275   0.688  0.00  0.00    +0.000 A 
ATOM     31  C   LIG    1        1.016 -12.506   0.504  0.00  0.00    +0.000 A 
ATOM     32  C   LIG    1       -0.361 -12.620   0.565  0.00  0.00    +0.010 A 
ATOM     33  C   LIG    1       -1.130 -11.496   0.810  0.00  0.00    -0.070 A 
ENDBRANCH  21  26
ENDBRANCH   1  21
TORSDOF 4
