REMARK  Name = ZINCvU0000000Fjc.0
REMARK                            x       y       z     vdW  Elec       q    Type
REMARK                         _______ _______ _______ _____ _____    ______ ____
ROOT
ATOM      1  N   LIG    1        3.613   3.049  -0.016  0.00  0.00    -0.710 N 
ATOM      2  H   LIG    1        3.580   2.079  -0.021  0.00  0.00    +0.410 HD
ATOM      3  C   LIG    1        2.470   3.763  -0.001  0.00  0.00    +0.570 C 
ATOM      4  O   LIG    1        2.512   4.977   0.005  0.00  0.00    -0.530 OA
ENDROOT
BRANCH   3   5
ATOM      5  C   LIG    1        1.162   3.067   0.007  0.00  0.00    +0.080 A 
ATOM      6  C   LIG    1       -0.013   3.810   0.022  0.00  0.00    +0.050 A 
ATOM      7  C   LIG    1       -1.238   3.137   0.030  0.00  0.00    +0.010 A 
ATOM      8  C   LIG    1       -1.226   1.740   0.017  0.00  0.00    +0.020 A 
ATOM      9  C   LIG    1       -0.013   1.076   0.008  0.00  0.00    +0.280 A 
ATOM     10  N   LIG    1        1.124   1.739   0.001  0.00  0.00    -0.460 NA
BRANCH   7  11
ATOM     11  C   LIG    1       -2.518   3.887   0.045  0.00  0.00    -0.160 A 
ATOM     12  C   LIG    1       -2.860   4.681  -1.033  0.00  0.00    +0.340 A 
ATOM     13  N   LIG    1       -4.007   5.374  -1.072  0.00  0.00    -0.490 N 
ATOM     14  H   LIG    1       -4.213   5.917  -1.849  0.00  0.00    +0.430 HD
ATOM     15  C   LIG    1       -4.888   5.328  -0.023  0.00  0.00    +0.240 A 
ATOM     16  N   LIG    1       -6.059   5.886   0.228  0.00  0.00    -0.530 NA
ATOM     17  C   LIG    1       -6.518   5.512   1.423  0.00  0.00    +0.220 A 
ATOM     18  C   LIG    1       -5.647   4.666   2.032  0.00  0.00    -0.090 A 
ATOM     19  C   LIG    1       -4.560   4.502   1.145  0.00  0.00    -0.160 A 
ATOM     20  C   LIG    1       -3.367   3.789   1.156  0.00  0.00    +0.190 A 
ENDBRANCH   7  11
ENDBRANCH   3   5
BRANCH   1  21
ATOM     21  C   LIG    1        4.907   3.737  -0.025  0.00  0.00    +0.260 C 
BRANCH  21  26
ATOM     22  C   LIG    1       10.292   1.253  -1.027  0.00  0.00    +0.030 C 
ATOM     23  C   LIG    1        8.819   1.663  -0.982  0.00  0.00    +0.030 C 
ATOM     24  C   LIG    1        8.555   2.498   0.274  0.00  0.00    +0.020 C 
ATOM     25  C   LIG    1        7.367   3.417   0.075  0.00  0.00    +0.030 C 
ATOM     26  C   LIG    1        6.034   2.703  -0.041  0.00  0.00    -0.010 C 
ATOM     27  C   LIG    1        5.958   1.895  -1.339  0.00  0.00    +0.070 C 
ATOM     28  C   LIG    1        6.587   0.539  -1.098  0.00  0.00    -0.080 A 
ATOM     29  C   LIG    1        5.783  -0.586  -1.049  0.00  0.00    +0.010 A 
ATOM     30  C   LIG    1        6.356  -1.826  -0.830  0.00  0.00    +0.000 A 
ATOM     31  C   LIG    1        7.723  -1.937  -0.661  0.00  0.00    +0.000 A 
ATOM     32  C   LIG    1        8.521  -0.808  -0.710  0.00  0.00    +0.010 A 
ATOM     33  C   LIG    1        7.943   0.429  -0.929  0.00  0.00    -0.070 A 
ENDBRANCH  21  26
ENDBRANCH   1  21
TORSDOF 4
