REMARK  Name = ZINCpk00000OBgAd.0
REMARK                            x       y       z     vdW  Elec       q    Type
REMARK                         _______ _______ _______ _____ _____    ______ ____
ROOT
ATOM      1  C   LIG    1        0.816   3.140  -0.977  0.00  0.00    +0.250 C 
ATOM      2  C   LIG    1       -0.223   2.082  -1.382  0.00  0.00    +0.010 C 
ATOM      3  C   LIG    1       -0.018   1.461   0.010  0.00  0.00    +0.250 C 
ATOM      4  C   LIG    1        1.383   2.096   0.000  0.00  0.00    +0.030 C 
ENDROOT
BRANCH   1   7
ATOM      5  O   LIG    1        0.774   5.476  -2.321  0.00  0.00    -0.520 OA
ATOM      6  C   LIG    1        1.635   4.694  -2.665  0.00  0.00    +0.510 C 
ATOM      7  N   LIG    1        1.741   3.497  -2.055  0.00  0.00    -0.720 N 
ATOM      8  H   LIG    1        2.430   2.872  -2.330  0.00  0.00    +0.400 HD
BRANCH   6   9
ATOM      9  C   LIG    1        2.586   5.062  -3.774  0.00  0.00    +0.190 C 
BRANCH   9  10
ATOM     10  C   LIG    1        2.256   6.442  -4.282  0.00  0.00    -0.030 A 
ATOM     11  C   LIG    1        2.756   7.601  -3.824  0.00  0.00    +0.160 A 
ATOM     12  N   LIG    1        2.209   8.595  -4.547  0.00  0.00    -0.490 NA
ATOM     13  C   LIG    1        1.392   8.077  -5.418  0.00  0.00    +0.430 A 
ATOM     14  O   LIG    1        1.401   6.745  -5.278  0.00  0.00    -0.200 OA
ENDBRANCH   9  10
ENDBRANCH   6   9
ENDBRANCH   1   7
BRANCH   3  15
ATOM     15  N   LIG    1        0.002  -0.004   0.002  0.00  0.00    -0.720 N 
ATOM     16  H   LIG    1        0.766  -0.477  -0.363  0.00  0.00    +0.400 HD
ATOM     17  C   LIG    1       -1.042  -0.695   0.502  0.00  0.00    +0.510 C 
ATOM     18  O   LIG    1       -1.998  -0.104   0.958  0.00  0.00    -0.520 OA
BRANCH  17  19
ATOM     19  C   LIG    1       -1.021  -2.202   0.493  0.00  0.00    +0.070 C 
BRANCH  19  20
ATOM     20  C   LIG    1       -2.316  -2.733   1.113  0.00  0.00    +0.170 C 
ATOM     21  C   LIG    1       -2.263  -4.273   1.229  0.00  0.00    +0.010 C 
ATOM     22  C   LIG    1       -3.707  -4.724   0.906  0.00  0.00    +0.020 C 
ATOM     23  C   LIG    1       -4.445  -3.409   0.619  0.00  0.00    +0.080 C 
ATOM     24  C   LIG    1       -5.415  -2.948   1.706  0.00  0.00    +0.000 C 
ATOM     25  C   LIG    1       -6.333  -2.473   0.566  0.00  0.00    +0.010 C 
ATOM     26  C   LIG    1       -5.640  -3.518  -0.328  0.00  0.00    +0.040 C 
ATOM     27  O   LIG    1       -3.438  -2.461   0.241  0.00  0.00    -0.330 OA
ENDBRANCH  19  20
ENDBRANCH  17  19
ENDBRANCH   3  15
TORSDOF 6
