REMARK  Name = ZINCrg00000fSAdf.0
REMARK                            x       y       z     vdW  Elec       q    Type
REMARK                         _______ _______ _______ _____ _____    ______ ____
ROOT
ATOM      1  C   LIG    1       -4.247   3.576  -3.624  0.00  0.00    +0.470 C 
ATOM      2  O   LIG    1       -4.475   4.754  -3.770  0.00  0.00    -0.490 OA
ENDROOT
BRANCH   1   3
ATOM      3  O   LIG    1       -4.632   2.697  -4.562  0.00  0.00    -0.330 OA
BRANCH   3   4
ATOM      4  C   LIG    1       -5.316   3.232  -5.726  0.00  0.00    +0.270 C 
BRANCH   4   6
ATOM      5  O   LIG    1       -5.373   0.965  -6.378  0.00  0.00    -0.510 OA
ATOM      6  C   LIG    1       -5.669   2.106  -6.663  0.00  0.00    +0.510 C 
ATOM      7  N   LIG    1       -6.313   2.367  -7.818  0.00  0.00    -0.730 N 
ATOM      8  H   LIG    1       -6.550   3.279  -8.045  0.00  0.00    +0.400 HD
BRANCH   7   9
ATOM      9  C   LIG    1       -6.656   1.272  -8.729  0.00  0.00    +0.270 C 
BRANCH   9  10
ATOM     10  C   LIG    1       -7.377   1.836  -9.955  0.00  0.00    +0.070 C 
BRANCH  10  11
ATOM     11  C   LIG    1       -7.729   0.709 -10.892  0.00  0.00    -0.090 A 
ATOM     12  C   LIG    1       -6.842   0.331 -11.882  0.00  0.00    +0.010 A 
ATOM     13  C   LIG    1       -7.163  -0.706 -12.739  0.00  0.00    +0.000 A 
ATOM     14  C   LIG    1       -8.376  -1.356 -12.613  0.00  0.00    +0.000 A 
ATOM     15  C   LIG    1       -9.266  -0.974 -11.626  0.00  0.00    +0.000 A 
ATOM     16  C   LIG    1       -8.942   0.059 -10.766  0.00  0.00    +0.010 A 
ENDBRANCH  10  11
ENDBRANCH   9  10
ENDBRANCH   7   9
ENDBRANCH   4   6
ENDBRANCH   3   4
ENDBRANCH   1   3
BRANCH   1  17
ATOM     17  C   LIG    1       -3.532   3.094  -2.388  0.00  0.00    +0.380 C 
BRANCH  17  18
ATOM     18  N   LIG    1       -3.222   4.238  -1.526  0.00  0.00    -1.110 NA
ATOM     19  H   LIG    1       -3.276   5.140  -1.879  0.00  0.00    +0.430 HD
BRANCH  18  20
ATOM     20  S   LIG    1       -2.779   3.991   0.050  0.00  0.00    +2.700 S 
ATOM     21  O   LIG    1       -2.515   5.275   0.599  0.00  0.00    -0.940 OA
ATOM     22  O   LIG    1       -3.732   3.092   0.599  0.00  0.00    -0.940 OA
BRANCH  20  23
ATOM     23  C   LIG    1       -1.240   3.133   0.031  0.00  0.00    -0.660 A 
ATOM     24  C   LIG    1       -1.219   1.750   0.017  0.00  0.00    +0.120 A 
ATOM     25  C   LIG    1       -0.013   1.076   0.008  0.00  0.00    +0.040 A 
ATOM     26  C   LIG    1        1.175   1.783   0.000  0.00  0.00    +0.050 A 
ATOM     27  C   LIG    1        1.156   3.167   0.008  0.00  0.00    +0.080 A 
ATOM     28  F   LIG    1        2.316   3.859   0.001  0.00  0.00    -0.130 F 
ATOM     29  C   LIG    1       -0.053   3.842   0.023  0.00  0.00    +0.110 A 
ENDBRANCH  20  23
ENDBRANCH  18  20
ENDBRANCH  17  18
ENDBRANCH   1  17
TORSDOF 10
