REMARK  Name = ZINCrH000004l7G2.0
REMARK                            x       y       z     vdW  Elec       q    Type
REMARK                         _______ _______ _______ _____ _____    ______ ____
ROOT
ATOM      1  N   LIG    1       -0.884   1.714   1.241  0.00  0.00    -0.940 N 
ATOM      2  C   LIG    1       -0.263   1.246  -0.001  0.00  0.00    +0.290 C 
ATOM      3  C   LIG    1       -1.104   1.861  -1.131  0.00  0.00    +0.110 C 
ATOM      4  C   LIG    1       -2.175   2.657  -0.418  0.00  0.00    -0.130 A 
ATOM      5  C   LIG    1       -3.212   3.420  -0.913  0.00  0.00    +0.100 A 
ATOM      6  C   LIG    1       -4.082   4.067  -0.037  0.00  0.00    -0.040 A 
ATOM      7  C   LIG    1       -3.895   3.938   1.338  0.00  0.00    +0.060 A 
ATOM      8  C   LIG    1       -2.858   3.175   1.825  0.00  0.00    +0.000 A 
ATOM      9  C   LIG    1       -1.985   2.525   0.950  0.00  0.00    +0.170 A 
ENDROOT
BRANCH   6  10
ATOM     10  C   LIG    1       -5.198   4.889  -0.565  0.00  0.00    +0.120 A 
ATOM     11  C   LIG    1       -6.014   5.614   0.227  0.00  0.00    -0.080 A 
ATOM     12  S   LIG    1       -7.186   6.429  -0.805  0.00  0.00    +0.130 S 
ATOM     13  C   LIG    1       -6.480   5.719  -2.190  0.00  0.00    +0.050 A 
ATOM     14  C   LIG    1       -6.955   5.935  -3.604  0.00  0.00    +0.180 C 
ATOM     15  N   LIG    1       -5.485   4.972  -1.856  0.00  0.00    -0.470 NA
ENDBRANCH   6  10
BRANCH   1  16
ATOM     16  S   LIG    1       -0.357   1.337   2.765  0.00  0.00    +2.720 S 
ATOM     17  O   LIG    1        0.317   0.090   2.660  0.00  0.00    -0.920 OA
ATOM     18  O   LIG    1       -1.460   1.552   3.635  0.00  0.00    -0.910 OA
BRANCH  16  20
ATOM     19  C   LIG    1        1.316   2.705   4.484  0.00  0.00    -0.160 A 
ATOM     20  C   LIG    1        0.864   2.528   3.205  0.00  0.00    -0.610 A 
ATOM     21  C   LIG    1        1.454   3.376   2.299  0.00  0.00    +0.070 A 
ATOM     22  C   LIG    1        2.361   4.215   2.812  0.00  0.00    -0.050 A 
ATOM     23  S   LIG    1        2.526   3.980   4.494  0.00  0.00    +0.340 S 
BRANCH  19  24
ATOM     24  C   LIG    1        0.866   1.952   5.655  0.00  0.00    +0.520 C 
ATOM     25  O   LIG    1        0.111   1.008   5.518  0.00  0.00    -0.470 OA
BRANCH  24  27
ATOM     26  C   LIG    1        0.801   1.512   8.003  0.00  0.00    +0.280 C 
ATOM     27  O   LIG    1        1.288   2.304   6.887  0.00  0.00    -0.350 OA
ENDBRANCH  24  27
ENDBRANCH  19  24
ENDBRANCH  16  20
ENDBRANCH   1  16
TORSDOF 5
