REMARK  Name = ZINCnE00000rhoa2.0
REMARK                            x       y       z     vdW  Elec       q    Type
REMARK                         _______ _______ _______ _____ _____    ______ ____
ROOT
ATOM      1  O   LIG    1        7.488   3.488   0.610  0.00  0.00    -0.550 OA
ATOM      2  C   LIG    1        7.019   2.561   1.245  0.00  0.00    +0.550 C 
ATOM      3  N   LIG    1        6.117   1.740   0.672  0.00  0.00    -0.610 N 
ATOM      4  C   LIG    1        5.606   2.015  -0.678  0.00  0.00    +0.280 C 
ATOM      5  C   LIG    1        4.075   2.035  -0.631  0.00  0.00    +0.040 C 
ATOM      6  C   LIG    1        3.570   0.725  -0.022  0.00  0.00    +0.110 C 
ATOM      7  C   LIG    1        4.096   0.590   1.409  0.00  0.00    +0.030 C 
ATOM      8  C   LIG    1        5.627   0.552   1.385  0.00  0.00    +0.280 C 
ENDROOT
BRANCH   6   9
ATOM      9  C   LIG    1        2.063   0.727  -0.006  0.00  0.00    +0.140 A 
ATOM     10  N   LIG    1        1.317   1.782   0.009  0.00  0.00    -0.320 NA
ATOM     11  N   LIG    1       -0.021   1.363   0.021  0.00  0.00    -0.380 NA
ATOM     12  C   LIG    1       -0.006   0.013   0.013  0.00  0.00    +0.350 A 
ATOM     13  S   LIG    1       -1.373  -1.018   0.022  0.00  0.00    -0.710 S 
ATOM     14  O   LIG    1        1.282  -0.371  -0.004  0.00  0.00    -0.270 OA
ENDBRANCH   6   9
BRANCH   2  15
ATOM     15  C   LIG    1        7.435   2.339   2.631  0.00  0.00    -0.070 C 
ATOM     16  C   LIG    1        8.256   3.220   3.238  0.00  0.00    +0.110 C 
BRANCH  16  17
ATOM     17  C   LIG    1        8.674   2.996   4.631  0.00  0.00    -0.070 A 
ATOM     18  C   LIG    1        8.217   1.874   5.330  0.00  0.00    +0.050 A 
ATOM     19  C   LIG    1        8.616   1.669   6.634  0.00  0.00    +0.030 A 
ATOM     20  C   LIG    1        9.460   2.575   7.254  0.00  0.00    -0.030 A 
ATOM     21  C   LIG    1        9.912   3.691   6.569  0.00  0.00    +0.030 A 
ATOM     22 CL   LIG    1        9.952   2.312   8.898  0.00  0.00    -0.070 Cl
ATOM     23  C   LIG    1        9.525   3.907   5.264  0.00  0.00    +0.060 A 
ENDBRANCH  16  17
ENDBRANCH   2  15
TORSDOF 3
