REMARK  Name = ZINCnE000001RFN8.0
REMARK                            x       y       z     vdW  Elec       q    Type
REMARK                         _______ _______ _______ _____ _____    ______ ____
ROOT
ATOM      1  N   LIG    1        4.975   4.221   4.790  0.00  0.00    -0.680 NA
ATOM      2  C   LIG    1        4.083   4.011   3.858  0.00  0.00    +0.440 A 
ATOM      3  N   LIG    1        2.741   3.806   4.044  0.00  0.00    -0.520 NA
ATOM      4  N   LIG    1        2.185   3.632   2.768  0.00  0.00    -0.270 NA
ATOM      5  C   LIG    1        3.137   3.720   1.901  0.00  0.00    +0.050 A 
ATOM      6  O   LIG    1        4.306   3.954   2.530  0.00  0.00    -0.290 OA
ENDROOT
BRANCH   5   7
ATOM      7  C   LIG    1        2.966   3.588   0.409  0.00  0.00    +0.330 C 
ATOM      8  C   LIG    1        1.467   3.570   0.025  0.00  0.00    +0.120 C 
ATOM      9  C   LIG    1        1.167   2.084   0.002  0.00  0.00    -0.150 A 
ATOM     10  C   LIG    1       -0.017   1.380   0.010  0.00  0.00    +0.050 A 
ATOM     11  C   LIG    1        0.002  -0.004   0.002  0.00  0.00    -0.030 A 
ATOM     12  C   LIG    1        1.211  -0.674  -0.013  0.00  0.00    +0.040 A 
ATOM     13  C   LIG    1        2.398   0.030  -0.026  0.00  0.00    -0.020 A 
ATOM     14  C   LIG    1        2.388   1.422  -0.022  0.00  0.00    +0.110 A 
ATOM     15  O   LIG    1        3.425   2.303  -0.044  0.00  0.00    -0.300 OA
ENDBRANCH   5   7
BRANCH   1  16
ATOM     16  C   LIG    1        4.570   4.254   6.197  0.00  0.00    +0.240 C 
BRANCH  16  23
ATOM     17  F   LIG    1        3.666   1.598   5.938  0.00  0.00    -0.120 F 
ATOM     18  C   LIG    1        4.715   1.817   6.761  0.00  0.00    +0.110 A 
ATOM     19  C   LIG    1        5.304   0.758   7.429  0.00  0.00    -0.030 A 
ATOM     20  C   LIG    1        6.373   0.984   8.275  0.00  0.00    +0.010 A 
ATOM     21  C   LIG    1        6.859   2.267   8.449  0.00  0.00    -0.020 A 
ATOM     22  C   LIG    1        6.276   3.325   7.776  0.00  0.00    +0.040 A 
ATOM     23  C   LIG    1        5.206   3.101   6.930  0.00  0.00    -0.090 A 
ENDBRANCH  16  23
ENDBRANCH   1  16
TORSDOF 3
