REMARK  Name = ZINCqH0000033zt9.0
REMARK                            x       y       z     vdW  Elec       q    Type
REMARK                         _______ _______ _______ _____ _____    ______ ____
ROOT
ATOM      1  N   LIG    1        2.585   5.235  -0.066  0.00  0.00    -0.440 N 
ATOM      2  C   LIG    1        2.045   5.869  -1.276  0.00  0.00    +0.230 C 
ATOM      3  C   LIG    1        2.260   7.382  -1.195  0.00  0.00    +0.190 C 
ATOM      4  N   LIG    1        3.695   7.664  -1.053  0.00  0.00    -0.530 NA
ATOM      5  C   LIG    1        4.236   7.029   0.158  0.00  0.00    +0.210 C 
ATOM      6  C   LIG    1        4.021   5.516   0.077  0.00  0.00    +0.210 C 
ENDROOT
BRANCH   4   7
ATOM      7  C   LIG    1        3.950   9.110  -1.047  0.00  0.00    +0.240 C 
ATOM      8  C   LIG    1        3.212   9.780   0.131  0.00  0.00    +0.000 C 
ATOM      9  C   LIG    1        2.815  11.149  -0.461  0.00  0.00    +0.090 C 
ATOM     10  C   LIG    1        2.719  10.921  -1.954  0.00  0.00    -0.090 A 
ATOM     11  C   LIG    1        2.110  11.680  -2.941  0.00  0.00    -0.020 A 
ATOM     12  C   LIG    1        2.152  11.267  -4.260  0.00  0.00    +0.030 A 
ATOM     13  C   LIG    1        2.804  10.096  -4.596  0.00  0.00    +0.020 A 
ATOM     14  C   LIG    1        3.412   9.339  -3.613  0.00  0.00    +0.050 A 
ATOM     15 CL   LIG    1        1.291  13.151  -2.520  0.00  0.00    -0.070 Cl
ATOM     16  C   LIG    1        3.372   9.750  -2.291  0.00  0.00    -0.080 A 
ENDBRANCH   4   7
BRANCH   1  20
ATOM     17  C   LIG    1        1.138   1.984  -0.166  0.00  0.00    +0.050 A 
ATOM     18  C   LIG    1        2.339   1.377  -0.036  0.00  0.00    +0.010 A 
ATOM     19  S   LIG    1        3.579   2.623   0.073  0.00  0.00    +0.090 S 
ATOM     20  C   LIG    1        2.345   3.871  -0.070  0.00  0.00    +0.270 A 
ATOM     21  N   LIG    1        1.180   3.320  -0.186  0.00  0.00    -0.460 NA
BRANCH  17  22
ATOM     22  C   LIG    1       -0.119   1.231  -0.284  0.00  0.00    +0.550 C 
ATOM     23  O   LIG    1       -0.103   0.015  -0.265  0.00  0.00    -0.500 OA
BRANCH  22  24
ATOM     24  O   LIG    1       -1.288   1.888  -0.418  0.00  0.00    -0.330 OA
BRANCH  24  26
ATOM     25  C   LIG    1       -3.707   1.995  -0.678  0.00  0.00    +0.070 C 
ATOM     26  C   LIG    1       -2.489   1.081  -0.535  0.00  0.00    +0.200 C 
ENDBRANCH  24  26
ENDBRANCH  22  24
ENDBRANCH  17  22
ENDBRANCH   1  20
TORSDOF 5
