REMARK  Name = ZINCqH0000032fLf.1
REMARK                            x       y       z     vdW  Elec       q    Type
REMARK                         _______ _______ _______ _____ _____    ______ ____
ROOT
ATOM      1  N   LIG    1        5.122  -0.854  -0.298  0.00  0.00    -0.660 NA
ATOM      2  H   LIG    1        5.767  -0.587   0.430  0.00  0.00    +0.350 HD
ENDROOT
BRANCH   1   3
ATOM      3  C   LIG    1        5.631  -2.006  -1.055  0.00  0.00    +0.210 C 
BRANCH   3   5
ATOM      4  N   LIG    1        7.689  -2.622  -2.281  0.00  0.00    -0.570 N 
ATOM      5  C   LIG    1        7.020  -1.704  -1.556  0.00  0.00    +0.520 C 
ATOM      6  O   LIG    1        7.535  -0.634  -1.306  0.00  0.00    -0.510 OA
BRANCH   4   7
ATOM      7  C   LIG    1        9.016  -2.385  -2.657  0.00  0.00    +0.140 A 
ATOM      8  C   LIG    1        9.294  -1.656  -3.806  0.00  0.00    +0.010 A 
ATOM      9  C   LIG    1       10.604  -1.420  -4.172  0.00  0.00    +0.020 A 
ATOM     10  C   LIG    1       11.639  -1.916  -3.401  0.00  0.00    +0.000 A 
ATOM     11  C   LIG    1       11.366  -2.647  -2.259  0.00  0.00    +0.020 A 
ATOM     12  C   LIG    1       10.057  -2.882  -1.885  0.00  0.00    +0.010 A 
ENDBRANCH   4   7
BRANCH   4  14
ATOM     13  C   LIG    1        6.882  -3.908  -4.198  0.00  0.00    +0.020 C 
ATOM     14  C   LIG    1        7.027  -3.868  -2.675  0.00  0.00    +0.230 C 
ATOM     15  C   LIG    1        7.867  -5.060  -2.211  0.00  0.00    +0.020 C 
ENDBRANCH   4  14
ENDBRANCH   3   5
ENDBRANCH   1   3
BRANCH   1  16
ATOM     16  C   LIG    1        3.790  -1.134   0.255  0.00  0.00    +0.230 C 
BRANCH  16  17
ATOM     17  C   LIG    1        2.869   0.020  -0.046  0.00  0.00    -0.070 A 
ATOM     18  C   LIG    1        1.558  -0.220  -0.415  0.00  0.00    +0.000 A 
ATOM     19  C   LIG    1        0.713   0.838  -0.690  0.00  0.00    -0.010 A 
ATOM     20  C   LIG    1        1.178   2.137  -0.596  0.00  0.00    +0.000 A 
ATOM     21  C   LIG    1        2.488   2.377  -0.226  0.00  0.00    -0.010 A 
ATOM     22  C   LIG    1        3.334   1.318   0.048  0.00  0.00    +0.040 A 
ENDBRANCH  16  17
BRANCH  16  23
ATOM     23  C   LIG    1        3.896  -1.321   1.770  0.00  0.00    -0.080 C 
ATOM     24  C   LIG    1        4.442  -0.041   2.405  0.00  0.00    +0.050 C 
ATOM     25  C   LIG    1        4.841  -2.485   2.075  0.00  0.00    +0.040 C 
BRANCH  23  26
ATOM     26  C   LIG    1        2.511  -1.625   2.344  0.00  0.00    +0.190 C 
BRANCH  26  27
ATOM     27  O   LIG    1        2.040  -2.868   1.821  0.00  0.00    -0.570 OA
ATOM     28  H   LIG    1        1.135  -3.088   2.082  0.00  0.00    +0.380 HD
ENDBRANCH  26  27
ENDBRANCH  23  26
ENDBRANCH  16  23
ENDBRANCH   1  16
TORSDOF 9
