REMARK  Name = ZINCtV00001bB36n.0
REMARK                            x       y       z     vdW  Elec       q    Type
REMARK                         _______ _______ _______ _____ _____    ______ ____
ROOT
ATOM      1  O   LIG    1       -3.013   4.401   0.317  0.00  0.00    -0.500 OA
ATOM      2  C   LIG    1       -2.237   5.317   0.514  0.00  0.00    +0.550 C 
ATOM      3  N   LIG    1       -0.909   5.092   0.489  0.00  0.00    -0.610 N 
ATOM      4  H   LIG    1       -0.290   5.822   0.646  0.00  0.00    +0.430 HD
ENDROOT
BRANCH   3   5
ATOM      5  C   LIG    1       -0.433   3.833   0.242  0.00  0.00    +0.240 A 
ATOM      6  N   LIG    1        0.831   3.522   0.199  0.00  0.00    -0.480 NA
ATOM      7  C   LIG    1        1.155   2.277  -0.048  0.00  0.00    +0.190 A 
ATOM      8  C   LIG    1       -0.023   1.413  -0.242  0.00  0.00    -0.220 A 
ATOM      9  S   LIG    1       -1.450   2.433  -0.066  0.00  0.00    +0.270 S 
BRANCH   8  10
ATOM     10  C   LIG    1       -0.012   0.049  -0.518  0.00  0.00    -0.150 A 
ATOM     11  C   LIG    1        0.775  -0.574  -1.489  0.00  0.00    +0.050 A 
ATOM     12  C   LIG    1        0.591  -1.918  -1.543  0.00  0.00    +0.010 A 
ATOM     13  C   LIG    1       -0.325  -2.412  -0.659  0.00  0.00    -0.080 A 
ATOM     14  S   LIG    1       -0.990  -1.164   0.295  0.00  0.00    +0.200 S 
ENDBRANCH   8  10
BRANCH   7  15
ATOM     15  C   LIG    1        2.481   1.815  -0.121  0.00  0.00    -0.160 A 
ATOM     16  C   LIG    1        3.531   2.479  -0.739  0.00  0.00    +0.050 A 
ATOM     17  C   LIG    1        4.713   1.805  -0.660  0.00  0.00    +0.000 A 
ATOM     18  C   LIG    1        4.655   0.617   0.001  0.00  0.00    -0.090 A 
ATOM     19  S   LIG    1        3.075   0.308   0.562  0.00  0.00    +0.240 S 
ENDBRANCH   7  15
ENDBRANCH   3   5
BRANCH   2  20
ATOM     20  C   LIG    1       -2.746   6.663   0.778  0.00  0.00    -0.050 C 
ATOM     21  C   LIG    1       -4.076   6.888   0.803  0.00  0.00    +0.130 C 
BRANCH  21  22
ATOM     22  C   LIG    1       -4.588   8.242   1.068  0.00  0.00    -0.020 A 
ATOM     23  C   LIG    1       -3.700   9.297   1.301  0.00  0.00    +0.050 A 
ATOM     24  C   LIG    1       -4.187  10.563   1.543  0.00  0.00    +0.110 A 
ATOM     25  C   LIG    1       -5.552  10.790   1.568  0.00  0.00    +0.000 A 
ATOM     26  C   LIG    1       -6.438   9.751   1.344  0.00  0.00    +0.110 A 
ATOM     27  C   LIG    1       -5.966   8.480   1.095  0.00  0.00    +0.070 A 
BRANCH  25  28
ATOM     28  N   LIG    1       -6.067  12.152   1.836  0.00  0.00    -0.030 N 
ATOM     29  O   LIG    1       -5.227  13.144   2.049  0.00  0.00    -0.160 OA
ATOM     30  O   LIG    1       -7.365  12.372   1.860  0.00  0.00    -0.160 OA
ENDBRANCH  25  28
ENDBRANCH  21  22
ENDBRANCH   2  20
TORSDOF 6
