REMARK  Name = ZINCrH000004qmVB.0
REMARK                            x       y       z     vdW  Elec       q    Type
REMARK                         _______ _______ _______ _____ _____    ______ ____
ROOT
ATOM      1  C   LIG    1        6.111  -0.742   5.167  0.00  0.00    +0.130 C 
ATOM      2  C   LIG    1        4.872   0.005   4.742  0.00  0.00    +0.020 A 
ATOM      3  C   LIG    1        3.906  -0.480   3.945  0.00  0.00    +0.000 A 
ATOM      4  C   LIG    1        2.907   0.589   3.806  0.00  0.00    -0.260 A 
ATOM      5  C   LIG    1        3.383   1.651   4.552  0.00  0.00    +0.120 A 
ATOM      6  C   LIG    1        2.708   2.989   4.717  0.00  0.00    +0.140 C 
ATOM      7  N   LIG    1        4.553   1.283   5.108  0.00  0.00    -0.390 N 
ENDROOT
BRANCH   7   8
ATOM      8  C   LIG    1        5.337   2.097   5.938  0.00  0.00    +0.070 A 
ATOM      9  C   LIG    1        6.312   2.917   5.388  0.00  0.00    +0.070 A 
ATOM     10  C   LIG    1        7.079   3.723   6.208  0.00  0.00    +0.020 A 
ATOM     11  C   LIG    1        6.883   3.705   7.577  0.00  0.00    +0.070 A 
ATOM     12  C   LIG    1        5.917   2.886   8.130  0.00  0.00    +0.000 A 
ATOM     13  C   LIG    1        5.142   2.081   7.315  0.00  0.00    +0.120 A 
ATOM     14  F   LIG    1        4.197   1.280   7.855  0.00  0.00    -0.130 F 
ENDBRANCH   7   8
BRANCH   4  15
ATOM     15  C   LIG    1        1.665   0.541   3.032  0.00  0.00    +0.400 C 
ATOM     16  O   LIG    1        0.929   1.505   3.006  0.00  0.00    -0.450 OA
BRANCH  15  17
ATOM     17  C   LIG    1        1.302  -0.706   2.267  0.00  0.00    +0.330 C 
BRANCH  17  18
ATOM     18  N   LIG    1        0.024  -0.503   1.581  0.00  0.00    -0.980 NA
ATOM     19  C   LIG    1       -1.235  -0.741   2.292  0.00  0.00    +0.320 C 
BRANCH  18  20
ATOM     20  S   LIG    1        0.002  -0.004   0.002  0.00  0.00    +2.720 S 
ATOM     21  O   LIG    1        1.252  -0.385  -0.556  0.00  0.00    -0.950 OA
ATOM     22  O   LIG    1       -1.247  -0.419  -0.533  0.00  0.00    -0.950 OA
BRANCH  20  23
ATOM     23  C   LIG    1       -0.022   1.758   0.012  0.00  0.00    -0.780 A 
ATOM     24  C   LIG    1        1.058   2.542   0.006  0.00  0.00    +0.170 A 
ATOM     25  C   LIG    1        0.792   3.900   0.015  0.00  0.00    -0.010 A 
ATOM     26  C   LIG    1       -0.503   4.220   0.029  0.00  0.00    +0.000 A 
ATOM     27  S   LIG    1       -1.473   2.752   0.023  0.00  0.00    +0.210 S 
ENDBRANCH  20  23
ENDBRANCH  18  20
ENDBRANCH  17  18
ENDBRANCH  15  17
ENDBRANCH   4  15
TORSDOF 6
