REMARK  Name = ZINCc70000003Xyb.0
REMARK                            x       y       z     vdW  Elec       q    Type
REMARK                         _______ _______ _______ _____ _____    ______ ____
ROOT
ATOM      1  C   LIG    1        1.109   3.084   0.008  0.00  0.00    +0.550 A 
ATOM      2  N   LIG    1        1.119   1.761   0.001  0.00  0.00    -0.530 NA
ATOM      3  C   LIG    1       -0.013   1.076   0.008  0.00  0.00    +0.470 A 
ATOM      4  C   LIG    1       -1.217   1.761   0.017  0.00  0.00    -0.850 A 
ATOM      5  C   LIG    1       -1.190   3.147   0.029  0.00  0.00    +0.500 A 
ATOM      6  N   LIG    1       -0.023   3.769   0.022  0.00  0.00    -0.570 NA
ENDROOT
BRANCH   4   7
ATOM      7  S   LIG    1       -2.749   0.890   0.020  0.00  0.00    +2.690 S 
ATOM      8  F   LIG    1       -2.469  -0.568  -0.604  0.00  0.00    -0.460 F 
ATOM      9  O   LIG    1       -3.595   1.564  -0.901  0.00  0.00    -0.920 OA
ATOM     10  O   LIG    1       -3.091   0.684   1.383  0.00  0.00    -0.910 OA
ENDBRANCH   4   7
BRANCH   1  12
ATOM     11  C   LIG    1        2.221   5.181   0.008  0.00  0.00    +0.290 C 
ATOM     12  O   LIG    1        2.287   3.754   0.000  0.00  0.00    -0.280 OA
ENDBRANCH   1  12
TORSDOF 2
