REMARK  Name = ZINCvU0000000FGC.0
REMARK                            x       y       z     vdW  Elec       q    Type
REMARK                         _______ _______ _______ _____ _____    ______ ____
ROOT
ATOM      1  C   LIG    1        0.060  -4.277  -0.021  0.00  0.00    +0.360 C 
ATOM      2  C   LIG    1        0.356  -4.781  -1.396  0.00  0.00    -0.240 A 
ATOM      3  C   LIG    1        1.517  -5.499  -1.335  0.00  0.00    +0.090 A 
ATOM      4  C   LIG    1        1.995  -5.487   0.058  0.00  0.00    +0.570 C 
ATOM      5  O   LIG    1        3.004  -6.037   0.453  0.00  0.00    -0.470 OA
ATOM      6  O   LIG    1        2.066  -6.087  -2.416  0.00  0.00    -0.180 OA
ATOM      7  C   LIG    1        1.352  -6.182  -3.561  0.00  0.00    +0.140 A 
ATOM      8  C   LIG    1        1.823  -7.000  -4.586  0.00  0.00    +0.020 A 
ATOM      9  C   LIG    1        1.119  -7.110  -5.764  0.00  0.00    +0.090 A 
ATOM     10  C   LIG    1       -0.066  -6.412  -5.952  0.00  0.00    +0.000 A 
ATOM     11  C   LIG    1       -0.554  -5.599  -4.953  0.00  0.00    +0.120 A 
ATOM     12  C   LIG    1        0.149  -5.483  -3.754  0.00  0.00    -0.210 A 
ATOM     13  C   LIG    1       -0.368  -4.621  -2.660  0.00  0.00    +0.460 A 
ATOM     14  O   LIG    1       -1.305  -3.856  -2.801  0.00  0.00    -0.430 OA
ATOM     15  N   LIG    1        1.150  -4.775   0.834  0.00  0.00    -0.530 N 
ENDROOT
BRANCH  15  16
ATOM     16  C   LIG    1        1.285  -4.549   2.207  0.00  0.00    +0.160 A 
ATOM     17  C   LIG    1        0.340  -3.788   2.883  0.00  0.00    -0.010 A 
ATOM     18  C   LIG    1        0.474  -3.571   4.240  0.00  0.00    +0.040 A 
ATOM     19  C   LIG    1        1.553  -4.101   4.924  0.00  0.00    -0.100 A 
ATOM     20  C   LIG    1        2.498  -4.854   4.253  0.00  0.00    +0.040 A 
ATOM     21  C   LIG    1        1.699  -3.857   6.404  0.00  0.00    +0.100 C 
ATOM     22  C   LIG    1        2.368  -5.080   2.896  0.00  0.00    +0.010 A 
ENDBRANCH  15  16
BRANCH   1  26
ATOM     23  C   LIG    1        0.002  -0.004   0.002  0.00  0.00    +0.150 A 
ATOM     24  C   LIG    1        1.212  -0.682  -0.019  0.00  0.00    -0.080 A 
ATOM     25  C   LIG    1        1.228  -2.064  -0.021  0.00  0.00    +0.070 A 
ATOM     26  C   LIG    1        0.040  -2.770  -0.013  0.00  0.00    -0.140 A 
ATOM     27  C   LIG    1       -1.168  -2.096   0.002  0.00  0.00    +0.090 A 
ATOM     28  C   LIG    1       -1.189  -0.715   0.010  0.00  0.00    -0.010 A 
BRANCH  23  29
ATOM     29  O   LIG    1       -0.016   1.355   0.009  0.00  0.00    -0.310 OA
BRANCH  29  31
ATOM     30  C   LIG    1        1.027   3.535   0.011  0.00  0.00    +0.070 C 
ATOM     31  C   LIG    1        1.248   2.021   0.001  0.00  0.00    +0.170 C 
ENDBRANCH  29  31
ENDBRANCH  23  29
ENDBRANCH   1  26
TORSDOF 4
