REMARK  Name = ZINCvU0000000B6L.0
REMARK                            x       y       z     vdW  Elec       q    Type
REMARK                         _______ _______ _______ _____ _____    ______ ____
ROOT
ATOM      1  C   LIG    1        4.826  -3.382  10.675  0.00  0.00    +0.180 C 
ENDROOT
BRANCH   1   2
ATOM      2  C   LIG    1        5.860  -2.703  11.535  0.00  0.00    +0.100 A 
ATOM      3  C   LIG    1        5.611  -2.309  12.786  0.00  0.00    -0.070 A 
ATOM      4  S   LIG    1        7.076  -1.568  13.426  0.00  0.00    +0.160 S 
ATOM      5  C   LIG    1        7.883  -1.861  11.948  0.00  0.00    +0.270 A 
ATOM      6  N   LIG    1        7.086  -2.455  11.116  0.00  0.00    -0.460 NA
BRANCH   5   7
ATOM      7  N   LIG    1        9.204  -1.518  11.680  0.00  0.00    -0.480 N 
ATOM      8  C   LIG    1        9.744  -1.803  10.478  0.00  0.00    +0.510 C 
ATOM      9  O   LIG    1        9.053  -2.275   9.600  0.00  0.00    -0.460 OA
ATOM     10  C   LIG    1       11.205  -1.536  10.226  0.00  0.00    +0.110 C 
BRANCH   7  11
ATOM     11  C   LIG    1        9.973  -0.876  12.658  0.00  0.00    +0.100 A 
ATOM     12  C   LIG    1       10.720  -1.625  13.558  0.00  0.00    +0.020 A 
ATOM     13  C   LIG    1       11.478  -0.989  14.522  0.00  0.00    +0.040 A 
ATOM     14  C   LIG    1       11.495   0.392  14.591  0.00  0.00    +0.030 A 
ATOM     15  C   LIG    1       10.752   1.141  13.696  0.00  0.00    -0.070 A 
ATOM     16  C   LIG    1       10.773   2.645  13.774  0.00  0.00    +0.100 C 
ATOM     17  C   LIG    1        9.996   0.511  12.727  0.00  0.00    +0.030 A 
ENDBRANCH   7  11
ENDBRANCH   5   7
ENDBRANCH   1   2
BRANCH   1  18
ATOM     18  S   LIG    1        3.896  -2.132   9.746  0.00  0.00    +0.050 S 
BRANCH  18  21
ATOM     19  C   LIG    1        1.158  -3.610   7.439  0.00  0.00    +0.340 A 
ATOM     20  N   LIG    1        1.848  -2.616   7.961  0.00  0.00    -0.510 NA
ATOM     21  C   LIG    1        2.755  -3.097   8.814  0.00  0.00    +0.210 A 
ATOM     22  N   LIG    1        2.664  -4.407   8.841  0.00  0.00    -0.310 NA
ATOM     23  N   LIG    1        1.634  -4.765   7.956  0.00  0.00    -0.470 N 
ATOM     24  H   LIG    1        1.325  -5.662   7.756  0.00  0.00    +0.440 HD
BRANCH  19  28
ATOM     25  C   LIG    1       -1.993  -3.250   4.611  0.00  0.00    -0.060 A 
ATOM     26  C   LIG    1       -1.611  -4.501   5.061  0.00  0.00    +0.010 A 
ATOM     27  C   LIG    1       -0.584  -4.625   5.975  0.00  0.00    +0.030 A 
ATOM     28  C   LIG    1        0.061  -3.485   6.454  0.00  0.00    -0.050 A 
ATOM     29  C   LIG    1       -0.333  -2.225   6.000  0.00  0.00    +0.080 A 
ATOM     30  C   LIG    1       -1.357  -2.115   5.082  0.00  0.00    +0.010 A 
BRANCH  25  32
ATOM     31  C   LIG    1       -2.533  -3.168   2.192  0.00  0.00    +0.030 C 
ATOM     32  C   LIG    1       -3.111  -3.122   3.608  0.00  0.00    +0.070 C 
ENDBRANCH  25  32
ENDBRANCH  19  28
ENDBRANCH  18  21
ENDBRANCH   1  18
TORSDOF 7
