REMARK  Name = ZINCvU0000000B6L.1
REMARK                            x       y       z     vdW  Elec       q    Type
REMARK                         _______ _______ _______ _____ _____    ______ ____
ROOT
ATOM      1  C   LIG    1       -4.828  -0.542   0.239  0.00  0.00    +0.220 C 
ENDROOT
BRANCH   1   2
ATOM      2  C   LIG    1       -3.401  -1.023   0.201  0.00  0.00    +0.100 A 
ATOM      3  C   LIG    1       -3.074  -2.316   0.253  0.00  0.00    -0.070 A 
ATOM      4  S   LIG    1       -1.318  -2.439   0.174  0.00  0.00    +0.160 S 
ATOM      5  C   LIG    1       -1.193  -0.736   0.089  0.00  0.00    +0.270 A 
ATOM      6  N   LIG    1       -2.373  -0.200   0.113  0.00  0.00    -0.460 NA
BRANCH   5   7
ATOM      7  N   LIG    1        0.002  -0.028  -0.000  0.00  0.00    -0.480 N 
ATOM      8  C   LIG    1       -0.009   1.319   0.032  0.00  0.00    +0.510 C 
ATOM      9  O   LIG    1       -1.064   1.917   0.031  0.00  0.00    -0.460 OA
ATOM     10  C   LIG    1        1.290   2.083   0.063  0.00  0.00    +0.120 C 
BRANCH   7  11
ATOM     11  C   LIG    1        1.216  -0.716  -0.123  0.00  0.00    +0.110 A 
ATOM     12  C   LIG    1        1.677  -1.505   0.922  0.00  0.00    +0.010 A 
ATOM     13  C   LIG    1        2.875  -2.182   0.797  0.00  0.00    +0.040 A 
ATOM     14  C   LIG    1        3.614  -2.074  -0.366  0.00  0.00    +0.020 A 
ATOM     15  C   LIG    1        3.158  -1.287  -1.408  0.00  0.00    -0.070 A 
ATOM     16  C   LIG    1        3.967  -1.172  -2.674  0.00  0.00    +0.100 C 
ATOM     17  C   LIG    1        1.958  -0.613  -1.292  0.00  0.00    +0.020 A 
ENDBRANCH   7  11
ENDBRANCH   5   7
ENDBRANCH   1   2
BRANCH   1  18
ATOM     18  S   LIG    1       -5.474  -0.436  -1.449  0.00  0.00    +0.030 S 
BRANCH  18  23
ATOM     19  C   LIG    1       -8.881   0.797  -0.053  0.00  0.00    +0.280 A 
ATOM     20  N   LIG    1       -9.197   0.819  -1.328  0.00  0.00    -0.300 NA
ATOM     21  N   LIG    1       -8.062   0.392  -2.037  0.00  0.00    -0.460 N 
ATOM     22  H   LIG    1       -7.980   0.301  -3.000  0.00  0.00    +0.450 HD
ATOM     23  C   LIG    1       -7.108   0.133  -1.116  0.00  0.00    +0.260 A 
ATOM     24  N   LIG    1       -7.615   0.375   0.074  0.00  0.00    -0.530 NA
BRANCH  19  28
ATOM     25  C   LIG    1      -11.463   1.869   3.152  0.00  0.00    -0.060 A 
ATOM     26  C   LIG    1      -11.918   1.937   1.847  0.00  0.00    +0.010 A 
ATOM     27  C   LIG    1      -11.085   1.591   0.803  0.00  0.00    +0.050 A 
ATOM     28  C   LIG    1       -9.782   1.171   1.065  0.00  0.00    -0.020 A 
ATOM     29  C   LIG    1       -9.330   1.100   2.381  0.00  0.00    +0.060 A 
ATOM     30  C   LIG    1      -10.170   1.454   3.417  0.00  0.00    +0.010 A 
BRANCH  25  32
ATOM     31  C   LIG    1      -13.144   1.011   4.760  0.00  0.00    +0.030 C 
ATOM     32  C   LIG    1      -12.377   2.248   4.287  0.00  0.00    +0.050 C 
ENDBRANCH  25  32
ENDBRANCH  19  28
ENDBRANCH  18  23
ENDBRANCH   1  18
TORSDOF 7
