REMARK  Name = ZINCpk00000y6zbs.0
REMARK                            x       y       z     vdW  Elec       q    Type
REMARK                         _______ _______ _______ _____ _____    ______ ____
ROOT
ATOM      1  C   LIG    1       -1.712   3.490  -0.028  0.00  0.00    +0.080 C 
ATOM      2  C   LIG    1       -0.878   3.105   1.196  0.00  0.00    +0.030 C 
ATOM      3  C   LIG    1       -0.736   1.583   1.264  0.00  0.00    +0.010 C 
ATOM      4  C   LIG    1       -0.013   1.086   0.008  0.00  0.00    +0.260 C 
ATOM      5  N   LIG    1       -0.729   1.575  -1.178  0.00  0.00    -0.610 N 
ATOM      6  C   LIG    1       -1.132   0.720  -2.138  0.00  0.00    +0.540 C 
ATOM      7  O   LIG    1       -1.722   1.136  -3.113  0.00  0.00    -0.520 OA
ATOM      8  C   LIG    1       -0.997   3.015  -1.297  0.00  0.00    +0.290 C 
ENDROOT
BRANCH   1  11
ATOM      9  C   LIG    1       -1.519   7.163   0.101  0.00  0.00    -0.050 A 
ATOM     10  C   LIG    1       -0.930   5.931   0.331  0.00  0.00    +0.030 A 
ATOM     11  C   LIG    1       -1.876   4.987  -0.075  0.00  0.00    +0.040 A 
ATOM     12  N   LIG    1       -2.933   5.634  -0.496  0.00  0.00    -0.260 NA
ATOM     13  N   LIG    1       -2.760   6.904  -0.408  0.00  0.00    -0.380 N 
ATOM     14  H   LIG    1       -3.410   7.576  -0.664  0.00  0.00    +0.440 HD
BRANCH   9  18
ATOM     15  N   LIG    1       -1.633   9.602   0.088  0.00  0.00    -0.850 N 
ATOM     16  H   LIG    1       -1.244  10.475   0.259  0.00  0.00    +0.410 HD
ATOM     17  H   LIG    1       -2.529   9.534  -0.278  0.00  0.00    +0.400 HD
ATOM     18  C   LIG    1       -0.929   8.486   0.360  0.00  0.00    +0.600 C 
ATOM     19  O   LIG    1        0.194   8.572   0.819  0.00  0.00    -0.520 OA
ENDBRANCH   9  18
ENDBRANCH   1  11
BRANCH   6  20
ATOM     20  C   LIG    1       -0.849  -0.754  -2.002  0.00  0.00    -0.050 C 
ATOM     21  C   LIG    1        0.160  -1.373  -2.971  0.00  0.00    +0.070 C 
ATOM     22  C   LIG    1       -1.332  -1.673  -3.125  0.00  0.00    +0.040 C 
BRANCH  22  23
ATOM     23  C   LIG    1       -2.054  -1.036  -4.284  0.00  0.00    -0.100 A 
ATOM     24  C   LIG    1       -3.357  -1.402  -4.587  0.00  0.00    +0.060 A 
ATOM     25  C   LIG    1       -3.982  -0.789  -5.662  0.00  0.00    -0.050 A 
ATOM     26  C   LIG    1       -3.292   0.162  -6.390  0.00  0.00    +0.250 A 
ATOM     27  N   LIG    1       -2.053   0.486  -6.072  0.00  0.00    -0.490 NA
ATOM     28  C   LIG    1       -1.429  -0.073  -5.054  0.00  0.00    +0.300 A 
ENDBRANCH  22  23
ENDBRANCH   6  20
TORSDOF 4
