REMARK  Name = ZINCpe00000VVGNp.0
REMARK                            x       y       z     vdW  Elec       q    Type
REMARK                         _______ _______ _______ _____ _____    ______ ____
ROOT
ATOM      1  C   LIG    1        1.262  -4.247  -5.778  0.00  0.00    +0.360 C 
ATOM      2  N   LIG    1        1.968  -3.822  -4.566  0.00  0.00    -0.510 N 
ATOM      3  C   LIG    1        3.314  -3.828  -4.536  0.00  0.00    +0.720 A 
ATOM      4  N   LIG    1        3.997  -3.444  -3.443  0.00  0.00    -0.530 N 
ATOM      5  C   LIG    1        3.353  -3.037  -2.330  0.00  0.00    +0.600 A 
ATOM      6  C   LIG    1        1.942  -3.016  -2.317  0.00  0.00    -0.130 A 
ATOM      7  N   LIG    1        0.986  -2.670  -1.383  0.00  0.00    -0.380 N 
ATOM      8  C   LIG    1       -0.217  -2.867  -1.959  0.00  0.00    +0.270 A 
ATOM      9 BR   LIG    1       -1.887  -2.560  -1.127  0.00  0.00    +0.110 Br
ATOM     10  N   LIG    1       -0.053  -3.302  -3.184  0.00  0.00    -0.460 NA
ATOM     11  O   LIG    1        3.982  -2.692  -1.345  0.00  0.00    -0.500 OA
ATOM     12  O   LIG    1        3.928  -4.189  -5.522  0.00  0.00    -0.530 OA
ATOM     13  C   LIG    1        1.250  -3.415  -3.454  0.00  0.00    +0.330 A 
ENDROOT
BRANCH   7  14
ATOM     14  C   LIG    1        1.231  -2.186  -0.022  0.00  0.00    +0.390 C 
BRANCH  14  15
ATOM     15  C   LIG    1        1.227  -0.679  -0.016  0.00  0.00    -0.100 A 
ATOM     16  C   LIG    1        1.129   0.017  -1.206  0.00  0.00    +0.030 A 
ATOM     17  C   LIG    1        1.125   1.399  -1.202  0.00  0.00    +0.030 A 
ATOM     18  C   LIG    1        1.219   2.087  -0.006  0.00  0.00    +0.040 A 
ATOM     19  C   LIG    1        1.318   1.392   1.185  0.00  0.00    +0.040 A 
ATOM     20  C   LIG    1        1.322   0.009   1.181  0.00  0.00    -0.020 A 
ATOM     21 CL   LIG    1        1.445  -0.864   2.676  0.00  0.00    -0.060 Cl
ENDBRANCH  14  15
ENDBRANCH   7  14
BRANCH   4  22
ATOM     22  C   LIG    1        5.461  -3.469  -3.462  0.00  0.00    +0.370 C 
BRANCH  22  23
ATOM     23  C   LIG    1        5.980  -2.140  -3.948  0.00  0.00    +0.510 C 
ATOM     24  O   LIG    1        5.202  -1.259  -4.249  0.00  0.00    -0.530 OA
ATOM     25  N   LIG    1        7.307  -1.930  -4.048  0.00  0.00    -0.850 N 
ATOM     26  H   LIG    1        7.641  -1.075  -4.361  0.00  0.00    +0.410 HD
ATOM     27  H   LIG    1        7.929  -2.635  -3.807  0.00  0.00    +0.400 HD
ENDBRANCH  22  23
ENDBRANCH   4  22
TORSDOF 4
