REMARK  Name = ZINCpk00000ebcnb.0
REMARK                            x       y       z     vdW  Elec       q    Type
REMARK                         _______ _______ _______ _____ _____    ______ ____
ROOT
ATOM      1  N   LIG    1       -2.444  -0.107  -0.010  0.00  0.00    -0.720 N 
ATOM      2  H   LIG    1       -2.459   0.863   0.007  0.00  0.00    +0.400 HD
ATOM      3  C   LIG    1       -1.267  -0.763  -0.025  0.00  0.00    +0.560 C 
ATOM      4  O   LIG    1       -1.248  -1.978  -0.046  0.00  0.00    -0.520 OA
ENDROOT
BRANCH   1  12
ATOM      5  C   LIG    1       -7.552   0.602  -2.079  0.00  0.00    +0.200 C 
ATOM      6  C   LIG    1       -7.277  -0.428  -1.015  0.00  0.00    +0.180 A 
ATOM      7  N   LIG    1       -8.140  -1.271  -0.508  0.00  0.00    -0.290 NA
ATOM      8  N   LIG    1       -7.561  -2.006   0.380  0.00  0.00    -0.290 NA
ATOM      9  C   LIG    1       -6.312  -1.664   0.477  0.00  0.00    +0.180 A 
ATOM     10  C   LIG    1       -5.249  -2.238   1.379  0.00  0.00    +0.180 C 
ATOM     11  C   LIG    1       -4.070  -1.256   1.412  0.00  0.00    +0.030 C 
ATOM     12  C   LIG    1       -3.702  -0.859  -0.020  0.00  0.00    +0.250 C 
ATOM     13  C   LIG    1       -4.814   0.014  -0.613  0.00  0.00    +0.300 C 
ATOM     14  N   LIG    1       -6.098  -0.656  -0.406  0.00  0.00    -0.470 N 
ENDBRANCH   1  12
BRANCH   3  15
ATOM     15  C   LIG    1        0.002  -0.004  -0.015  0.00  0.00    -0.110 A 
ATOM     16  C   LIG    1       -0.017   1.392   0.010  0.00  0.00    +0.020 A 
ATOM     17  C   LIG    1        1.169   2.098   0.019  0.00  0.00    +0.040 A 
ATOM     18  C   LIG    1        2.378   1.427   0.004  0.00  0.00    +0.000 A 
ATOM     19  C   LIG    1        2.407   0.038  -0.021  0.00  0.00    +0.160 A 
ATOM     20  C   LIG    1        1.222  -0.680  -0.030  0.00  0.00    +0.070 A 
BRANCH  19  21
ATOM     21  N   LIG    1        3.634  -0.636  -0.036  0.00  0.00    -0.560 N 
ATOM     22  C   LIG    1        4.940   0.024  -0.151  0.00  0.00    +0.260 C 
ATOM     23  C   LIG    1        5.929  -1.089  -0.561  0.00  0.00    +0.060 C 
ATOM     24  C   LIG    1        5.230  -2.352  -0.008  0.00  0.00    +0.070 C 
ATOM     25  C   LIG    1        3.768  -1.970   0.057  0.00  0.00    +0.510 C 
ATOM     26  O   LIG    1        2.849  -2.754   0.174  0.00  0.00    -0.500 OA
ENDBRANCH  19  21
ENDBRANCH   3  15
TORSDOF 3
