REMARK  Name = ZINCvU00000007hE.0
REMARK                            x       y       z     vdW  Elec       q    Type
REMARK                         _______ _______ _______ _____ _____    ______ ____
ROOT
ATOM      1  C   LIG    1        1.115   5.872   1.451  0.00  0.00    +0.270 C 
ENDROOT
BRANCH   1   4
ATOM      2  N   LIG    1       -0.587   7.663   1.323  0.00  0.00    -0.670 N 
ATOM      3  H   LIG    1       -0.669   7.613   2.288  0.00  0.00    +0.410 HD
ATOM      4  C   LIG    1        0.236   6.816   0.672  0.00  0.00    +0.510 C 
ATOM      5  O   LIG    1        0.268   6.814  -0.540  0.00  0.00    -0.490 OA
BRANCH   2  11
ATOM      6  C   LIG    1       -2.260   8.204  -0.332  0.00  0.00    -0.050 A 
ATOM      7  C   LIG    1       -2.987   9.145  -1.035  0.00  0.00    +0.010 A 
ATOM      8  C   LIG    1       -2.774  10.493  -0.813  0.00  0.00    +0.010 A 
ATOM      9  C   LIG    1       -1.837  10.903   0.117  0.00  0.00    +0.020 A 
ATOM     10  C   LIG    1       -1.110   9.968   0.827  0.00  0.00    -0.070 A 
ATOM     11  C   LIG    1       -1.321   8.613   0.606  0.00  0.00    +0.130 A 
BRANCH   6  13
ATOM     12  C   LIG    1       -3.585   6.225   0.359  0.00  0.00    +0.030 C 
ATOM     13  C   LIG    1       -2.490   6.735  -0.579  0.00  0.00    +0.020 C 
ATOM     14  C   LIG    1       -2.922   6.523  -2.031  0.00  0.00    +0.030 C 
ENDBRANCH   6  13
BRANCH  10  15
ATOM     15  C   LIG    1       -0.087  10.416   1.839  0.00  0.00    +0.020 C 
ATOM     16  C   LIG    1       -0.775  11.249   2.923  0.00  0.00    +0.040 C 
ATOM     17  C   LIG    1        0.980  11.264   1.144  0.00  0.00    +0.040 C 
ENDBRANCH  10  15
ENDBRANCH   2  11
ENDBRANCH   1   4
BRANCH   1  18
ATOM     18  O   LIG    1        1.901   5.071   0.530  0.00  0.00    -0.320 OA
BRANCH  18  19
ATOM     19  C   LIG    1        2.745   4.170   1.069  0.00  0.00    +0.560 C 
ATOM     20  O   LIG    1        2.823   4.057   2.276  0.00  0.00    -0.490 OA
BRANCH  19  21
ATOM     21  C   LIG    1        3.576   3.320   0.194  0.00  0.00    -0.000 A 
ATOM     22  N   LIG    1        3.592   3.338  -1.125  0.00  0.00    -0.210 NA
ATOM     23  N   LIG    1        4.428   2.472  -1.574  0.00  0.00    -0.370 N 
ATOM     24  H   LIG    1        4.608   2.307  -2.513  0.00  0.00    +0.450 HD
ATOM     25  C   LIG    1        5.024   1.817  -0.537  0.00  0.00    +0.060 A 
ATOM     26  C   LIG    1        4.500   2.338   0.613  0.00  0.00    +0.020 A 
BRANCH  25  27
ATOM     27  C   LIG    1        6.044   0.750  -0.637  0.00  0.00    -0.020 A 
ATOM     28  C   LIG    1        6.571   0.174   0.519  0.00  0.00    +0.060 A 
ATOM     29  C   LIG    1        7.517  -0.825   0.420  0.00  0.00    +0.040 A 
ATOM     30  C   LIG    1        7.952  -1.249  -0.824  0.00  0.00    -0.030 A 
ATOM     31  C   LIG    1        7.437  -0.677  -1.975  0.00  0.00    +0.040 A 
ATOM     32 CL   LIG    1        9.148  -2.502  -0.942  0.00  0.00    -0.060 Cl
ATOM     33  C   LIG    1        6.486   0.319  -1.888  0.00  0.00    +0.030 A 
ENDBRANCH  25  27
ENDBRANCH  19  21
ENDBRANCH  18  19
ENDBRANCH   1  18
TORSDOF 8
