REMARK  Name = ZINCnE000001TBGT.0
REMARK                            x       y       z     vdW  Elec       q    Type
REMARK                         _______ _______ _______ _____ _____    ______ ____
ROOT
ATOM      1  C   LIG    1       -3.886   1.403   3.128  0.00  0.00    +0.010 C 
ATOM      2  C   LIG    1       -4.772   1.999   2.033  0.00  0.00    +0.020 C 
ATOM      3  C   LIG    1       -4.709   3.526   2.101  0.00  0.00    +0.020 C 
ATOM      4  C   LIG    1       -5.204   3.997   3.470  0.00  0.00    +0.020 C 
ATOM      5  C   LIG    1       -4.318   3.400   4.565  0.00  0.00    +0.020 C 
ATOM      6  C   LIG    1       -4.381   1.873   4.497  0.00  0.00    +0.010 C 
ENDROOT
BRANCH   4   7
ATOM      7  C   LIG    1       -5.142   5.501   3.537  0.00  0.00    -0.070 A 
ATOM      8  C   LIG    1       -3.931   6.150   3.383  0.00  0.00    +0.010 A 
ATOM      9  C   LIG    1       -3.875   7.530   3.439  0.00  0.00    +0.000 A 
ATOM     10  C   LIG    1       -5.027   8.261   3.660  0.00  0.00    -0.010 A 
ATOM     11  C   LIG    1       -6.237   7.611   3.818  0.00  0.00    +0.000 A 
ATOM     12  C   LIG    1       -6.295   6.231   3.757  0.00  0.00    +0.000 A 
ENDBRANCH   4   7
BRANCH   1  13
ATOM     13  C   LIG    1       -2.442   1.863   2.923  0.00  0.00    +0.040 C 
BRANCH  13  19
ATOM     14  C   LIG    1       -0.013   1.086   0.008  0.00  0.00    +0.120 C 
ATOM     15  C   LIG    1        1.431   1.630  -0.003  0.00  0.00    +0.030 C 
ATOM     16  C   LIG    1        1.704   1.923   1.496  0.00  0.00    +0.020 C 
ATOM     17  C   LIG    1        0.312   2.406   1.977  0.00  0.00    +0.230 C 
ATOM     18  N   LIG    1       -0.653   1.570   1.240  0.00  0.00    -0.590 N 
ATOM     19  C   LIG    1       -1.913   1.296   1.630  0.00  0.00    +0.530 C 
ATOM     20  O   LIG    1       -2.622   0.594   0.941  0.00  0.00    -0.530 OA
BRANCH  14  22
ATOM     21  O   LIG    1       -0.496   1.164  -2.306  0.00  0.00    -0.700 OA
ATOM     22  C   LIG    1       -0.761   1.595  -1.197  0.00  0.00    +0.500 C 
ATOM     23  O   LIG    1       -1.633   2.437  -1.062  0.00  0.00    -0.680 OA
ENDBRANCH  14  22
ENDBRANCH  13  19
ENDBRANCH   1  13
TORSDOF 4
