REMARK  Name = ZINCpk000000o9Sk.0
REMARK                            x       y       z     vdW  Elec       q    Type
REMARK                         _______ _______ _______ _____ _____    ______ ____
ROOT
ATOM      1  C   LIG    1        0.117   1.000   2.802  0.00  0.00    +0.150 A 
ATOM      2  C   LIG    1       -0.235   1.243   4.126  0.00  0.00    -0.020 A 
ATOM      3  C   LIG    1        0.543   0.710   5.138  0.00  0.00    +0.200 A 
ATOM      4  C   LIG    1        1.651  -0.051   4.792  0.00  0.00    -0.750 A 
ATOM      5  C   LIG    1        1.942  -0.253   3.457  0.00  0.00    +0.390 A 
ATOM      6  N   LIG    1        1.180   0.263   2.512  0.00  0.00    -0.510 NA
ENDROOT
BRANCH   4   7
ATOM      7  S   LIG    1        2.675  -0.753   6.042  0.00  0.00    +2.700 S 
ATOM      8  O   LIG    1        2.486   0.039   7.207  0.00  0.00    -0.950 OA
ATOM      9  O   LIG    1        3.947  -0.967   5.445  0.00  0.00    -0.950 OA
BRANCH   7  10
ATOM     10  N   LIG    1        2.065  -2.252   6.392  0.00  0.00    -1.000 NA
ATOM     11  C   LIG    1        1.053  -2.430   7.445  0.00  0.00    +0.280 C 
ATOM     12  C   LIG    1       -0.111  -3.245   6.858  0.00  0.00    +0.220 C 
ATOM     13  O   LIG    1        0.404  -4.439   6.264  0.00  0.00    -0.370 OA
ATOM     14  C   LIG    1        1.291  -4.211   5.166  0.00  0.00    +0.210 C 
ATOM     15  C   LIG    1        2.523  -3.445   5.663  0.00  0.00    +0.270 C 
ENDBRANCH   7  10
ENDBRANCH   4   7
BRANCH   1  16
ATOM     16  S   LIG    1       -0.862   1.671   1.500  0.00  0.00    +0.040 S 
BRANCH  16  17
ATOM     17  C   LIG    1       -0.013   1.086   0.008  0.00  0.00    +0.090 C 
BRANCH  17  20
ATOM     18  N   LIG    1       -0.288   1.272  -2.443  0.00  0.00    -0.720 N 
ATOM     19  H   LIG    1        0.507   0.726  -2.543  0.00  0.00    +0.400 HD
ATOM     20  C   LIG    1       -0.742   1.585  -1.213  0.00  0.00    +0.530 C 
ATOM     21  O   LIG    1       -1.736   2.268  -1.088  0.00  0.00    -0.520 OA
BRANCH  18  22
ATOM     22  C   LIG    1       -0.997   1.758  -3.630  0.00  0.00    +0.230 C 
BRANCH  22  24
ATOM     23  C   LIG    1       -0.906   4.128  -2.845  0.00  0.00    +0.010 C 
ATOM     24  C   LIG    1       -0.514   3.169  -3.971  0.00  0.00    -0.010 C 
ENDBRANCH  22  24
BRANCH  22  25
ATOM     25  C   LIG    1       -0.716   0.824  -4.809  0.00  0.00    +0.020 C 
ATOM     26  C   LIG    1       -1.310  -0.556  -4.519  0.00  0.00    +0.020 C 
ENDBRANCH  22  25
ENDBRANCH  18  22
ENDBRANCH  17  20
ENDBRANCH  16  17
ENDBRANCH   1  16
TORSDOF 8
