REMARK  Name = ZINCvU00000004pR.0
REMARK                            x       y       z     vdW  Elec       q    Type
REMARK                         _______ _______ _______ _____ _____    ______ ____
ROOT
ATOM      1  C   LIG    1        0.320   4.607  -0.766  0.00  0.00    +0.510 C 
ATOM      2  N   LIG    1        1.397   5.367  -1.045  0.00  0.00    -0.610 N 
ATOM      3  C   LIG    1        2.229   5.913   0.036  0.00  0.00    +0.280 C 
ATOM      4  C   LIG    1        3.689   5.509  -0.218  0.00  0.00    +0.030 C 
ATOM      5  C   LIG    1        4.102   5.965  -1.619  0.00  0.00    +0.000 C 
ATOM      6  C   LIG    1        3.222   5.274  -2.663  0.00  0.00    +0.060 C 
ATOM      7  C   LIG    1        1.760   5.671  -2.437  0.00  0.00    +0.290 C 
ATOM      8  O   LIG    1       -0.361   4.167  -1.668  0.00  0.00    -0.510 OA
ENDROOT
BRANCH   5   9
ATOM      9  C   LIG    1        5.545   5.604  -1.860  0.00  0.00    +0.520 C 
ATOM     10  N   LIG    1        6.507   6.101  -1.058  0.00  0.00    -0.670 N 
ATOM     11  H   LIG    1        6.266   6.630  -0.281  0.00  0.00    +0.410 HD
ATOM     12  O   LIG    1        5.840   4.866  -2.776  0.00  0.00    -0.510 OA
BRANCH  10  13
ATOM     13  C   LIG    1        7.854   5.853  -1.345  0.00  0.00    +0.140 A 
ATOM     14  C   LIG    1        8.771   5.716  -0.311  0.00  0.00    -0.030 A 
ATOM     15  C   LIG    1       10.099   5.466  -0.598  0.00  0.00    +0.030 A 
ATOM     16  C   LIG    1       10.518   5.365  -1.912  0.00  0.00    -0.010 A 
ATOM     17  C   LIG    1        9.607   5.507  -2.943  0.00  0.00    +0.030 A 
ATOM     18  C   LIG    1        8.277   5.751  -2.663  0.00  0.00    +0.010 A 
ENDBRANCH  10  13
ENDBRANCH   5   9
BRANCH   1  19
ATOM     19  C   LIG    1       -0.039   4.305   0.666  0.00  0.00    +0.340 C 
BRANCH  19  25
ATOM     20  C   LIG    1       -1.156   2.107   0.803  0.00  0.00    +0.130 A 
ATOM     21  C   LIG    1       -2.303   1.415   0.824  0.00  0.00    -0.010 A 
ATOM     22  S   LIG    1       -3.587   2.633   0.714  0.00  0.00    +0.160 S 
ATOM     23  C   LIG    1       -2.470   4.008   0.637  0.00  0.00    +0.240 A 
ATOM     24  S   LIG    1       -2.871   5.667   0.509  0.00  0.00    -0.470 S 
ATOM     25  N   LIG    1       -1.241   3.468   0.702  0.00  0.00    -0.430 N 
BRANCH  20  30
ATOM     26  C   LIG    1        3.933  -0.566   1.092  0.00  0.00    +0.100 C 
ATOM     27  C   LIG    1        2.601   0.135   1.017  0.00  0.00    -0.060 A 
ATOM     28  C   LIG    1        1.622  -0.145   1.953  0.00  0.00    +0.010 A 
ATOM     29  C   LIG    1        0.400   0.493   1.891  0.00  0.00    +0.050 A 
ATOM     30  C   LIG    1        0.154   1.423   0.880  0.00  0.00    -0.070 A 
ATOM     31  C   LIG    1        1.146   1.701  -0.062  0.00  0.00    +0.030 A 
ATOM     32  C   LIG    1        2.363   1.056   0.013  0.00  0.00    +0.010 A 
ENDBRANCH  20  30
ENDBRANCH  19  25
ENDBRANCH   1  19
TORSDOF 5
