REMARK  Name = ZINCkj000005ldRh.0
REMARK                            x       y       z     vdW  Elec       q    Type
REMARK                         _______ _______ _______ _____ _____    ______ ____
ROOT
ATOM      1  N   LIG    1       -1.190   3.529   0.137  0.00  0.00    -0.680 NA
ATOM      2  H   LIG    1       -0.345   4.005   0.136  0.00  0.00    +0.430 HD
ENDROOT
BRANCH   1   3
ATOM      3  C   LIG    1       -1.206   2.159   0.019  0.00  0.00    +0.740 C 
BRANCH   3   4
ATOM      4  N   LIG    1       -0.025   1.456   0.009  0.00  0.00    -0.620 NA
ATOM      5  C   LIG    1        0.133   0.253  -0.823  0.00  0.00    +0.270 C 
ATOM      6  C   LIG    1        1.427   0.392  -1.635  0.00  0.00    +0.250 C 
ATOM      7  O   LIG    1        2.507   0.698  -0.749  0.00  0.00    -0.360 OA
ATOM      8  C   LIG    1        2.362   1.941  -0.058  0.00  0.00    +0.220 C 
ATOM      9  C   LIG    1        1.117   1.881   0.834  0.00  0.00    +0.290 C 
ENDBRANCH   3   4
BRANCH   3  10
ATOM     10  N   LIG    1       -2.341   1.527  -0.082  0.00  0.00    -0.770 NA
ATOM     11  H   LIG    1       -2.358   0.557  -0.088  0.00  0.00    +0.440 HD
ATOM     12  H   LIG    1       -3.170   2.026  -0.152  0.00  0.00    +0.440 HD
ENDBRANCH   3  10
ENDBRANCH   1   3
BRANCH   1  13
ATOM     13  C   LIG    1       -2.448   4.268   0.265  0.00  0.00    +0.350 C 
BRANCH  13  14
ATOM     14  C   LIG    1       -2.156   5.742   0.378  0.00  0.00    -0.120 A 
ATOM     15  C   LIG    1       -2.171   6.350   1.595  0.00  0.00    +0.090 A 
ATOM     16  C   LIG    1       -1.898   7.710   1.723  0.00  0.00    +0.010 A 
ATOM     17  C   LIG    1       -1.619   8.473   0.630  0.00  0.00    +0.080 A 
ATOM     18  C   LIG    1       -1.600   7.880  -0.643  0.00  0.00    -0.110 A 
ATOM     19  C   LIG    1       -1.317   8.632  -1.798  0.00  0.00    +0.110 A 
ATOM     20  C   LIG    1       -1.317   7.988  -3.003  0.00  0.00    -0.020 A 
ATOM     21  C   LIG    1       -1.592   6.624  -3.062  0.00  0.00    +0.310 A 
ATOM     22  N   LIG    1       -1.857   5.926  -1.984  0.00  0.00    -0.490 NA
ATOM     23  C   LIG    1       -1.872   6.495  -0.775  0.00  0.00    +0.140 A 
ENDBRANCH  13  14
ENDBRANCH   1  13
TORSDOF 5
