REMARK  Name = ZINCqH0000050LWV.0
REMARK                            x       y       z     vdW  Elec       q    Type
REMARK                         _______ _______ _______ _____ _____    ______ ____
ROOT
ATOM      1  C   LIG    1       -3.732   7.446  -0.243  0.00  0.00    +0.060 A 
ATOM      2  C   LIG    1       -2.564   8.194  -0.243  0.00  0.00    +0.080 A 
ATOM      3  C   LIG    1       -1.340   7.562  -0.151  0.00  0.00    +0.010 A 
ATOM      4  C   LIG    1       -1.278   6.180  -0.058  0.00  0.00    +0.130 A 
ATOM      5  C   LIG    1       -2.446   5.431  -0.064  0.00  0.00    -0.040 A 
ATOM      6  C   LIG    1       -3.671   6.063  -0.150  0.00  0.00    +0.070 A 
ENDROOT
BRANCH   1   7
ATOM      7  O   LIG    1       -4.938   8.068  -0.334  0.00  0.00    -0.220 OA
BRANCH   7  11
ATOM      8  C   LIG    1       -3.883   8.911  -4.912  0.00  0.00    +0.190 C 
ATOM      9  C   LIG    1       -4.840   8.971  -3.749  0.00  0.00    +0.430 A 
ATOM     10  N   LIG    1       -4.472   8.504  -2.568  0.00  0.00    -0.630 NA
ATOM     11  C   LIG    1       -5.314   8.551  -1.541  0.00  0.00    +0.570 A 
ATOM     12  N   LIG    1       -6.522   9.077  -1.698  0.00  0.00    -0.610 NA
ATOM     13  C   LIG    1       -6.888   9.550  -2.885  0.00  0.00    +0.630 A 
ATOM     14  N   LIG    1       -6.042   9.496  -3.910  0.00  0.00    -0.620 NA
BRANCH  13  15
ATOM     15  N   LIG    1       -8.144  10.098  -3.053  0.00  0.00    -0.570 N 
ATOM     16  C   LIG    1       -8.546  10.620  -4.362  0.00  0.00    +0.310 C 
ATOM     17  C   LIG    1       -9.075  10.157  -1.924  0.00  0.00    +0.310 C 
ENDBRANCH  13  15
ENDBRANCH   7  11
ENDBRANCH   1   7
BRANCH   4  18
ATOM     18  O   LIG    1       -0.072   5.558   0.032  0.00  0.00    -0.250 OA
BRANCH  18  19
ATOM     19  C   LIG    1       -0.051   4.201  -0.007  0.00  0.00    +0.110 A 
ATOM     20  C   LIG    1       -0.399   3.536  -1.177  0.00  0.00    +0.000 A 
ATOM     21  C   LIG    1       -0.378   2.160  -1.221  0.00  0.00    +0.090 A 
ATOM     22  C   LIG    1       -0.006   1.432  -0.087  0.00  0.00    -0.030 A 
ATOM     23  C   LIG    1        0.339   2.104   1.088  0.00  0.00    +0.090 A 
ATOM     24  C   LIG    1        0.320   3.481   1.122  0.00  0.00    +0.030 A 
BRANCH  22  25
ATOM     25  C   LIG    1        0.017   0.000  -0.129  0.00  0.00    +0.250 C 
ATOM     26  N   LIG    1        0.035  -1.135  -0.162  0.00  0.00    -0.400 NA
ENDBRANCH  22  25
ENDBRANCH  18  19
ENDBRANCH   4  18
TORSDOF 6
