REMARK  Name = ZINCnE00000dEJCv.1
REMARK                            x       y       z     vdW  Elec       q    Type
REMARK                         _______ _______ _______ _____ _____    ______ ____
ROOT
ATOM      1  C   LIG    1        2.951   3.811   0.087  0.00  0.00    +0.170 A 
ATOM      2  C   LIG    1        3.988   2.887   0.070  0.00  0.00    -0.090 A 
ATOM      3  C   LIG    1        5.299   3.316   0.147  0.00  0.00    +0.040 A 
ATOM      4  C   LIG    1        5.583   4.664   0.251  0.00  0.00    -0.170 A 
ATOM      5  C   LIG    1        4.550   5.593   0.274  0.00  0.00    +0.300 A 
ATOM      6  C   LIG    1        3.232   5.166   0.192  0.00  0.00    -0.180 A 
ATOM      7  C   LIG    1        2.109   6.170   0.215  0.00  0.00    +0.080 C 
ENDROOT
BRANCH   1   9
ATOM      8  C   LIG    1        1.337   2.193  -0.575  0.00  0.00    +0.500 C 
ATOM      9  N   LIG    1        1.623   3.376   0.005  0.00  0.00    -0.660 N 
ATOM     10  H   LIG    1        0.910   3.925   0.365  0.00  0.00    +0.400 HD
ATOM     11  O   LIG    1        2.215   1.553  -1.114  0.00  0.00    -0.520 OA
BRANCH   8  13
ATOM     12  C   LIG    1       -0.127   0.318  -1.275  0.00  0.00    +0.040 C 
ATOM     13  C   LIG    1       -0.075   1.666  -0.554  0.00  0.00    +0.040 C 
ENDBRANCH   8  13
ENDBRANCH   1   9
BRANCH   5  14
ATOM     14  N   LIG    1        4.837   6.956   0.379  0.00  0.00    -1.090 NA
BRANCH  14  15
ATOM     15  S   LIG    1        6.410   7.465   0.477  0.00  0.00    +2.600 S 
ATOM     16  O   LIG    1        7.010   7.158  -0.774  0.00  0.00    -1.030 OA
ATOM     17  O   LIG    1        6.910   6.985   1.718  0.00  0.00    -1.030 OA
BRANCH  15  18
ATOM     18  C   LIG    1        6.383   9.223   0.598  0.00  0.00    -0.620 A 
ATOM     19  C   LIG    1        6.425   9.995  -0.548  0.00  0.00    +0.120 A 
ATOM     20  C   LIG    1        6.400  11.373  -0.454  0.00  0.00    -0.030 A 
ATOM     21  C   LIG    1        6.341  11.980   0.786  0.00  0.00    -0.060 A 
ATOM     22  C   LIG    1        6.303  11.209   1.933  0.00  0.00    -0.030 A 
ATOM     23  C   LIG    1        6.317  13.484   0.889  0.00  0.00    +0.090 C 
ATOM     24  C   LIG    1        6.324   9.829   1.838  0.00  0.00    +0.120 A 
ENDBRANCH  15  18
ENDBRANCH  14  15
ENDBRANCH   5  14
TORSDOF 5
