REMARK  Name = ZINCvU0000000JHq.0
REMARK                            x       y       z     vdW  Elec       q    Type
REMARK                         _______ _______ _______ _____ _____    ______ ____
ROOT
ATOM      1  C   LIG    1        4.608  -5.527   2.932  0.00  0.00    -0.210 A 
ATOM      2  C   LIG    1        5.231  -6.661   3.269  0.00  0.00    -0.010 A 
ATOM      3  C   LIG    1        5.272  -6.945   4.643  0.00  0.00    -0.110 A 
ATOM      4  C   LIG    1        5.857  -8.053   5.304  0.00  0.00    +0.150 A 
ATOM      5  C   LIG    1        5.789  -8.160   6.671  0.00  0.00    +0.000 A 
ATOM      6  C   LIG    1        5.147  -7.185   7.423  0.00  0.00    +0.090 A 
ATOM      7  C   LIG    1        4.572  -6.100   6.804  0.00  0.00    +0.040 A 
ATOM      8  F   LIG    1        6.485  -9.010   4.586  0.00  0.00    -0.120 F 
ATOM      9  C   LIG    1        4.628  -5.968   5.413  0.00  0.00    -0.110 A 
ATOM     10  S   LIG    1        3.994  -4.710   4.358  0.00  0.00    +0.160 S 
ENDROOT
BRANCH   1  12
ATOM     11  O   LIG    1        4.912  -5.674   0.627  0.00  0.00    -0.510 OA
ATOM     12  C   LIG    1        4.452  -5.037   1.556  0.00  0.00    +0.590 C 
ATOM     13  N   LIG    1        3.800  -3.881   1.322  0.00  0.00    -0.720 N 
ATOM     14  H   LIG    1        3.433  -3.373   2.062  0.00  0.00    +0.400 HD
BRANCH  13  15
ATOM     15  C   LIG    1        3.645  -3.391  -0.050  0.00  0.00    +0.390 C 
BRANCH  15  16
ATOM     16  C   LIG    1        2.885  -2.090  -0.037  0.00  0.00    +0.030 A 
ATOM     17  C   LIG    1        3.434  -0.856  -0.035  0.00  0.00    +0.120 A 
ATOM     18  N   LIG    1        2.405   0.045  -0.021  0.00  0.00    -0.360 N 
ATOM     19  C   LIG    1        2.372   1.409  -0.013  0.00  0.00    +0.220 A 
ATOM     20  C   LIG    1        1.194   2.068   0.002  0.00  0.00    +0.010 A 
ATOM     21  C   LIG    1       -0.016   1.356   0.009  0.00  0.00    +0.050 A 
ATOM     22  C   LIG    1        0.002  -0.004   0.002  0.00  0.00    +0.070 A 
ATOM     23  C   LIG    1        1.240  -0.678  -0.013  0.00  0.00    +0.230 A 
ATOM     24  N   LIG    1        1.556  -1.965  -0.023  0.00  0.00    -0.480 NA
ENDBRANCH  15  16
ENDBRANCH  13  15
ENDBRANCH   1  12
BRANCH   2  25
ATOM     25  C   LIG    1        5.852  -7.572   2.242  0.00  0.00    +0.290 C 
BRANCH  25  26
ATOM     26  O   LIG    1        7.212  -7.189   2.025  0.00  0.00    -0.300 OA
BRANCH  26  27
ATOM     27  C   LIG    1        7.921  -7.915   1.121  0.00  0.00    +0.140 A 
ATOM     28  C   LIG    1        7.322  -8.978   0.461  0.00  0.00    -0.080 A 
ATOM     29  C   LIG    1        8.043  -9.711  -0.462  0.00  0.00    +0.040 A 
ATOM     30  C   LIG    1        9.364  -9.393  -0.719  0.00  0.00    -0.040 A 
ATOM     31  C   LIG    1        9.965  -8.338  -0.057  0.00  0.00    +0.050 A 
ATOM     32  C   LIG    1        9.246  -7.599   0.862  0.00  0.00    -0.020 A 
ENDBRANCH  26  27
ENDBRANCH  25  26
ENDBRANCH   2  25
TORSDOF 6
