REMARK  Name = ZINCvU0000000BXg.0
REMARK                            x       y       z     vdW  Elec       q    Type
REMARK                         _______ _______ _______ _____ _____    ______ ____
ROOT
ATOM      1  C   LIG    1        1.714   3.127   0.851  0.00  0.00    +0.290 A 
ATOM      2  N   LIG    1        1.434   3.217   2.118  0.00  0.00    -0.480 NA
ATOM      3  C   LIG    1        1.779   4.448   2.576  0.00  0.00    +0.050 A 
ATOM      4  C   LIG    1        1.703   5.067   3.826  0.00  0.00    +0.070 A 
ATOM      5  C   LIG    1        2.137   6.354   3.976  0.00  0.00    +0.000 A 
ATOM      6  C   LIG    1        2.655   7.056   2.897  0.00  0.00    +0.030 A 
ATOM      7  C   LIG    1        2.740   6.465   1.655  0.00  0.00    +0.010 A 
ATOM      8  C   LIG    1        2.304   5.159   1.483  0.00  0.00    +0.050 A 
ATOM      9  N   LIG    1        2.249   4.297   0.406  0.00  0.00    -0.480 N 
ENDROOT
BRANCH   1  12
ATOM     10  N   LIG    1        1.223  -0.452   0.341  0.00  0.00    -0.570 N 
ATOM     11  C   LIG    1        2.140   0.660   0.620  0.00  0.00    +0.290 C 
ATOM     12  C   LIG    1        1.475   1.908  -0.002  0.00  0.00    +0.090 C 
ATOM     13  C   LIG    1       -0.018   1.509   0.010  0.00  0.00    +0.090 C 
ATOM     14  C   LIG    1        0.002  -0.004   0.002  0.00  0.00    +0.530 C 
ATOM     15  O   LIG    1       -0.945  -0.710  -0.272  0.00  0.00    -0.510 OA
BRANCH  10  21
ATOM     16  C   LIG    1        1.427  -2.498   1.620  0.00  0.00    +0.140 A 
ATOM     17  C   LIG    1        1.772  -3.837   1.690  0.00  0.00    -0.070 A 
ATOM     18  C   LIG    1        2.273  -4.482   0.574  0.00  0.00    +0.060 A 
ATOM     19  C   LIG    1        2.425  -3.795  -0.616  0.00  0.00    -0.020 A 
ATOM     20  C   LIG    1        2.078  -2.459  -0.696  0.00  0.00    +0.060 A 
ATOM     21  C   LIG    1        1.575  -1.806   0.419  0.00  0.00    +0.110 A 
BRANCH  16  23
ATOM     22  C   LIG    1        0.815  -2.634   3.914  0.00  0.00    +0.250 C 
ATOM     23  O   LIG    1        0.940  -1.861   2.718  0.00  0.00    -0.310 OA
ENDBRANCH  16  23
ENDBRANCH  10  21
ENDBRANCH   1  12
BRANCH   9  24
ATOM     24  C   LIG    1        2.687   4.587  -0.961  0.00  0.00    +0.290 C 
BRANCH  24  25
ATOM     25  C   LIG    1        1.518   5.170  -1.758  0.00  0.00    +0.010 C 
BRANCH  25  26
ATOM     26  C   LIG    1        1.975   5.473  -3.186  0.00  0.00    -0.010 C 
ATOM     27  C   LIG    1        3.036   6.575  -3.159  0.00  0.00    +0.000 C 
ATOM     28  C   LIG    1        3.493   6.878  -4.587  0.00  0.00    +0.000 C 
ATOM     29  C   LIG    1        2.295   7.344  -5.418  0.00  0.00    +0.000 C 
ATOM     30  C   LIG    1        1.234   6.242  -5.445  0.00  0.00    +0.000 C 
ATOM     31  C   LIG    1        0.777   5.939  -4.016  0.00  0.00    +0.010 C 
ENDBRANCH  25  26
ENDBRANCH  24  25
ENDBRANCH   9  24
TORSDOF 6
