REMARK  Name = ZINCrH00000No56S.0
REMARK                            x       y       z     vdW  Elec       q    Type
REMARK                         _______ _______ _______ _____ _____    ______ ____
ROOT
ATOM      1  N   LIG    1       -6.136   3.578   0.058  0.00  0.00    -0.580 N 
ATOM      2  H   LIG    1       -6.302   2.622   0.065  0.00  0.00    +0.390 HD
ATOM      3  C   LIG    1       -4.871   4.042   0.034  0.00  0.00    +0.530 C 
ATOM      4  O   LIG    1       -4.663   5.237   0.026  0.00  0.00    -0.500 OA
ENDROOT
BRANCH   1   7
ATOM      5  C   LIG    1       -8.688   2.544   0.108  0.00  0.00    +0.090 C 
ATOM      6  C   LIG    1       -8.430   4.028   0.098  0.00  0.00    +0.160 C 
ATOM      7  N   LIG    1       -7.211   4.475   0.075  0.00  0.00    -0.250 NA
BRANCH   6   8
ATOM      8  C   LIG    1       -9.561   4.973   0.116  0.00  0.00    -0.120 A 
ATOM      9  C   LIG    1      -10.874   4.493   0.135  0.00  0.00    +0.090 A 
ATOM     10  C   LIG    1      -11.928   5.379   0.155  0.00  0.00    -0.080 A 
ATOM     11  C   LIG    1      -11.688   6.749   0.147  0.00  0.00    +0.240 A 
ATOM     12  C   LIG    1      -10.384   7.230   0.122  0.00  0.00    -0.070 A 
ATOM     13  C   LIG    1       -9.324   6.350   0.106  0.00  0.00    +0.110 A 
BRANCH  11  14
ATOM     14  N   LIG    1      -12.759   7.643   0.163  0.00  0.00    -0.630 N 
ATOM     15  C   LIG    1      -14.132   7.143   0.062  0.00  0.00    +0.280 C 
ATOM     16  C   LIG    1      -12.510   9.082   0.280  0.00  0.00    +0.280 C 
ENDBRANCH  11  14
ENDBRANCH   6   8
ENDBRANCH   1   7
BRANCH   3  17
ATOM     17  C   LIG    1       -3.714   3.076   0.016  0.00  0.00    +0.310 C 
BRANCH  17  18
ATOM     18  N   LIG    1       -2.454   3.823  -0.009  0.00  0.00    -0.730 N 
ATOM     19  H   LIG    1       -2.466   4.793  -0.013  0.00  0.00    +0.420 HD
BRANCH  18  20
ATOM     20  C   LIG    1       -1.237   3.139  -0.029  0.00  0.00    +0.220 A 
ATOM     21  C   LIG    1       -1.219   1.750  -0.029  0.00  0.00    -0.040 A 
ATOM     22  C   LIG    1       -0.013   1.077  -0.043  0.00  0.00    +0.070 A 
ATOM     23  C   LIG    1        1.175   1.784  -0.067  0.00  0.00    +0.010 A 
ATOM     24  C   LIG    1        1.161   3.167  -0.072  0.00  0.00    -0.130 A 
ATOM     25  C   LIG    1       -0.041   3.846  -0.053  0.00  0.00    -0.010 A 
BRANCH  24  26
ATOM     26  C   LIG    1        2.458   3.933  -0.098  0.00  0.00    +0.510 C 
ATOM     27  F   LIG    1        2.544   4.742   1.040  0.00  0.00    -0.180 F 
ATOM     28  F   LIG    1        2.504   4.734  -1.244  0.00  0.00    -0.180 F 
ATOM     29  F   LIG    1        3.530   3.034  -0.113  0.00  0.00    -0.180 F 
ENDBRANCH  24  26
ENDBRANCH  18  20
ENDBRANCH  17  18
ENDBRANCH   3  17
TORSDOF 7
