REMARK  Name = ZINCpk00000kNd3l.0
REMARK                            x       y       z     vdW  Elec       q    Type
REMARK                         _______ _______ _______ _____ _____    ______ ____
ROOT
ATOM      1  C   LIG    1        0.773  -5.486   3.553  0.00  0.00    +0.580 C 
ATOM      2  N   LIG    1        1.405  -4.693   4.442  0.00  0.00    -0.610 N 
ATOM      3  C   LIG    1        2.710  -5.088   4.977  0.00  0.00    +0.280 C 
ATOM      4  O   LIG    1       -0.263  -5.115   3.037  0.00  0.00    -0.520 OA
ENDROOT
BRANCH   1  11
ATOM      5  C   LIG    1        1.102  -6.255   0.752  0.00  0.00    +0.150 C 
ATOM      6  C   LIG    1        1.503  -7.185   1.868  0.00  0.00    +0.280 A 
ATOM      7  N   LIG    1        2.014  -8.372   1.599  0.00  0.00    -0.570 NA
ATOM      8  C   LIG    1        2.371  -9.197   2.575  0.00  0.00    +0.580 A 
ATOM      9  N   LIG    1        2.232  -8.872   3.854  0.00  0.00    -0.570 NA
ATOM     10  C   LIG    1        1.734  -7.702   4.205  0.00  0.00    +0.400 A 
ATOM     11  C   LIG    1        1.340  -6.803   3.206  0.00  0.00    -0.310 A 
BRANCH   8  12
ATOM     12  N   LIG    1        2.902 -10.428   2.251  0.00  0.00    -0.810 N 
ATOM     13  H   LIG    1        3.167 -11.042   2.953  0.00  0.00    +0.420 HD
ATOM     14  H   LIG    1        3.009 -10.680   1.320  0.00  0.00    +0.420 HD
ENDBRANCH   8  12
ENDBRANCH   1  11
BRANCH   2  15
ATOM     15  C   LIG    1        0.786  -3.437   4.873  0.00  0.00    +0.310 C 
BRANCH  15  16
ATOM     16  C   LIG    1        1.224  -2.306   3.940  0.00  0.00    -0.030 C 
ATOM     17  C   LIG    1        0.659  -2.514   2.510  0.00  0.00    +0.060 C 
ATOM     18  C   LIG    1        0.588  -1.076   1.954  0.00  0.00    +0.230 C 
ATOM     19  N   LIG    1        0.546  -0.164   3.107  0.00  0.00    -0.620 N 
ATOM     20  C   LIG    1        0.501   1.181   3.043  0.00  0.00    +0.560 C 
ATOM     21  O   LIG    1        0.564   1.839   4.059  0.00  0.00    -0.540 OA
ATOM     22  C   LIG    1        0.568  -0.965   4.344  0.00  0.00    +0.260 C 
BRANCH  20  23
ATOM     23  C   LIG    1        0.374   1.868   1.707  0.00  0.00    -0.110 C 
ATOM     24  C   LIG    1        0.721   3.365   1.749  0.00  0.00    +0.050 C 
ATOM     25  C   LIG    1        2.176   2.954   1.456  0.00  0.00    +0.010 C 
ATOM     26  C   LIG    1       -0.953   1.566   1.008  0.00  0.00    +0.050 C 
ATOM     27  C   LIG    1        1.603   1.686   0.801  0.00  0.00    +0.030 C 
ENDBRANCH  20  23
ENDBRANCH  15  16
ENDBRANCH   2  15
TORSDOF 5
