REMARK  Name = ZINCpe00000gLSTy.0
REMARK                            x       y       z     vdW  Elec       q    Type
REMARK                         _______ _______ _______ _____ _____    ______ ____
ROOT
ATOM      1  N   LIG    1       -5.696  -3.869  -0.071  0.00  0.00    -0.530 NA
ATOM      2  C   LIG    1       -5.013  -4.329  -1.289  0.00  0.00    +0.140 C 
ATOM      3  C   LIG    1       -3.568  -3.823  -1.279  0.00  0.00    +0.220 C 
ATOM      4  O   LIG    1       -3.568  -2.397  -1.165  0.00  0.00    -0.380 OA
ATOM      5  C   LIG    1       -4.225  -1.915   0.011  0.00  0.00    +0.170 C 
ATOM      6  C   LIG    1       -5.676  -2.401   0.014  0.00  0.00    +0.200 C 
ENDROOT
BRANCH   6   7
ATOM      7  C   LIG    1       -6.352  -1.961   1.287  0.00  0.00    -0.240 A 
ATOM      8  C   LIG    1       -7.177  -0.898   1.424  0.00  0.00    +0.240 A 
ATOM      9  N   LIG    1       -7.570  -0.845   2.714  0.00  0.00    -0.370 N 
ATOM     10  N   LIG    1       -6.966  -1.912   3.392  0.00  0.00    -0.300 NA
ATOM     11  C   LIG    1       -8.469   0.151   3.301  0.00  0.00    +0.360 C 
ATOM     12  C   LIG    1       -6.241  -2.583   2.535  0.00  0.00    +0.250 A 
ENDBRANCH   6   7
BRANCH   1  14
ATOM     13  C   LIG    1       -7.074  -5.873  -0.353  0.00  0.00    +0.020 C 
ATOM     14  C   LIG    1       -7.071  -4.381  -0.014  0.00  0.00    +0.170 C 
ENDBRANCH   1  14
BRANCH   5  15
ATOM     15  C   LIG    1       -4.199  -0.385   0.018  0.00  0.00    +0.290 C 
BRANCH  15  16
ATOM     16  N   LIG    1       -2.810   0.080   0.015  0.00  0.00    -0.720 N 
ATOM     17  H   LIG    1       -2.083  -0.562   0.009  0.00  0.00    +0.400 HD
ATOM     18  C   LIG    1       -2.541   1.401   0.020  0.00  0.00    +0.590 C 
ATOM     19  O   LIG    1       -3.452   2.207   0.028  0.00  0.00    -0.540 OA
BRANCH  18  20
ATOM     20  C   LIG    1       -1.144   1.869   0.017  0.00  0.00    -0.220 A 
ATOM     21  C   LIG    1       -0.013   1.076   0.008  0.00  0.00    +0.280 A 
ATOM     22  N   LIG    1        1.067   1.877   0.002  0.00  0.00    -0.520 N 
ATOM     23  H   LIG    1        1.989   1.577  -0.008  0.00  0.00    +0.430 HD
ATOM     24  C   LIG    1        0.656   3.191   0.013  0.00  0.00    +0.050 A 
ATOM     25  C   LIG    1       -0.707   3.214   0.026  0.00  0.00    +0.110 A 
BRANCH  24  26
ATOM     26  C   LIG    1        1.514   4.338   0.011  0.00  0.00    +0.270 C 
ATOM     27  N   LIG    1        2.194   5.248   0.010  0.00  0.00    -0.400 NA
ENDBRANCH  24  26
ENDBRANCH  18  20
ENDBRANCH  15  16
ENDBRANCH   5  15
TORSDOF 6
