REMARK  Name = ZINCb80000002mwF.0
REMARK                            x       y       z     vdW  Elec       q    Type
REMARK                         _______ _______ _______ _____ _____    ______ ____
ROOT
ATOM      1  C   LIG    1       -0.013   1.086   0.008  0.00  0.00    +0.140 C 
ATOM      2  N   LIG    1        1.366   1.592  -0.002  0.00  0.00    -0.680 NA
ATOM      3  H   LIG    1        1.891   1.195  -0.767  0.00  0.00    +0.350 HD
ATOM      4  C   LIG    1        2.019   1.314   1.287  0.00  0.00    +0.170 C 
ATOM      5  C   LIG    1        1.369   2.183   2.365  0.00  0.00    +0.270 C 
ATOM      6  N   LIG    1       -0.084   2.049   2.307  0.00  0.00    -0.720 N 
ATOM      7  H   LIG    1       -0.605   2.321   3.079  0.00  0.00    +0.400 HD
ATOM      8  C   LIG    1       -0.728   1.568   1.238  0.00  0.00    +0.530 C 
ATOM      9  O   LIG    1       -1.939   1.519   1.263  0.00  0.00    -0.550 OA
ENDROOT
BRANCH   1  10
ATOM     10  C   LIG    1       -0.749   1.591  -1.235  0.00  0.00    +0.050 C 
BRANCH  10  11
ATOM     11  C   LIG    1       -0.102   0.995  -2.487  0.00  0.00    +0.010 C 
BRANCH  11  13
ATOM     12  C   LIG    1       -0.192   0.904  -4.982  0.00  0.00    +0.000 C 
ATOM     13  C   LIG    1       -0.838   1.500  -3.730  0.00  0.00    +0.000 C 
ENDBRANCH  11  13
ENDBRANCH  10  11
ENDBRANCH   1  10
TORSDOF 3
