REMARK  Name = ZINCkj00000dDmW0.1
REMARK                            x       y       z     vdW  Elec       q    Type
REMARK                         _______ _______ _______ _____ _____    ______ ____
ROOT
ATOM      1  N   LIG    1       -2.179   1.348   1.228  0.00  0.00    -0.500 N 
ATOM      2  H   LIG    1       -2.617   1.829   2.000  0.00  0.00    +0.430 HD
ATOM      3  H   LIG    1       -2.364   0.359   1.301  0.00  0.00    +0.430 HD
ENDROOT
BRANCH   1   7
ATOM      4  C   LIG    1        1.906   2.779   2.985  0.00  0.00    +0.680 C 
ATOM      5  N   LIG    1        0.714   2.376   2.501  0.00  0.00    -0.630 N 
ATOM      6  C   LIG    1       -0.063   1.123   2.578  0.00  0.00    +0.360 C 
ATOM      7  C   LIG    1       -0.729   1.579   1.267  0.00  0.00    +0.010 C 
ATOM      8  C   LIG    1       -0.013   1.086   0.008  0.00  0.00    +0.140 C 
ATOM      9  C   LIG    1       -0.338   3.009   1.682  0.00  0.00    +0.340 C 
ATOM     10  O   LIG    1        2.580   2.018   3.650  0.00  0.00    -0.540 OA
BRANCH   4  12
ATOM     11  C   LIG    1        3.641   4.391   3.283  0.00  0.00    +0.300 C 
ATOM     12  O   LIG    1        2.349   4.025   2.730  0.00  0.00    -0.360 OA
ENDBRANCH   4  12
ENDBRANCH   1   7
BRANCH   1  13
ATOM     13  C   LIG    1       -2.723   1.857  -0.038  0.00  0.00    +0.340 C 
BRANCH  13  14
ATOM     14  C   LIG    1       -4.210   1.619  -0.077  0.00  0.00    -0.140 A 
ATOM     15  C   LIG    1       -4.721   0.550  -0.788  0.00  0.00    +0.070 A 
ATOM     16  C   LIG    1       -6.085   0.325  -0.822  0.00  0.00    +0.050 A 
ATOM     17  C   LIG    1       -6.945   1.177  -0.154  0.00  0.00    +0.080 A 
ATOM     18  C   LIG    1       -6.441   2.255   0.556  0.00  0.00    +0.040 A 
ATOM     19  O   LIG    1       -7.061   3.226   1.288  0.00  0.00    -0.300 OA
ATOM     20  C   LIG    1       -6.030   3.806   2.109  0.00  0.00    +0.450 C 
ATOM     21  O   LIG    1       -4.825   3.588   1.351  0.00  0.00    -0.310 OA
ATOM     22  C   LIG    1       -5.066   2.477   0.595  0.00  0.00    +0.050 A 
ENDBRANCH  13  14
ENDBRANCH   1  13
TORSDOF 4
