REMARK  Name = ZINCrg00000J39rM.0
REMARK                            x       y       z     vdW  Elec       q    Type
REMARK                         _______ _______ _______ _____ _____    ______ ____
ROOT
ATOM      1  N   LIG    1        0.892  -5.680  -2.313  0.00  0.00    -1.120 NA
ATOM      2  H   LIG    1        0.571  -5.474  -3.205  0.00  0.00    +0.420 HD
ENDROOT
BRANCH   1   3
ATOM      3  C   LIG    1        0.839  -4.662  -1.261  0.00  0.00    +0.230 C 
ATOM      4  C   LIG    1       -0.446  -3.844  -1.408  0.00  0.00    +0.010 C 
ATOM      5  C   LIG    1       -0.515  -2.803  -0.286  0.00  0.00    +0.290 C 
ATOM      6  N   LIG    1        0.716  -2.002  -0.308  0.00  0.00    -0.570 N 
ATOM      7  C   LIG    1        2.011  -2.695  -0.269  0.00  0.00    +0.290 C 
ATOM      8  C   LIG    1        2.052  -3.736  -1.386  0.00  0.00    +0.010 C 
BRANCH   6   9
ATOM      9  C   LIG    1        0.657  -0.616  -0.371  0.00  0.00    +0.350 A 
ATOM     10  N   LIG    1        1.753   0.104  -0.265  0.00  0.00    -0.510 NA
ATOM     11  C   LIG    1        1.704   1.435  -0.325  0.00  0.00    +0.200 A 
ATOM     12  C   LIG    1        0.538   2.095  -0.494  0.00  0.00    +0.150 A 
ATOM     13  N   LIG    1       -0.639   1.417  -0.611  0.00  0.00    -0.480 N 
ATOM     14  C   LIG    1       -1.898   2.143  -0.795  0.00  0.00    +0.320 C 
ATOM     15  C   LIG    1       -0.629   0.066  -0.556  0.00  0.00    +0.480 A 
ATOM     16  O   LIG    1       -1.664  -0.570  -0.657  0.00  0.00    -0.530 OA
ENDBRANCH   6   9
ENDBRANCH   1   3
BRANCH   1  17
ATOM     17  S   LIG    1        1.501  -7.184  -1.980  0.00  0.00    +2.640 S 
ATOM     18  O   LIG    1        2.730  -6.925  -1.315  0.00  0.00    -0.940 OA
ATOM     19  O   LIG    1        1.473  -7.858  -3.230  0.00  0.00    -0.950 OA
BRANCH  17  24
ATOM     20  C   LIG    1        0.712  -9.356  -0.488  0.00  0.00    +0.190 C 
ATOM     21  C   LIG    1        0.936  -9.394   1.039  0.00  0.00    +0.020 C 
ATOM     22  C   LIG    1        0.088  -8.215   1.577  0.00  0.00    +0.030 C 
ATOM     23  C   LIG    1        0.287  -7.128   0.492  0.00  0.00    +0.070 C 
ATOM     24  C   LIG    1        0.299  -7.915  -0.835  0.00  0.00    -0.460 C 
BRANCH  20  25
ATOM     25  O   LIG    1        1.921  -9.697  -1.169  0.00  0.00    -0.400 OA
BRANCH  25  27
ATOM     26  C   LIG    1        1.432 -11.349  -2.864  0.00  0.00    +0.020 C 
ATOM     27  C   LIG    1        2.039 -11.086  -1.484  0.00  0.00    +0.160 C 
ATOM     28  C   LIG    1        3.516 -11.483  -1.492  0.00  0.00    +0.050 C 
ENDBRANCH  25  27
ENDBRANCH  20  25
ENDBRANCH  17  24
ENDBRANCH   1  17
TORSDOF 6
