REMARK  Name = ZINCkj000005g4dK.2
REMARK                            x       y       z     vdW  Elec       q    Type
REMARK                         _______ _______ _______ _____ _____    ______ ____
ROOT
ATOM      1  C   LIG    1        2.219   1.343   0.169  0.00  0.00    +0.660 C 
ATOM      2  N   LIG    1        2.257   0.016   0.101  0.00  0.00    -0.600 NA
ATOM      3  C   LIG    1        1.126  -0.678   0.027  0.00  0.00    +0.690 C 
ATOM      4  N   LIG    1       -0.043  -0.046   0.021  0.00  0.00    -0.620 NA
ATOM      5  C   LIG    1       -0.081   1.281   0.088  0.00  0.00    +0.640 C 
ATOM      6  H   LIG    1       -0.868  -0.553  -0.033  0.00  0.00    +0.440 HD
ATOM      7  N   LIG    1        1.050   1.976   0.163  0.00  0.00    -0.600 NA
ENDROOT
BRANCH   5   8
ATOM      8  N   LIG    1       -1.295   1.938   0.076  0.00  0.00    -0.460 NA
ATOM      9  C   LIG    1       -2.075   1.581  -1.118  0.00  0.00    +0.200 C 
ATOM     10  C   LIG    1       -3.434   2.283  -1.062  0.00  0.00    +0.250 C 
ATOM     11  O   LIG    1       -3.231   3.695  -0.950  0.00  0.00    -0.370 OA
ATOM     12  C   LIG    1       -2.475   4.078   0.202  0.00  0.00    +0.250 C 
ATOM     13  C   LIG    1       -1.107   3.394   0.159  0.00  0.00    +0.240 C 
ENDBRANCH   5   8
BRANCH   1  14
ATOM     14  N   LIG    1        3.393   2.064   0.246  0.00  0.00    -0.630 NA
ATOM     15  H   LIG    1        3.366   3.033   0.296  0.00  0.00    +0.430 HD
BRANCH  14  17
ATOM     16  C   LIG    1        5.815   2.391   0.344  0.00  0.00    +0.060 C 
ATOM     17  C   LIG    1        4.682   1.367   0.253  0.00  0.00    +0.290 C 
ENDBRANCH  14  17
ENDBRANCH   1  14
BRANCH   3  18
ATOM     18  N   LIG    1        1.166  -2.056  -0.044  0.00  0.00    -0.650 NA
ATOM     19  H   LIG    1        0.342  -2.567  -0.025  0.00  0.00    +0.430 HD
BRANCH  18  20
ATOM     20  C   LIG    1        2.453  -2.747  -0.149  0.00  0.00    +0.170 C 
ATOM     21  C   LIG    1        3.200  -2.250  -1.388  0.00  0.00    +0.050 C 
ATOM     22  C   LIG    1        2.215  -4.254  -0.267  0.00  0.00    +0.070 C 
ATOM     23  C   LIG    1        3.289  -2.460   1.100  0.00  0.00    +0.050 C 
ENDBRANCH  18  20
ENDBRANCH   3  18
TORSDOF 5
