REMARK  Name = ZINCkj000005g4dK.0
REMARK                            x       y       z     vdW  Elec       q    Type
REMARK                         _______ _______ _______ _____ _____    ______ ____
ROOT
ATOM      1  C   LIG    1        2.452  -0.259   0.265  0.00  0.00    +0.680 C 
ATOM      2  N   LIG    1        1.261  -0.843   0.179  0.00  0.00    -0.630 NA
ATOM      3  C   LIG    1        0.169  -0.103   0.011  0.00  0.00    +0.690 C 
ATOM      4  N   LIG    1        0.268   1.220  -0.072  0.00  0.00    -0.590 NA
ATOM      5  C   LIG    1        1.459   1.804   0.014  0.00  0.00    +0.640 C 
ATOM      6  H   LIG    1        1.188  -1.808   0.240  0.00  0.00    +0.440 HD
ATOM      7  N   LIG    1        2.551   1.064   0.183  0.00  0.00    -0.610 NA
ENDROOT
BRANCH   5   8
ATOM      8  N   LIG    1        1.563   3.177  -0.072  0.00  0.00    -0.440 NA
ATOM      9  C   LIG    1        0.970   3.673  -1.322  0.00  0.00    +0.220 C 
ATOM     10  C   LIG    1        1.052   5.201  -1.349  0.00  0.00    +0.250 C 
ATOM     11  O   LIG    1        2.416   5.603  -1.201  0.00  0.00    -0.370 OA
ATOM     12  C   LIG    1        3.025   5.138   0.007  0.00  0.00    +0.250 C 
ATOM     13  C   LIG    1        2.963   3.609   0.047  0.00  0.00    +0.210 C 
ENDBRANCH   5   8
BRANCH   1  14
ATOM     14  N   LIG    1        3.585  -1.026   0.441  0.00  0.00    -0.660 NA
ATOM     15  H   LIG    1        4.454  -0.601   0.504  0.00  0.00    +0.450 HD
BRANCH  14  17
ATOM     16  C   LIG    1        4.868  -3.090   0.724  0.00  0.00    +0.090 C 
ATOM     17  C   LIG    1        3.475  -2.485   0.532  0.00  0.00    +0.260 C 
ENDBRANCH  14  17
ENDBRANCH   1  14
BRANCH   3  18
ATOM     18  N   LIG    1       -1.068  -0.709  -0.079  0.00  0.00    -0.650 NA
ATOM     19  H   LIG    1       -1.872  -0.168  -0.122  0.00  0.00    +0.450 HD
BRANCH  18  20
ATOM     20  C   LIG    1       -1.167  -2.170  -0.110  0.00  0.00    +0.140 C 
ATOM     21  C   LIG    1       -0.314  -2.716  -1.256  0.00  0.00    +0.050 C 
ATOM     22  C   LIG    1       -2.627  -2.578  -0.321  0.00  0.00    +0.100 C 
ATOM     23  C   LIG    1       -0.665  -2.743   1.217  0.00  0.00    +0.050 C 
ENDBRANCH  18  20
ENDBRANCH   3  18
TORSDOF 5
