REMARK  Name = ZINCkj000005g4dK.1
REMARK                            x       y       z     vdW  Elec       q    Type
REMARK                         _______ _______ _______ _____ _____    ______ ____
ROOT
ATOM      1  C   LIG    1        2.304   0.027  -0.021  0.00  0.00    +0.680 C 
ATOM      2  N   LIG    1        2.286   1.357  -0.014  0.00  0.00    -0.600 NA
ATOM      3  C   LIG    1        1.126   2.006   0.002  0.00  0.00    +0.670 C 
ATOM      4  N   LIG    1       -0.016   1.325   0.009  0.00  0.00    -0.600 NA
ATOM      5  C   LIG    1        0.002  -0.004   0.002  0.00  0.00    +0.640 C 
ATOM      6  N   LIG    1        1.162  -0.653  -0.013  0.00  0.00    -0.620 NA
ATOM      7  H   LIG    1        1.175  -1.623  -0.018  0.00  0.00    +0.440 HD
ENDROOT
BRANCH   5   8
ATOM      8  N   LIG    1       -1.184  -0.710   0.010  0.00  0.00    -0.460 NA
ATOM      9  C   LIG    1       -1.259  -1.627  -1.137  0.00  0.00    +0.200 C 
ATOM     10  C   LIG    1       -2.559  -2.431  -1.057  0.00  0.00    +0.260 C 
ATOM     11  O   LIG    1       -3.669  -1.530  -1.010  0.00  0.00    -0.370 OA
ATOM     12  C   LIG    1       -3.628  -0.623   0.095  0.00  0.00    +0.250 C 
ATOM     13  C   LIG    1       -2.338   0.199   0.026  0.00  0.00    +0.240 C 
ENDBRANCH   5   8
BRANCH   1  14
ATOM     14  N   LIG    1        3.509  -0.646  -0.036  0.00  0.00    -0.660 NA
ATOM     15  H   LIG    1        4.342  -0.150  -0.042  0.00  0.00    +0.440 HD
BRANCH  14  17
ATOM     16  C   LIG    1        4.978  -2.602  -0.060  0.00  0.00    +0.090 C 
ATOM     17  C   LIG    1        3.529  -2.111  -0.043  0.00  0.00    +0.260 C 
ENDBRANCH  14  17
ENDBRANCH   1  14
BRANCH   3  18
ATOM     18  N   LIG    1        1.107   3.385   0.009  0.00  0.00    -0.620 NA
ATOM     19  H   LIG    1        0.261   3.859   0.019  0.00  0.00    +0.430 HD
BRANCH  18  20
ATOM     20  C   LIG    1        2.366   4.135   0.001  0.00  0.00    +0.170 C 
ATOM     21  C   LIG    1        3.185   3.770   1.241  0.00  0.00    +0.050 C 
ATOM     22  C   LIG    1        2.066   5.635   0.012  0.00  0.00    +0.070 C 
ATOM     23  C   LIG    1        3.161   3.783  -1.257  0.00  0.00    +0.050 C 
ENDBRANCH  18  20
ENDBRANCH   3  18
TORSDOF 5
