REMARK  Name = ZINCtj00000nxPs8.0
REMARK                            x       y       z     vdW  Elec       q    Type
REMARK                         _______ _______ _______ _____ _____    ______ ____
ROOT
ATOM      1  O   LIG    1       -2.236   1.498   0.021  0.00  0.00    -0.510 OA
ATOM      2  C   LIG    1       -1.194   2.119   0.019  0.00  0.00    +0.520 C 
ATOM      3  N   LIG    1       -0.018   1.461   0.010  0.00  0.00    -0.720 N 
ATOM      4  H   LIG    1        0.816   1.957   0.005  0.00  0.00    +0.400 HD
ENDROOT
BRANCH   3   5
ATOM      5  C   LIG    1        0.002  -0.004   0.002  0.00  0.00    +0.260 C 
ATOM      6  C   LIG    1        1.339  -0.516   0.566  0.00  0.00    +0.050 C 
ATOM      7  C   LIG    1        2.009  -1.331  -0.560  0.00  0.00    -0.020 C 
ATOM      8  C   LIG    1        0.830  -1.769  -1.465  0.00  0.00    +0.030 C 
ATOM      9  C   LIG    1       -0.094  -0.526  -1.446  0.00  0.00    +0.150 C 
BRANCH   9  10
ATOM     10  O   LIG    1       -1.439  -0.898  -1.756  0.00  0.00    -0.550 OA
ATOM     11  H   LIG    1       -1.557  -1.234  -2.655  0.00  0.00    +0.380 HD
ENDBRANCH   9  10
BRANCH   7  12
ATOM     12  C   LIG    1        2.725  -2.555   0.015  0.00  0.00    +0.330 C 
BRANCH  12  13
ATOM     13  N   LIG    1        3.377  -3.293  -1.070  0.00  0.00    -0.380 N 
ATOM     14  C   LIG    1        4.684  -3.625  -1.131  0.00  0.00    +0.220 A 
ATOM     15  C   LIG    1        4.884  -4.300  -2.287  0.00  0.00    -0.120 A 
ATOM     16  C   LIG    1        3.659  -4.382  -2.955  0.00  0.00    +0.230 A 
ATOM     17  N   LIG    1        2.753  -3.784  -2.224  0.00  0.00    -0.290 NA
ENDBRANCH  12  13
ENDBRANCH   7  12
ENDBRANCH   3   5
BRANCH   2  18
ATOM     18  C   LIG    1       -1.214   3.626   0.028  0.00  0.00    +0.070 C 
BRANCH  18  19
ATOM     19  C   LIG    1       -2.664   4.116   0.037  0.00  0.00    +0.290 C 
BRANCH  19  20
ATOM     20  N   LIG    1       -2.684   5.585   0.045  0.00  0.00    -0.390 N 
ATOM     21  C   LIG    1       -2.098   6.075   1.300  0.00  0.00    +0.270 C 
ATOM     22  C   LIG    1       -2.101   7.605   1.300  0.00  0.00    +0.230 C 
ATOM     23  N   LIG    1       -3.482   8.089   1.163  0.00  0.00    -0.490 N 
ATOM     24  C   LIG    1       -4.090   7.586  -0.077  0.00  0.00    +0.220 C 
ATOM     25  C   LIG    1       -4.070   6.056  -0.066  0.00  0.00    +0.280 C 
ATOM     26  H   LIG    1       -2.147   5.933  -0.735  0.00  0.00    +0.420 HD
BRANCH  23  27
ATOM     27  C   LIG    1       -3.530   9.485   1.213  0.00  0.00    +0.080 A 
ATOM     28  C   LIG    1       -4.099  10.200   0.167  0.00  0.00    -0.030 A 
ATOM     29  C   LIG    1       -4.150  11.579   0.223  0.00  0.00    +0.040 A 
ATOM     30  C   LIG    1       -3.626  12.248   1.313  0.00  0.00    +0.000 A 
ATOM     31  C   LIG    1       -3.055  11.539   2.355  0.00  0.00    +0.040 A 
ATOM     32  C   LIG    1       -3.006  10.160   2.308  0.00  0.00    +0.000 A 
ENDBRANCH  23  27
ENDBRANCH  19  20
ENDBRANCH  18  19
ENDBRANCH   2  18
TORSDOF 8
