REMARK  Name = ZINCqH00000098sS.0
REMARK                            x       y       z     vdW  Elec       q    Type
REMARK                         _______ _______ _______ _____ _____    ______ ____
ROOT
ATOM      1  N   LIG    1       -2.845   6.612  -5.333  0.00  0.00    -0.730 N 
ATOM      2  H   LIG    1       -3.629   7.091  -5.022  0.00  0.00    +0.400 HD
ATOM      3  C   LIG    1       -1.957   6.124  -4.444  0.00  0.00    +0.520 C 
ATOM      4  O   LIG    1       -0.977   5.525  -4.833  0.00  0.00    -0.530 OA
ENDROOT
BRANCH   1   6
ATOM      5  C   LIG    1       -3.177   5.055  -7.189  0.00  0.00    +0.040 C 
ATOM      6  C   LIG    1       -2.627   6.419  -6.769  0.00  0.00    +0.290 C 
BRANCH   6   7
ATOM      7  C   LIG    1       -3.336   7.506  -7.535  0.00  0.00    -0.080 A 
ATOM      8  C   LIG    1       -2.732   8.080  -8.637  0.00  0.00    +0.060 A 
ATOM      9  C   LIG    1       -3.381   9.076  -9.343  0.00  0.00    +0.030 A 
ATOM     10  C   LIG    1       -4.637   9.500  -8.945  0.00  0.00    +0.070 A 
ATOM     11  C   LIG    1       -5.243   8.923  -7.839  0.00  0.00    +0.070 A 
ATOM     12  F   LIG    1       -6.469   9.335  -7.448  0.00  0.00    -0.120 F 
ATOM     13  F   LIG    1       -5.272  10.473  -9.634  0.00  0.00    -0.130 F 
ATOM     14  C   LIG    1       -4.593   7.923  -7.138  0.00  0.00    +0.020 A 
ENDBRANCH   6   7
ENDBRANCH   1   6
BRANCH   3  15
ATOM     15  C   LIG    1       -2.182   6.323  -2.967  0.00  0.00    +0.050 C 
BRANCH  15  16
ATOM     16  C   LIG    1       -1.036   5.677  -2.186  0.00  0.00    +0.080 C 
BRANCH  16  17
ATOM     17  C   LIG    1       -1.265   5.878  -0.686  0.00  0.00    +0.010 C 
ATOM     18  C   LIG    1       -0.055   5.350   0.085  0.00  0.00    +0.110 C 
ATOM     19  C   LIG    1       -0.042   3.844   0.037  0.00  0.00    -0.120 A 
ATOM     20  C   LIG    1        1.161   3.165   0.015  0.00  0.00    +0.050 A 
ATOM     21  C   LIG    1        1.176   1.782   0.000  0.00  0.00    -0.010 A 
ATOM     22  C   LIG    1       -0.013   1.076   0.008  0.00  0.00    +0.040 A 
ATOM     23  C   LIG    1       -1.218   1.749   0.017  0.00  0.00    -0.020 A 
ATOM     24  C   LIG    1       -1.237   3.138   0.031  0.00  0.00    +0.160 A 
ATOM     25  N   LIG    1       -2.456   3.820   0.011  0.00  0.00    -0.660 N 
ATOM     26  H   LIG    1       -3.277   3.340   0.200  0.00  0.00    +0.410 HD
ATOM     27  C   LIG    1       -2.504   5.135  -0.265  0.00  0.00    +0.530 C 
ATOM     28  O   LIG    1       -3.558   5.729  -0.172  0.00  0.00    -0.520 OA
ENDBRANCH  16  17
ENDBRANCH  15  16
ENDBRANCH   3  15
TORSDOF 5
