REMARK  Name = ZINCqH0000003Sqo.0
REMARK                            x       y       z     vdW  Elec       q    Type
REMARK                         _______ _______ _______ _____ _____    ______ ____
ROOT
ATOM      1  N   LIG    1       -0.020   1.652   0.011  0.00  0.00    -0.940 N 
ATOM      2  C   LIG    1       -1.233   2.475   0.021  0.00  0.00    +0.280 C 
ATOM      3  C   LIG    1       -0.733   3.929   0.030  0.00  0.00    +0.100 C 
ATOM      4  C   LIG    1        0.775   3.813   0.015  0.00  0.00    -0.130 A 
ATOM      5  C   LIG    1        1.754   4.783   0.011  0.00  0.00    +0.070 A 
ATOM      6  C   LIG    1        3.099   4.418  -0.004  0.00  0.00    -0.050 A 
ATOM      7  C   LIG    1        3.445   3.067  -0.014  0.00  0.00    +0.090 A 
ATOM      8  C   LIG    1        2.462   2.103  -0.009  0.00  0.00    +0.000 A 
ATOM      9  C   LIG    1        1.113   2.467   0.005  0.00  0.00    +0.170 A 
ENDROOT
BRANCH   6  10
ATOM     10  C   LIG    1        4.156   5.458  -0.009  0.00  0.00    +0.140 A 
ATOM     11  C   LIG    1        3.876   6.768   0.100  0.00  0.00    -0.080 A 
ATOM     12  S   LIG    1        5.392   7.665   0.053  0.00  0.00    +0.050 S 
ATOM     13  C   LIG    1        6.283   6.155  -0.113  0.00  0.00    +0.270 A 
ATOM     14  N   LIG    1        5.450   5.160  -0.116  0.00  0.00    -0.490 NA
BRANCH  13  15
ATOM     15  N   LIG    1        7.660   6.046  -0.218  0.00  0.00    -0.440 N 
ATOM     16  C   LIG    1        8.039   5.314  -1.433  0.00  0.00    +0.210 C 
ATOM     17  C   LIG    1        9.552   5.086  -1.443  0.00  0.00    +0.050 C 
ATOM     18  C   LIG    1       10.267   6.439  -1.396  0.00  0.00    -0.030 C 
ATOM     19  C   LIG    1        9.819   7.202  -0.146  0.00  0.00    +0.050 C 
ATOM     20  C   LIG    1       11.780   6.217  -1.344  0.00  0.00    +0.030 C 
ATOM     21  C   LIG    1        8.297   7.368  -0.174  0.00  0.00    +0.190 C 
ENDBRANCH  13  15
ENDBRANCH   6  10
BRANCH   1  22
ATOM     22  S   LIG    1        0.002  -0.004   0.002  0.00  0.00    +2.610 S 
ATOM     23  O   LIG    1        1.238  -0.334  -0.616  0.00  0.00    -0.930 OA
ATOM     24  O   LIG    1       -1.236  -0.368  -0.594  0.00  0.00    -0.940 OA
BRANCH  22  26
ATOM     25  C   LIG    1        0.046  -1.991   1.882  0.00  0.00    +0.080 C 
ATOM     26  C   LIG    1        0.024  -0.466   1.756  0.00  0.00    -0.360 C 
ENDBRANCH  22  26
ENDBRANCH   1  22
TORSDOF 4
