REMARK  Name = ZINCrH000004uCBW.0
REMARK                            x       y       z     vdW  Elec       q    Type
REMARK                         _______ _______ _______ _____ _____    ______ ____
ROOT
ATOM      1  O   LIG    1       -7.333  -4.654   0.538  0.00  0.00    -0.530 OA
ATOM      2  C   LIG    1       -6.547  -4.271   1.383  0.00  0.00    +0.560 C 
ATOM      3  N   LIG    1       -5.327  -3.830   1.018  0.00  0.00    -0.720 N 
ATOM      4  H   LIG    1       -4.700  -3.525   1.692  0.00  0.00    +0.400 HD
ENDROOT
BRANCH   2   5
ATOM      5  C   LIG    1       -6.929  -4.291   2.811  0.00  0.00    -0.120 A 
ATOM      6  C   LIG    1       -6.026  -3.858   3.784  0.00  0.00    +0.020 A 
ATOM      7  C   LIG    1       -6.387  -3.873   5.116  0.00  0.00    +0.030 A 
ATOM      8  C   LIG    1       -7.637  -4.325   5.493  0.00  0.00    +0.010 A 
ATOM      9  C   LIG    1       -8.542  -4.764   4.533  0.00  0.00    +0.160 A 
ATOM     10  C   LIG    1       -8.191  -4.748   3.192  0.00  0.00    +0.090 A 
BRANCH   9  11
ATOM     11  N   LIG    1       -9.806  -5.221   4.920  0.00  0.00    -0.640 N 
ATOM     12  H   LIG    1       -9.916  -5.685   5.764  0.00  0.00    +0.430 HD
BRANCH  11  13
ATOM     13  C   LIG    1      -10.900  -5.010   4.097  0.00  0.00    +0.550 A 
ATOM     14  N   LIG    1      -10.756  -4.274   3.004  0.00  0.00    -0.550 NA
ATOM     15  C   LIG    1      -11.779  -4.059   2.194  0.00  0.00    +0.360 A 
ATOM     16  C   LIG    1      -13.015  -4.604   2.506  0.00  0.00    -0.130 A 
ATOM     17  C   LIG    1      -13.132  -5.363   3.660  0.00  0.00    +0.360 A 
ATOM     18  N   LIG    1      -12.067  -5.545   4.424  0.00  0.00    -0.560 NA
ENDBRANCH  11  13
ENDBRANCH   9  11
ENDBRANCH   2   5
BRANCH   3  19
ATOM     19  C   LIG    1       -4.949  -3.810  -0.397  0.00  0.00    +0.330 C 
BRANCH  19  20
ATOM     20  C   LIG    1       -3.546  -3.276  -0.535  0.00  0.00    -0.140 A 
ATOM     21  C   LIG    1       -2.471  -4.144  -0.497  0.00  0.00    +0.080 A 
ATOM     22  C   LIG    1       -1.184  -3.658  -0.623  0.00  0.00    +0.000 A 
ATOM     23  C   LIG    1       -0.972  -2.297  -0.787  0.00  0.00    +0.110 A 
ATOM     24  C   LIG    1       -2.052  -1.427  -0.819  0.00  0.00    -0.050 A 
ATOM     25  C   LIG    1       -3.337  -1.919  -0.698  0.00  0.00    +0.070 A 
BRANCH  23  26
ATOM     26  O   LIG    1        0.293  -1.815  -0.911  0.00  0.00    -0.320 OA
BRANCH  26  27
ATOM     27  C   LIG    1        0.437  -0.403  -1.077  0.00  0.00    +0.590 C 
ATOM     28  F   LIG    1       -0.108   0.254   0.031  0.00  0.00    -0.200 F 
ATOM     29  F   LIG    1       -0.234   0.001  -2.236  0.00  0.00    -0.200 F 
ENDBRANCH  26  27
ENDBRANCH  23  26
ENDBRANCH  19  20
ENDBRANCH   3  19
TORSDOF 7
