REMARK  Name = ZINCrD0000075hFz.0
REMARK                            x       y       z     vdW  Elec       q    Type
REMARK                         _______ _______ _______ _____ _____    ______ ____
ROOT
ATOM      1  C   LIG    1       -0.068   5.811  -1.386  0.00  0.00    +0.500 C 
ATOM      2  N   LIG    1       -0.091   7.137  -1.625  0.00  0.00    -0.670 N 
ATOM      3  H   LIG    1       -0.168   7.762  -0.887  0.00  0.00    +0.420 HD
ATOM      4  O   LIG    1       -0.057   5.028  -2.312  0.00  0.00    -0.500 OA
ENDROOT
BRANCH   2   5
ATOM      5  C   LIG    1       -0.005   7.613  -2.938  0.00  0.00    +0.150 A 
ATOM      6  C   LIG    1        0.666   8.798  -3.206  0.00  0.00    +0.090 A 
ATOM      7  C   LIG    1        0.754   9.263  -4.504  0.00  0.00    -0.160 A 
ATOM      8  C   LIG    1        0.164   8.554  -5.535  0.00  0.00    +0.120 A 
ATOM      9  C   LIG    1       -0.511   7.376  -5.270  0.00  0.00    -0.160 A 
ATOM     10  C   LIG    1       -0.597   6.904  -3.975  0.00  0.00    +0.130 A 
BRANCH   9  11
ATOM     11  C   LIG    1       -1.152   6.607  -6.397  0.00  0.00    +0.510 C 
ATOM     12  F   LIG    1       -0.173   6.236  -7.325  0.00  0.00    -0.170 F 
ATOM     13  F   LIG    1       -2.110   7.411  -7.024  0.00  0.00    -0.170 F 
ATOM     14  F   LIG    1       -1.769   5.460  -5.886  0.00  0.00    -0.170 F 
ENDBRANCH   9  11
BRANCH   7  15
ATOM     15  C   LIG    1        1.488  10.546  -4.797  0.00  0.00    +0.510 C 
ATOM     16  F   LIG    1        2.032  10.488  -6.084  0.00  0.00    -0.170 F 
ATOM     17  F   LIG    1        2.515  10.718  -3.863  0.00  0.00    -0.170 F 
ATOM     18  F   LIG    1        0.598  11.622  -4.714  0.00  0.00    -0.170 F 
ENDBRANCH   7  15
ENDBRANCH   2   5
BRANCH   1  19
ATOM     19  C   LIG    1       -0.055   5.301   0.032  0.00  0.00    +0.360 C 
BRANCH  19  22
ATOM     20  C   LIG    1        1.200   1.814   0.009  0.00  0.00    -0.130 A 
ATOM     21  C   LIG    1        1.153   3.193   0.017  0.00  0.00    +0.380 A 
ATOM     22  N   LIG    1       -0.030   3.836   0.024  0.00  0.00    -0.480 N 
ATOM     23  C   LIG    1       -1.190   3.154   0.023  0.00  0.00    +0.520 A 
ATOM     24  C   LIG    1       -1.191   1.747   0.009  0.00  0.00    -0.060 A 
ATOM     25  O   LIG    1       -2.249   3.760   0.029  0.00  0.00    -0.530 OA
ATOM     26  C   LIG    1       -0.008   1.076   0.008  0.00  0.00    +0.160 A 
BRANCH  20  28
ATOM     27  N   LIG    1        3.461   0.596  -0.004  0.00  0.00    -0.410 NA
ATOM     28  C   LIG    1        2.461   1.135   0.002  0.00  0.00    +0.260 C 
ENDBRANCH  20  28
ENDBRANCH  19  22
ENDBRANCH   1  19
TORSDOF 6
