REMARK  Name = ZINCnE000001GbaT.0
REMARK                            x       y       z     vdW  Elec       q    Type
REMARK                         _______ _______ _______ _____ _____    ______ ____
ROOT
ATOM      1  C   LIG    1       -0.608   5.721   1.212  0.00  0.00    +0.560 C 
ATOM      2  N   LIG    1       -0.428   7.056   1.240  0.00  0.00    -0.600 N 
ATOM      3  C   LIG    1       -0.815   7.839   2.421  0.00  0.00    +0.260 C 
ATOM      4  C   LIG    1       -1.742   8.975   1.977  0.00  0.00    +0.000 C 
ATOM      5  C   LIG    1       -1.053   9.791   0.880  0.00  0.00    +0.020 C 
ATOM      6  C   LIG    1       -0.777   8.893  -0.328  0.00  0.00    -0.030 C 
ATOM      7  C   LIG    1        0.166   7.755   0.092  0.00  0.00    +0.280 C 
ATOM      8  O   LIG    1       -0.214   5.073   0.262  0.00  0.00    -0.530 OA
ENDROOT
BRANCH   1  15
ATOM      9  C   LIG    1       -2.411   4.241   2.100  0.00  0.00    +0.270 A 
ATOM     10  C   LIG    1       -3.036   3.605   3.164  0.00  0.00    -0.050 A 
ATOM     11  C   LIG    1       -2.553   3.767   4.447  0.00  0.00    +0.090 A 
ATOM     12  C   LIG    1       -1.444   4.564   4.684  0.00  0.00    -0.100 A 
ATOM     13  C   LIG    1       -0.811   5.204   3.639  0.00  0.00    +0.110 A 
ATOM     14 CL   LIG    1       -0.849   4.757   6.303  0.00  0.00    -0.080 Cl
ATOM     15  C   LIG    1       -1.284   5.045   2.335  0.00  0.00    -0.200 A 
BRANCH   9  16
ATOM     16  N   LIG    1       -2.896   4.079   0.807  0.00  0.00    -0.730 N 
ATOM     17  H   LIG    1       -2.504   4.582   0.076  0.00  0.00    +0.410 HD
BRANCH  16  19
ATOM     18  C   LIG    1       -4.336   3.160  -0.942  0.00  0.00    +0.030 C 
ATOM     19  C   LIG    1       -3.998   3.149   0.550  0.00  0.00    +0.240 C 
ENDBRANCH  16  19
ENDBRANCH   9  16
ENDBRANCH   1  15
BRANCH   6  20
ATOM     20  C   LIG    1       -0.118   9.716  -1.436  0.00  0.00    +0.040 C 
BRANCH  20  21
ATOM     21  C   LIG    1        0.044   8.851  -2.687  0.00  0.00    -0.070 C 
BRANCH  21  22
ATOM     22  C   LIG    1        0.693   9.662  -3.779  0.00  0.00    +0.490 C 
ATOM     23  O   LIG    1        0.913   9.155  -4.866  0.00  0.00    -0.710 OA
ATOM     24  O   LIG    1        0.997  10.825  -3.576  0.00  0.00    -0.700 OA
ENDBRANCH  21  22
ENDBRANCH  20  21
ENDBRANCH   6  20
TORSDOF 6
