REMARK  Name = ZINCkj00000kIYvc.0
REMARK                            x       y       z     vdW  Elec       q    Type
REMARK                         _______ _______ _______ _____ _____    ______ ____
ROOT
ATOM      1  C   LIG    1        3.094   3.901   1.623  0.00  0.00    +0.250 C 
ATOM      2  C   LIG    1        2.614   3.986   3.074  0.00  0.00    +0.090 C 
ENDROOT
BRANCH   1   3
ATOM      3  C   LIG    1        1.977   4.314   0.700  0.00  0.00    +0.230 A 
ATOM      4  N   LIG    1        1.530   5.530   0.520  0.00  0.00    -0.300 NA
ATOM      5  N   LIG    1        0.567   5.537  -0.330  0.00  0.00    -0.030 NA
ATOM      6  N   LIG    1        0.338   4.341  -0.754  0.00  0.00    -0.060 NA
ATOM      7  N   LIG    1        1.254   3.499  -0.098  0.00  0.00    -0.320 N 
BRANCH   7   8
ATOM      8  C   LIG    1        1.384   2.110  -0.238  0.00  0.00    +0.110 A 
ATOM      9  C   LIG    1        1.573   1.312   0.882  0.00  0.00    +0.010 A 
ATOM     10  C   LIG    1        1.701  -0.056   0.741  0.00  0.00    +0.040 A 
ATOM     11  C   LIG    1        1.641  -0.631  -0.515  0.00  0.00    +0.040 A 
ATOM     12  C   LIG    1        1.453   0.160  -1.633  0.00  0.00    +0.040 A 
ATOM     13  C   LIG    1        1.324   1.529  -1.498  0.00  0.00    +0.050 A 
ENDBRANCH   7   8
ENDBRANCH   1   3
BRANCH   1  14
ATOM     14  N   LIG    1        4.242   4.796   1.434  0.00  0.00    -0.660 NA
ATOM     15  H   LIG    1        4.288   5.130   0.482  0.00  0.00    +0.360 HD
BRANCH  14  16
ATOM     16  C   LIG    1        5.495   4.134   1.820  0.00  0.00    +0.190 C 
BRANCH  16  17
ATOM     17  C   LIG    1        6.667   5.096   1.610  0.00  0.00    +0.270 C 
BRANCH  17  18
ATOM     18  N   LIG    1        7.920   4.434   1.996  0.00  0.00    -0.510 N 
ATOM     19  H   LIG    1        8.054   3.610   1.428  0.00  0.00    +0.430 HD
ATOM     20  H   LIG    1        7.873   4.168   2.968  0.00  0.00    +0.430 HD
BRANCH  18  22
ATOM     21  C   LIG    1        8.905   6.546   2.746  0.00  0.00    +0.080 C 
ATOM     22  C   LIG    1        9.044   5.357   1.794  0.00  0.00    +0.170 C 
ATOM     23  C   LIG    1       10.360   4.628   2.077  0.00  0.00    +0.090 C 
ENDBRANCH  18  22
ENDBRANCH  17  18
ENDBRANCH  16  17
ENDBRANCH  14  16
ENDBRANCH   1  14
TORSDOF 7
