REMARK  Name = ZINCrD000000CdUk.0
REMARK                            x       y       z     vdW  Elec       q    Type
REMARK                         _______ _______ _______ _____ _____    ______ ____
ROOT
ATOM      1  C   LIG    1        1.194  -4.159  -0.033  0.00  0.00    +0.460 A 
ATOM      2  C   LIG    1        0.236  -5.205  -0.024  0.00  0.00    -0.210 A 
ATOM      3  C   LIG    1       -1.213  -5.151  -0.003  0.00  0.00    +0.050 A 
ATOM      4  C   LIG    1       -1.811  -6.328   0.001  0.00  0.00    -0.020 A 
ATOM      5  S   LIG    1       -0.647  -7.638  -0.033  0.00  0.00    +0.180 S 
ATOM      6  C   LIG    1        0.711  -6.522  -0.041  0.00  0.00    +0.110 A 
ATOM      7  N   LIG    1        2.029  -6.739  -0.055  0.00  0.00    -0.500 NA
ATOM      8  C   LIG    1        2.884  -5.732  -0.059  0.00  0.00    +0.410 A 
ATOM      9  N   LIG    1        2.480  -4.466  -0.048  0.00  0.00    -0.480 NA
ENDROOT
BRANCH   8  10
ATOM     10  C   LIG    1        4.338  -6.023  -0.074  0.00  0.00    +0.170 A 
ATOM     11  C   LIG    1        4.778  -7.345  -0.086  0.00  0.00    +0.030 A 
ATOM     12  C   LIG    1        6.139  -7.601  -0.101  0.00  0.00    +0.060 A 
ATOM     13  C   LIG    1        7.015  -6.526  -0.104  0.00  0.00    -0.010 A 
ATOM     14  C   LIG    1        6.508  -5.238  -0.092  0.00  0.00    +0.260 A 
ATOM     15  N   LIG    1        5.210  -5.022  -0.083  0.00  0.00    -0.430 NA
ENDBRANCH   8  10
BRANCH   1  18
ATOM     16  O   LIG    1        2.892  -2.119  -0.038  0.00  0.00    -0.440 OA
ATOM     17  C   LIG    1        1.707  -1.846  -0.025  0.00  0.00    +0.600 C 
ATOM     18  N   LIG    1        0.788  -2.832  -0.022  0.00  0.00    -0.640 N 
ATOM     19  H   LIG    1       -0.157  -2.615  -0.011  0.00  0.00    +0.430 HD
BRANCH  17  20
ATOM     20  C   LIG    1        1.275  -0.436  -0.013  0.00  0.00    -0.110 A 
ATOM     21  C   LIG    1        2.101   0.652  -0.015  0.00  0.00    +0.310 A 
ATOM     22  N   LIG    1        1.309   1.743  -0.001  0.00  0.00    -0.340 N 
ATOM     23  N   LIG    1       -0.015   1.283   0.009  0.00  0.00    -0.060 NA
ATOM     24  N   LIG    1        0.002  -0.004   0.002  0.00  0.00    -0.210 NA
BRANCH  22  25
ATOM     25  C   LIG    1        1.748   3.141   0.002  0.00  0.00    +0.260 C 
ATOM     26  C   LIG    1        3.233   3.321  -0.356  0.00  0.00    +0.040 C 
ATOM     27  C   LIG    1        3.284   4.400   0.742  0.00  0.00    +0.040 C 
ATOM     28  C   LIG    1        2.099   3.674   1.401  0.00  0.00    +0.040 C 
ENDBRANCH  22  25
ENDBRANCH  17  20
ENDBRANCH   1  18
TORSDOF 4
