REMARK  Name = ZINCtV00000L6kFO.0
REMARK                            x       y       z     vdW  Elec       q    Type
REMARK                         _______ _______ _______ _____ _____    ______ ____
ROOT
ATOM      1  C   LIG    1        1.294   1.970   0.143  0.00  0.00    +0.440 A 
ATOM      2  C   LIG    1        0.013   1.459   0.138  0.00  0.00    -0.070 A 
ATOM      3  C   LIG    1       -1.066   2.328   0.294  0.00  0.00    +0.220 A 
ATOM      4  N   LIG    1       -0.863   3.618   0.456  0.00  0.00    -0.460 NA
ATOM      5  C   LIG    1        0.372   4.129   0.463  0.00  0.00    +0.290 A 
ATOM      6  C   LIG    1        0.855   5.436   0.607  0.00  0.00    -0.200 A 
ATOM      7  C   LIG    1        2.251   5.373   0.533  0.00  0.00    +0.310 A 
ATOM      8  N   LIG    1        2.610   4.125   0.357  0.00  0.00    -0.300 NA
ATOM      9  N   LIG    1        1.467   3.319   0.308  0.00  0.00    -0.330 N 
ENDROOT
BRANCH   6  10
ATOM     10  C   LIG    1        0.039   6.657   0.801  0.00  0.00    +0.010 A 
ATOM     11  C   LIG    1       -1.032   6.926  -0.050  0.00  0.00    +0.020 A 
ATOM     12  C   LIG    1       -1.792   8.062   0.140  0.00  0.00    +0.000 A 
ATOM     13  C   LIG    1       -1.486   8.939   1.165  0.00  0.00    +0.000 A 
ATOM     14  C   LIG    1       -0.421   8.681   2.009  0.00  0.00    +0.000 A 
ATOM     15  C   LIG    1        0.343   7.545   1.833  0.00  0.00    +0.010 A 
ENDBRANCH   6  10
BRANCH   1  16
ATOM     16  N   LIG    1        2.382   1.138  -0.015  0.00  0.00    -0.680 N 
ATOM     17  H   LIG    1        2.529   0.407   0.606  0.00  0.00    +0.420 HD
BRANCH  16  21
ATOM     18  C   LIG    1        5.039   1.759  -3.161  0.00  0.00    -0.110 A 
ATOM     19  C   LIG    1        5.331   0.822  -2.187  0.00  0.00    +0.050 A 
ATOM     20  C   LIG    1        4.452   0.613  -1.143  0.00  0.00    -0.030 A 
ATOM     21  C   LIG    1        3.274   1.346  -1.071  0.00  0.00    +0.180 A 
ATOM     22  C   LIG    1        2.982   2.283  -2.054  0.00  0.00    -0.040 A 
ATOM     23  C   LIG    1        3.868   2.490  -3.093  0.00  0.00    +0.040 A 
BRANCH  18  24
ATOM     24  C   LIG    1        6.001   1.984  -4.300  0.00  0.00    +0.060 C 
BRANCH  24  25
ATOM     25  C   LIG    1        5.649   1.047  -5.457  0.00  0.00    +0.010 C 
BRANCH  25  27
ATOM     26  C   LIG    1        6.274   0.338  -7.770  0.00  0.00    +0.000 C 
ATOM     27  C   LIG    1        6.625   1.275  -6.613  0.00  0.00    -0.010 C 
ENDBRANCH  25  27
ENDBRANCH  24  25
ENDBRANCH  18  24
ENDBRANCH  16  21
ENDBRANCH   1  16
BRANCH   3  28
ATOM     28  C   LIG    1       -2.472   1.786   0.285  0.00  0.00    +0.130 C 
BRANCH  28  29
ATOM     29  C   LIG    1       -3.464   2.936   0.473  0.00  0.00    +0.030 C 
ATOM     30  C   LIG    1       -4.891   2.385   0.464  0.00  0.00    +0.000 C 
ENDBRANCH  28  29
ENDBRANCH   3  28
TORSDOF 8
