REMARK  Name = ZINCpk000000n8UG.0
REMARK                            x       y       z     vdW  Elec       q    Type
REMARK                         _______ _______ _______ _____ _____    ______ ____
ROOT
ATOM      1  N   LIG    1        1.788   2.794   4.671  0.00  0.00    -0.700 N 
ATOM      2  H   LIG    1        1.229   3.573   4.526  0.00  0.00    +0.410 HD
ATOM      3  C   LIG    1        3.129   2.900   4.588  0.00  0.00    +0.570 C 
ATOM      4  O   LIG    1        3.829   1.924   4.771  0.00  0.00    -0.490 OA
ENDROOT
BRANCH   3   5
ATOM      5  C   LIG    1        3.750   4.207   4.274  0.00  0.00    +0.200 A 
ATOM      6  C   LIG    1        5.145   4.338   4.183  0.00  0.00    +0.000 A 
ATOM      7  N   LIG    1        6.192   3.497   4.321  0.00  0.00    -0.450 NA
ATOM      8  C   LIG    1        7.304   4.149   4.129  0.00  0.00    +0.530 A 
ATOM      9  N   LIG    1        7.040   5.455   3.853  0.00  0.00    -0.580 N 
ATOM     10  H   LIG    1        7.694   6.148   3.671  0.00  0.00    +0.440 HD
ATOM     11  C   LIG    1        5.676   5.613   3.879  0.00  0.00    +0.270 A 
ATOM     12  N   LIG    1        4.846   6.626   3.693  0.00  0.00    -0.500 NA
ATOM     13  C   LIG    1        3.542   6.454   3.789  0.00  0.00    +0.520 A 
ATOM     14  N   LIG    1        2.998   5.287   4.065  0.00  0.00    -0.500 NA
ENDBRANCH   3   5
BRANCH   1  15
ATOM     15  C   LIG    1        1.174   1.500   4.982  0.00  0.00    +0.290 C 
BRANCH  15  21
ATOM     16  C   LIG    1       -0.156   1.905   2.411  0.00  0.00    +0.670 C 
ATOM     17  N   LIG    1       -0.747   2.177   3.591  0.00  0.00    -0.610 N 
ATOM     18  C   LIG    1       -1.900   3.069   3.787  0.00  0.00    +0.240 C 
ATOM     19  C   LIG    1       -2.209   3.092   5.299  0.00  0.00    +0.040 C 
ATOM     20  C   LIG    1       -0.863   2.659   5.936  0.00  0.00    +0.040 C 
ATOM     21  C   LIG    1       -0.349   1.625   4.899  0.00  0.00    +0.240 C 
ATOM     22  O   LIG    1        0.847   1.220   2.377  0.00  0.00    -0.550 OA
BRANCH  16  23
ATOM     23  O   LIG    1       -0.677   2.393   1.269  0.00  0.00    -0.360 OA
BRANCH  23  25
ATOM     24  C   LIG    1        0.037   0.540  -0.140  0.00  0.00    +0.040 C 
ATOM     25  C   LIG    1        0.012   2.059   0.035  0.00  0.00    +0.140 C 
ATOM     26  C   LIG    1       -0.722   2.697  -1.147  0.00  0.00    +0.080 C 
ATOM     27  C   LIG    1        1.445   2.590   0.092  0.00  0.00    +0.040 C 
ENDBRANCH  23  25
ENDBRANCH  16  23
ENDBRANCH  15  21
ENDBRANCH   1  15
TORSDOF 5
