REMARK  Name = ZINCpe000000YXLf.0
REMARK                            x       y       z     vdW  Elec       q    Type
REMARK                         _______ _______ _______ _____ _____    ______ ____
ROOT
ATOM      1  O   LIG    1        3.024   6.828  -2.333  0.00  0.00    -0.520 OA
ATOM      2  C   LIG    1        3.291   7.567  -1.410  0.00  0.00    +0.520 C 
ATOM      3  N   LIG    1        3.722   8.821  -1.654  0.00  0.00    -0.720 N 
ATOM      4  H   LIG    1        3.936   9.412  -0.915  0.00  0.00    +0.400 HD
ENDROOT
BRANCH   3   5
ATOM      5  C   LIG    1        3.869   9.289  -3.034  0.00  0.00    +0.240 C 
ATOM      6  C   LIG    1        5.330   9.354  -3.512  0.00  0.00    -0.010 C 
ATOM      7  C   LIG    1        5.363  10.794  -2.971  0.00  0.00    +0.170 C 
ATOM      8  C   LIG    1        3.844  10.816  -3.171  0.00  0.00    -0.070 C 
ATOM      9  C   LIG    1        3.088  11.519  -2.043  0.00  0.00    +0.010 C 
ATOM     10  C   LIG    1        1.582  11.388  -2.299  0.00  0.00    +0.210 C 
ATOM     11  O   LIG    1        1.277  11.898  -3.598  0.00  0.00    -0.380 OA
ATOM     12  C   LIG    1        1.890  11.181  -4.671  0.00  0.00    +0.210 C 
ATOM     13  C   LIG    1        3.414  11.300  -4.555  0.00  0.00    +0.050 C 
BRANCH   7  14
ATOM     14  O   LIG    1        6.066  11.707  -3.817  0.00  0.00    -0.550 OA
ATOM     15  H   LIG    1        7.028  11.664  -3.730  0.00  0.00    +0.380 HD
ENDBRANCH   7  14
ENDBRANCH   3   5
BRANCH   2  16
ATOM     16  C   LIG    1        3.140   7.085   0.010  0.00  0.00    +0.120 C 
BRANCH  16  17
ATOM     17  C   LIG    1        2.646   5.661   0.007  0.00  0.00    -0.070 A 
ATOM     18  C   LIG    1        3.552   4.617  -0.007  0.00  0.00    +0.050 A 
ATOM     19  C   LIG    1        3.103   3.311  -0.010  0.00  0.00    +0.010 A 
ATOM     20  C   LIG    1        1.740   3.047   0.002  0.00  0.00    +0.130 A 
ATOM     21  C   LIG    1        0.833   4.098   0.010  0.00  0.00    +0.010 A 
ATOM     22  C   LIG    1        1.288   5.402   0.019  0.00  0.00    +0.050 A 
BRANCH  20  23
ATOM     23  N   LIG    1        1.281   1.722  -0.001  0.00  0.00    -0.430 N 
ATOM     24  C   LIG    1       -0.016   1.301   0.009  0.00  0.00    +0.380 A 
ATOM     25  N   LIG    1        0.002  -0.004   0.002  0.00  0.00    -0.290 NA
ATOM     26  N   LIG    1        1.216  -0.425  -0.012  0.00  0.00    -0.290 NA
ATOM     27  C   LIG    1        2.038   0.589  -0.014  0.00  0.00    +0.380 A 
ENDBRANCH  20  23
ENDBRANCH  16  17
ENDBRANCH   2  16
TORSDOF 5
