REMARK  Name = ZINCpe000000YwAX.0
REMARK                            x       y       z     vdW  Elec       q    Type
REMARK                         _______ _______ _______ _____ _____    ______ ____
ROOT
ATOM      1  C   LIG    1       -4.583   2.234   4.715  0.00  0.00    +0.570 C 
ATOM      2  N   LIG    1       -3.602   3.158   4.706  0.00  0.00    -0.600 N 
ATOM      3  C   LIG    1       -3.652   4.312   5.615  0.00  0.00    +0.270 C 
ATOM      4  C   LIG    1       -3.506   5.595   4.791  0.00  0.00    +0.040 C 
ATOM      5  C   LIG    1       -2.230   5.513   3.949  0.00  0.00    +0.060 C 
ATOM      6  C   LIG    1       -2.329   4.329   2.985  0.00  0.00    -0.470 C 
ATOM      7  C   LIG    1       -2.462   3.031   3.788  0.00  0.00    +0.330 C 
ATOM      8  O   LIG    1       -4.586   1.343   3.889  0.00  0.00    -0.520 OA
ENDROOT
BRANCH   1  13
ATOM      9  C   LIG    1       -6.366   2.692   8.001  0.00  0.00    -0.030 A 
ATOM     10  C   LIG    1       -7.686   2.432   7.624  0.00  0.00    +0.090 A 
ATOM     11  C   LIG    1       -7.983   2.112   6.314  0.00  0.00    +0.030 A 
ATOM     12  C   LIG    1       -6.980   2.046   5.368  0.00  0.00    +0.100 A 
ATOM     13  C   LIG    1       -5.656   2.304   5.730  0.00  0.00    -0.130 A 
ATOM     14  C   LIG    1       -5.347   2.622   7.051  0.00  0.00    +0.090 A 
BRANCH   9  16
ATOM     15  N   LIG    1       -5.815   3.287  10.437  0.00  0.00    -0.400 NA
ATOM     16  C   LIG    1       -6.059   3.023   9.359  0.00  0.00    +0.250 C 
ENDBRANCH   9  16
ENDBRANCH   1  13
BRANCH   6  17
ATOM     17  S   LIG    1       -0.834   4.256   1.961  0.00  0.00    +2.610 S 
ATOM     18  O   LIG    1       -0.788   5.359   1.066  0.00  0.00    -0.940 OA
ATOM     19  O   LIG    1        0.295   3.906   2.750  0.00  0.00    -0.940 OA
BRANCH  17  20
ATOM     20  N   LIG    1       -1.069   2.943   0.979  0.00  0.00    -1.000 NA
ATOM     21  C   LIG    1       -0.623   1.602   1.390  0.00  0.00    +0.260 C 
ATOM     22  C   LIG    1        0.198   0.994   0.247  0.00  0.00    +0.220 C 
ATOM     23  O   LIG    1       -0.554   1.070  -0.967  0.00  0.00    -0.380 OA
ATOM     24  C   LIG    1       -0.852   2.404  -1.387  0.00  0.00    +0.220 C 
ATOM     25  C   LIG    1       -1.728   3.083  -0.329  0.00  0.00    +0.260 C 
ENDBRANCH  17  20
ENDBRANCH   6  17
TORSDOF 4
