REMARK  Name = ZINCpk00000ebIwl.0
REMARK                            x       y       z     vdW  Elec       q    Type
REMARK                         _______ _______ _______ _____ _____    ______ ____
ROOT
ATOM      1  O   LIG    1       -2.778  -0.738  -1.950  0.00  0.00    -0.490 OA
ATOM      2  C   LIG    1       -3.145   0.034  -1.090  0.00  0.00    +0.510 C 
ATOM      3  N   LIG    1       -4.389   0.551  -1.135  0.00  0.00    -0.610 N 
ATOM      4  C   LIG    1       -4.901   1.390  -0.040  0.00  0.00    +0.250 C 
ATOM      5  C   LIG    1       -5.472   2.680  -0.651  0.00  0.00    +0.210 C 
ATOM      6  O   LIG    1       -6.406   2.339  -1.679  0.00  0.00    -0.370 OA
ATOM      7  C   LIG    1       -5.832   1.627  -2.778  0.00  0.00    +0.240 C 
ATOM      8  C   LIG    1       -5.278   0.288  -2.278  0.00  0.00    +0.310 C 
ENDROOT
BRANCH   8   9
ATOM      9  C   LIG    1       -4.500  -0.383  -3.381  0.00  0.00    +0.250 A 
ATOM     10  N   LIG    1       -4.702  -1.596  -3.823  0.00  0.00    -0.310 NA
ATOM     11  N   LIG    1       -3.767  -1.816  -4.847  0.00  0.00    -0.370 N 
ATOM     12  C   LIG    1       -3.041  -0.689  -4.945  0.00  0.00    +0.480 A 
ATOM     13  N   LIG    1       -3.492   0.162  -4.060  0.00  0.00    -0.530 NA
BRANCH  11  14
ATOM     14  C   LIG    1       -3.609  -3.034  -5.646  0.00  0.00    +0.390 C 
BRANCH  14  15
ATOM     15  C   LIG    1       -2.546  -3.906  -5.029  0.00  0.00    -0.120 A 
ATOM     16  C   LIG    1       -1.226  -3.765  -5.416  0.00  0.00    +0.020 A 
ATOM     17  C   LIG    1       -0.250  -4.561  -4.846  0.00  0.00    +0.000 A 
ATOM     18  C   LIG    1       -0.595  -5.504  -3.897  0.00  0.00    +0.010 A 
ATOM     19  C   LIG    1       -1.915  -5.649  -3.514  0.00  0.00    +0.000 A 
ATOM     20  C   LIG    1       -2.890  -4.850  -4.080  0.00  0.00    +0.030 A 
ENDBRANCH  14  15
ENDBRANCH  11  14
ENDBRANCH   8   9
BRANCH   2  21
ATOM     21  C   LIG    1       -2.211   0.416   0.029  0.00  0.00    +0.180 C 
ATOM     22  C   LIG    1       -2.760  -0.107   1.374  0.00  0.00    +0.020 C 
ATOM     23  C   LIG    1       -1.467  -0.577   2.100  0.00  0.00    +0.020 C 
ATOM     24  C   LIG    1       -0.629  -1.088   0.900  0.00  0.00    +0.200 C 
ATOM     25  O   LIG    1       -0.930  -0.189  -0.179  0.00  0.00    -0.350 OA
ENDBRANCH   2  21
TORSDOF 4
