REMARK  Name = ZINCpe000000Udnm.0
REMARK                            x       y       z     vdW  Elec       q    Type
REMARK                         _______ _______ _______ _____ _____    ______ ____
ROOT
ATOM      1  C   LIG    1       -3.477   1.724   2.468  0.00  0.00    +0.170 C 
ENDROOT
BRANCH   1   2
ATOM      2  C   LIG    1       -4.970   1.924   2.486  0.00  0.00    +0.490 C 
ATOM      3  O   LIG    1       -5.434   3.039   2.649  0.00  0.00    -0.690 OA
ATOM      4  O   LIG    1       -5.715   0.970   2.336  0.00  0.00    -0.680 OA
ENDBRANCH   1   2
BRANCH   1   5
ATOM      5  N   LIG    1       -3.146   0.589   1.602  0.00  0.00    -1.090 NA
ATOM      6  H   LIG    1       -3.170  -0.314   1.955  0.00  0.00    +0.410 HD
BRANCH   5   7
ATOM      7  S   LIG    1       -2.733   0.849   0.020  0.00  0.00    +2.690 S 
ATOM      8  O   LIG    1       -2.441  -0.427  -0.533  0.00  0.00    -0.970 OA
ATOM      9  O   LIG    1       -3.719   1.720  -0.515  0.00  0.00    -0.940 OA
BRANCH   7  13
ATOM     10  C   LIG    1        1.157   3.165   0.008  0.00  0.00    -0.030 A 
ATOM     11  C   LIG    1        1.175   1.783   0.000  0.00  0.00    -0.010 A 
ATOM     12  C   LIG    1       -0.013   1.076   0.008  0.00  0.00    +0.110 A 
ATOM     13  C   LIG    1       -1.219   1.750   0.017  0.00  0.00    -0.670 A 
ATOM     14  C   LIG    1       -1.238   3.133   0.030  0.00  0.00    +0.130 A 
ATOM     15  C   LIG    1       -0.050   3.840   0.022  0.00  0.00    -0.100 A 
BRANCH  10  17
ATOM     16  C   LIG    1        2.839   4.298   1.434  0.00  0.00    +0.030 C 
ATOM     17  C   LIG    1        2.451   3.937  -0.001  0.00  0.00    +0.050 C 
ENDBRANCH  10  17
BRANCH  15  18
ATOM     18  C   LIG    1       -0.070   5.347   0.030  0.00  0.00    +0.070 C 
ATOM     19  C   LIG    1        0.035   5.865  -1.406  0.00  0.00    +0.030 C 
ENDBRANCH  15  18
ENDBRANCH   7  13
ENDBRANCH   5   7
ENDBRANCH   1   5
BRANCH   1  20
ATOM     20  C   LIG    1       -2.983   1.442   3.889  0.00  0.00    +0.060 C 
BRANCH  20  21
ATOM     21  C   LIG    1       -1.456   1.362   3.891  0.00  0.00    +0.020 C 
BRANCH  21  22
ATOM     22  C   LIG    1       -0.962   1.080   5.312  0.00  0.00    +0.270 C 
BRANCH  22  23
ATOM     23  N   LIG    1        0.501   1.003   5.315  0.00  0.00    -0.690 NA
ATOM     24  H   LIG    1        0.994   1.127   4.489  0.00  0.00    +0.430 HD
BRANCH  23  25
ATOM     25  C   LIG    1        1.171   0.758   6.482  0.00  0.00    +0.740 C 
BRANCH  25  26
ATOM     26  N   LIG    1        2.501   0.689   6.484  0.00  0.00    -0.800 NA
ATOM     27  H   LIG    1        2.976   0.514   7.312  0.00  0.00    +0.440 HD
ATOM     28  H   LIG    1        2.994   0.812   5.658  0.00  0.00    +0.440 HD
ENDBRANCH  25  26
BRANCH  25  29
ATOM     29  N   LIG    1        0.493   0.588   7.616  0.00  0.00    -0.790 NA
ATOM     30  H   LIG    1        0.968   0.414   8.443  0.00  0.00    +0.440 HD
ATOM     31  H   LIG    1       -0.476   0.638   7.614  0.00  0.00    +0.440 HD
ENDBRANCH  25  29
ENDBRANCH  23  25
ENDBRANCH  22  23
ENDBRANCH  21  22
ENDBRANCH  20  21
ENDBRANCH   1  20
TORSDOF 13
