REMARK  Name = ZINCrD00000F5LxX.0
REMARK                            x       y       z     vdW  Elec       q    Type
REMARK                         _______ _______ _______ _____ _____    ______ ____
ROOT
ATOM      1  N   LIG    1       -0.067   1.120  -2.437  0.00  0.00    -0.590 N 
ENDROOT
BRANCH   1   2
ATOM      2  C   LIG    1        0.940   1.888  -3.010  0.00  0.00    +0.360 A 
ATOM      3  C   LIG    1        1.370   3.055  -2.383  0.00  0.00    +0.150 A 
ATOM      4  N   LIG    1        2.327   3.781  -2.930  0.00  0.00    -0.400 NA
ATOM      5  C   LIG    1        2.876   3.402  -4.072  0.00  0.00    +0.140 A 
ATOM      6  C   LIG    1        2.452   2.244  -4.696  0.00  0.00    +0.270 A 
ATOM      7  N   LIG    1        1.498   1.509  -4.152  0.00  0.00    -0.490 NA
ENDBRANCH   1   2
BRANCH   1   8
ATOM      8  C   LIG    1       -0.753   1.593  -1.232  0.00  0.00    +0.300 C 
BRANCH   8   9
ATOM      9  C   LIG    1       -0.013   1.086   0.008  0.00  0.00    +0.030 C 
BRANCH   9  14
ATOM     10  C   LIG    1        0.731   4.731   2.713  0.00  0.00    +0.300 C 
ATOM     11  N   LIG    1        0.348   3.371   2.327  0.00  0.00    -0.620 N 
ATOM     12  C   LIG    1        0.934   2.152   2.897  0.00  0.00    +0.250 C 
ATOM     13  C   LIG    1       -0.046   1.015   2.534  0.00  0.00    +0.050 C 
ATOM     14  C   LIG    1       -0.729   1.579   1.267  0.00  0.00    -0.010 C 
ATOM     15  C   LIG    1       -0.588   3.079   1.403  0.00  0.00    +0.520 C 
ATOM     16  O   LIG    1       -1.224   3.897   0.771  0.00  0.00    -0.520 OA
ENDBRANCH   9  14
ENDBRANCH   8   9
ENDBRANCH   1   8
BRANCH   1  17
ATOM     17  C   LIG    1       -0.443  -0.162  -3.038  0.00  0.00    +0.330 C 
BRANCH  17  18
ATOM     18  C   LIG    1       -1.552   0.063  -4.068  0.00  0.00    -0.060 C 
ATOM     19  C   LIG    1       -1.237  -0.264  -5.529  0.00  0.00    +0.040 C 
ATOM     20  C   LIG    1       -2.166  -1.172  -4.725  0.00  0.00    -0.130 C 
ATOM     21  C   LIG    1       -3.661  -1.134  -5.054  0.00  0.00    +0.080 C 
ATOM     22  C   LIG    1       -4.445  -1.703  -3.867  0.00  0.00    +0.020 C 
ATOM     23  C   LIG    1       -3.948  -3.116  -3.558  0.00  0.00    +0.290 C 
ATOM     24  C   LIG    1       -2.478  -3.068  -3.138  0.00  0.00    +0.030 C 
ATOM     25  F   LIG    1       -4.711  -3.659  -2.520  0.00  0.00    -0.200 F 
ATOM     26  F   LIG    1       -4.079  -3.914  -4.699  0.00  0.00    -0.200 F 
ATOM     27  C   LIG    1       -1.631  -2.543  -4.301  0.00  0.00    +0.080 C 
ENDBRANCH  17  18
ENDBRANCH   1  17
TORSDOF 6
