REMARK  Name = ZINCpe000000UcOB.0
REMARK                            x       y       z     vdW  Elec       q    Type
REMARK                         _______ _______ _______ _____ _____    ______ ____
ROOT
ATOM      1  N   LIG    1        1.204  -2.768  -2.073  0.00  0.00    -0.710 N 
ATOM      2  H   LIG    1        1.205  -3.737  -2.057  0.00  0.00    +0.420 HD
ENDROOT
BRANCH   1  10
ATOM      3  C   LIG    1        0.002  -0.004   0.002  0.00  0.00    +0.270 A 
ATOM      4  N   LIG    1       -0.551  -0.671   0.993  0.00  0.00    -0.500 NA
ATOM      5  C   LIG    1       -0.549  -2.009   1.015  0.00  0.00    +0.490 A 
ATOM      6  N   LIG    1       -1.031  -2.891   1.884  0.00  0.00    -0.540 NA
ATOM      7  C   LIG    1       -0.777  -4.123   1.458  0.00  0.00    +0.490 A 
ATOM      8  N   LIG    1       -0.134  -4.071   0.318  0.00  0.00    -0.360 NA
ATOM      9  N   LIG    1        0.031  -2.717   0.001  0.00  0.00    -0.370 N 
ATOM     10  C   LIG    1        0.616  -2.063  -1.045  0.00  0.00    +0.490 A 
ATOM     11  C   LIG    1        0.601  -0.682  -1.057  0.00  0.00    -0.150 A 
BRANCH   3  13
ATOM     12  C   LIG    1       -0.735   1.996   1.269  0.00  0.00    +0.040 C 
ATOM     13  C   LIG    1       -0.018   1.503   0.010  0.00  0.00    +0.120 C 
ENDBRANCH   3  13
ENDBRANCH   1  10
BRANCH   1  14
ATOM     14  C   LIG    1        1.827  -2.052  -3.188  0.00  0.00    +0.280 C 
BRANCH  14  15
ATOM     15  C   LIG    1        2.401  -3.061  -4.185  0.00  0.00    +0.010 C 
BRANCH  15  16
ATOM     16  C   LIG    1        3.052  -2.314  -5.350  0.00  0.00    +0.370 C 
BRANCH  16  17
ATOM     17  N   LIG    1        3.601  -3.280  -6.305  0.00  0.00    -0.460 N 
ATOM     18  N   LIG    1        4.896  -3.819  -6.290  0.00  0.00    -0.280 NA
ATOM     19  C   LIG    1        5.008  -4.622  -7.292  0.00  0.00    +0.280 A 
ATOM     20  C   LIG    1        6.212  -5.450  -7.676  0.00  0.00    +0.170 C 
ATOM     21  C   LIG    1        6.043  -5.884  -9.139  0.00  0.00    +0.040 C 
ATOM     22  C   LIG    1        4.650  -6.496  -9.319  0.00  0.00    +0.040 C 
ATOM     23  C   LIG    1        3.593  -5.390  -9.225  0.00  0.00    +0.300 C 
ATOM     24  N   LIG    1        3.819  -4.628  -7.992  0.00  0.00    -0.560 N 
ATOM     25  C   LIG    1        2.951  -3.822  -7.358  0.00  0.00    +0.650 A 
ATOM     26  O   LIG    1        1.794  -3.615  -7.676  0.00  0.00    -0.550 OA
ENDBRANCH  16  17
ENDBRANCH  15  16
ENDBRANCH  14  15
ENDBRANCH   1  14
TORSDOF 6
