REMARK  Name = ZINCvU0000000BAP.0
REMARK                            x       y       z     vdW  Elec       q    Type
REMARK                         _______ _______ _______ _____ _____    ______ ____
ROOT
ATOM      1  C   LIG    1       -2.274  -0.148   0.887  0.00  0.00    +0.540 A 
ATOM      2  N   LIG    1       -1.184  -0.886   0.792  0.00  0.00    -0.550 NA
ATOM      3  C   LIG    1       -1.271  -2.190   0.488  0.00  0.00    +0.200 A 
ATOM      4  C   LIG    1       -0.134  -3.002   0.380  0.00  0.00    +0.020 A 
ATOM      5  C   LIG    1       -0.277  -4.322   0.068  0.00  0.00    +0.060 A 
ATOM      6  C   LIG    1       -1.536  -4.876  -0.145  0.00  0.00    -0.010 A 
ATOM      7  C   LIG    1       -2.663  -4.113  -0.048  0.00  0.00    +0.050 A 
ATOM      8  C   LIG    1       -2.551  -2.756   0.270  0.00  0.00    -0.210 A 
ATOM      9  C   LIG    1       -3.686  -1.914   0.385  0.00  0.00    +0.480 A 
ATOM     10  N   LIG    1       -3.495  -0.640   0.696  0.00  0.00    -0.580 NA
ENDROOT
BRANCH   1  18
ATOM     11  C   LIG    1        2.633   0.289   2.425  0.00  0.00    +0.120 A 
ATOM     12  C   LIG    1        2.676   0.890   1.176  0.00  0.00    -0.090 A 
ATOM     13  C   LIG    1        1.514   1.358   0.599  0.00  0.00    +0.050 A 
ATOM     14  C   LIG    1        0.300   1.230   1.259  0.00  0.00    -0.110 A 
ATOM     15  C   LIG    1        0.255   0.630   2.500  0.00  0.00    -0.010 A 
ATOM     16  C   LIG    1       -1.042   0.465   3.251  0.00  0.00    +0.040 C 
ATOM     17  C   LIG    1       -2.108   1.388   2.661  0.00  0.00    +0.260 C 
ATOM     18  N   LIG    1       -2.141   1.191   1.203  0.00  0.00    -0.460 N 
ATOM     19  C   LIG    1       -0.939   1.761   0.587  0.00  0.00    +0.240 C 
ATOM     20  C   LIG    1       -0.908   1.388  -0.897  0.00  0.00    +0.050 C 
ATOM     21  C   LIG    1        1.420   0.161   3.083  0.00  0.00    -0.030 A 
BRANCH  11  23
ATOM     22  C   LIG    1        4.986  -0.006   2.263  0.00  0.00    +0.230 C 
ATOM     23  O   LIG    1        3.774  -0.172   3.001  0.00  0.00    -0.320 OA
ENDBRANCH  11  23
ENDBRANCH   1  18
BRANCH   9  24
ATOM     24  N   LIG    1       -4.956  -2.410   0.185  0.00  0.00    -0.690 N 
ATOM     25  H   LIG    1       -5.082  -3.345  -0.038  0.00  0.00    +0.410 HD
BRANCH  24  26
ATOM     26  C   LIG    1       -6.116  -1.524   0.308  0.00  0.00    +0.330 C 
BRANCH  26  27
ATOM     27  C   LIG    1       -7.377  -2.306   0.043  0.00  0.00    -0.120 A 
ATOM     28  C   LIG    1       -7.878  -2.394  -1.242  0.00  0.00    +0.020 A 
ATOM     29  C   LIG    1       -9.031  -3.116  -1.487  0.00  0.00    +0.010 A 
ATOM     30  C   LIG    1       -9.689  -3.741  -0.444  0.00  0.00    +0.010 A 
ATOM     31  C   LIG    1       -9.191  -3.649   0.842  0.00  0.00    +0.010 A 
ATOM     32  C   LIG    1       -8.034  -2.932   1.085  0.00  0.00    +0.020 A 
ENDBRANCH  26  27
ENDBRANCH  24  26
ENDBRANCH   9  24
TORSDOF 5
