REMARK  Name = ZINCrg00000aGtOh.0
REMARK                            x       y       z     vdW  Elec       q    Type
REMARK                         _______ _______ _______ _____ _____    ______ ____
ROOT
ATOM      1  C   LIG    1        7.866   2.107  -2.137  0.00  0.00    +0.200 C 
ATOM      2  N   LIG    1        6.982   1.417  -1.188  0.00  0.00    -0.540 NA
ATOM      3  C   LIG    1        5.661   2.057  -1.140  0.00  0.00    +0.170 C 
ATOM      4  C   LIG    1        4.832   1.427  -0.021  0.00  0.00    +0.280 C 
ATOM      5  N   LIG    1        4.810  -0.031  -0.212  0.00  0.00    -0.610 N 
ATOM      6  C   LIG    1        6.091  -0.727  -0.407  0.00  0.00    +0.300 C 
ATOM      7  C   LIG    1        3.646  -0.711  -0.215  0.00  0.00    +0.570 C 
ATOM      8  O   LIG    1        3.651  -1.924  -0.300  0.00  0.00    -0.530 OA
ATOM      9  C   LIG    1        6.870  -0.011  -1.516  0.00  0.00    +0.120 C 
ENDROOT
BRANCH   7  10
ATOM     10  C   LIG    1        2.368   0.016  -0.114  0.00  0.00    -0.080 A 
ATOM     11  C   LIG    1        1.344  -0.210  -1.056  0.00  0.00    -0.070 A 
ATOM     12  C   LIG    1        1.215  -1.071  -2.228  0.00  0.00    -0.050 A 
ATOM     13  C   LIG    1       -0.010  -0.857  -2.740  0.00  0.00    +0.230 A 
ATOM     14  N   LIG    1       -0.673   0.072  -1.989  0.00  0.00    -0.590 N 
ATOM     15  H   LIG    1       -1.573   0.390  -2.163  0.00  0.00    +0.420 HD
ATOM     16  C   LIG    1        0.128   0.489  -0.949  0.00  0.00    +0.090 A 
ATOM     17  C   LIG    1       -0.050   1.398   0.088  0.00  0.00    +0.020 A 
ATOM     18  C   LIG    1        0.959   1.613   1.006  0.00  0.00    +0.020 A 
ATOM     19  C   LIG    1        2.159   0.933   0.914  0.00  0.00    +0.020 A 
ENDBRANCH   7  10
BRANCH   9  20
ATOM     20  C   LIG    1        8.269  -0.620  -1.632  0.00  0.00    +0.280 C 
BRANCH  20  21
ATOM     21  N   LIG    1        9.029  -0.333  -0.413  0.00  0.00    -0.720 N 
ATOM     22  H   LIG    1        8.647   0.236   0.274  0.00  0.00    +0.410 HD
ATOM     23  C   LIG    1       10.258  -0.859  -0.245  0.00  0.00    +0.590 C 
ATOM     24  O   LIG    1       10.736  -1.573  -1.106  0.00  0.00    -0.550 OA
BRANCH  23  25
ATOM     25  C   LIG    1       11.023  -0.571   0.981  0.00  0.00    -0.300 A 
ATOM     26  C   LIG    1       12.285  -1.037   1.289  0.00  0.00    +0.330 A 
ATOM     27  N   LIG    1       12.615  -0.541   2.492  0.00  0.00    -0.460 N 
ATOM     28  H   LIG    1       13.448  -0.702   2.963  0.00  0.00    +0.450 HD
ATOM     29  N   LIG    1       11.554   0.246   2.953  0.00  0.00    -0.290 NA
ATOM     30  C   LIG    1       10.604   0.240   2.060  0.00  0.00    +0.280 A 
ENDBRANCH  23  25
ENDBRANCH  20  21
ENDBRANCH   9  20
TORSDOF 4
