REMARK  Name = ZINCtV000002Mc1f.0
REMARK                            x       y       z     vdW  Elec       q    Type
REMARK                         _______ _______ _______ _____ _____    ______ ____
ROOT
ATOM      1  O   LIG    1        0.949   0.422  -2.373  0.00  0.00    -0.500 OA
ATOM      2  C   LIG    1       -0.047   1.107  -2.471  0.00  0.00    +0.510 C 
ATOM      3  N   LIG    1       -0.524   1.433  -3.689  0.00  0.00    -0.620 N 
ATOM      4  H   LIG    1       -1.321   1.980  -3.768  0.00  0.00    +0.430 HD
ENDROOT
BRANCH   3   5
ATOM      5  C   LIG    1        0.127   0.984  -4.832  0.00  0.00    +0.280 A 
ATOM      6  N   LIG    1       -0.241   1.235  -6.050  0.00  0.00    -0.500 NA
ATOM      7  C   LIG    1        0.503   0.723  -7.021  0.00  0.00    +0.130 A 
ATOM      8  C   LIG    1        1.561  -0.003  -6.615  0.00  0.00    -0.110 A 
ATOM      9  S   LIG    1        1.582  -0.006  -4.853  0.00  0.00    +0.210 S 
BRANCH   7  10
ATOM     10  C   LIG    1        0.191   0.936  -8.455  0.00  0.00    -0.020 A 
ATOM     11  C   LIG    1       -0.910   1.692  -8.812  0.00  0.00    +0.070 A 
ATOM     12  C   LIG    1       -1.200   1.891 -10.171  0.00  0.00    -0.050 A 
ATOM     13  C   LIG    1       -2.310   2.652 -10.573  0.00  0.00    +0.030 A 
ATOM     14  C   LIG    1       -2.564   2.825 -11.900  0.00  0.00    +0.000 A 
ATOM     15  C   LIG    1       -1.737   2.257 -12.867  0.00  0.00    +0.010 A 
ATOM     16  C   LIG    1       -0.652   1.514 -12.514  0.00  0.00    +0.020 A 
ATOM     17  C   LIG    1       -0.358   1.313 -11.155  0.00  0.00    -0.050 A 
ATOM     18  C   LIG    1        0.754   0.549 -10.759  0.00  0.00    +0.020 A 
ATOM     19  C   LIG    1        1.021   0.373  -9.439  0.00  0.00    +0.030 A 
ENDBRANCH   7  10
ENDBRANCH   3   5
BRANCH   2  20
ATOM     20  C   LIG    1       -0.753   1.593  -1.232  0.00  0.00    +0.080 C 
BRANCH  20  21
ATOM     21  C   LIG    1       -0.013   1.086   0.008  0.00  0.00    +0.130 C 
BRANCH  21  22
ATOM     22  C   LIG    1       -0.718   1.572   1.248  0.00  0.00    -0.180 A 
ATOM     23  C   LIG    1       -0.420   2.672   1.957  0.00  0.00    +0.230 A 
ATOM     24  N   LIG    1       -1.277   2.791   3.017  0.00  0.00    -0.600 N 
ATOM     25  H   LIG    1       -1.258   3.506   3.672  0.00  0.00    +0.420 HD
ATOM     26  C   LIG    1       -2.171   1.743   3.016  0.00  0.00    +0.090 A 
ATOM     27  C   LIG    1       -3.228   1.385   3.846  0.00  0.00    -0.010 A 
ATOM     28  C   LIG    1       -3.956   0.247   3.575  0.00  0.00    +0.030 A 
ATOM     29  C   LIG    1       -3.645  -0.548   2.480  0.00  0.00    -0.020 A 
ATOM     30  C   LIG    1       -2.610  -0.215   1.652  0.00  0.00    +0.050 A 
ATOM     31  C   LIG    1       -1.863   0.937   1.904  0.00  0.00    -0.100 A 
ENDBRANCH  21  22
ENDBRANCH  20  21
ENDBRANCH   2  20
TORSDOF 5
