REMARK  Name = ZINCqH0000006qDU.1
REMARK                            x       y       z     vdW  Elec       q    Type
REMARK                         _______ _______ _______ _____ _____    ______ ____
ROOT
ATOM      1  C   LIG    1        0.375   4.120  -0.396  0.00  0.00    +0.380 A 
ATOM      2  N   LIG    1       -0.863   3.659  -0.402  0.00  0.00    -0.570 NA
ATOM      3  C   LIG    1       -1.122   2.388  -0.133  0.00  0.00    +0.490 A 
ATOM      4  C   LIG    1       -0.045   1.514   0.154  0.00  0.00    -0.220 A 
ATOM      5  C   LIG    1       -0.043   0.091   0.474  0.00  0.00    -0.020 A 
ATOM      6  C   LIG    1        1.165  -0.421   0.697  0.00  0.00    -0.020 A 
ATOM      7  S   LIG    1        2.414   0.798   0.534  0.00  0.00    +0.190 S 
ATOM      8  C   LIG    1        1.244   2.050   0.148  0.00  0.00    +0.120 A 
ATOM      9  N   LIG    1        1.405   3.351  -0.130  0.00  0.00    -0.510 NA
ENDROOT
BRANCH   5  10
ATOM     10  C   LIG    1       -1.284  -0.716   0.545  0.00  0.00    -0.050 A 
ATOM     11  C   LIG    1       -2.298  -0.365   1.436  0.00  0.00    +0.000 A 
ATOM     12  C   LIG    1       -3.453  -1.117   1.494  0.00  0.00    +0.050 A 
ATOM     13  C   LIG    1       -3.602  -2.225   0.679  0.00  0.00    +0.010 A 
ATOM     14  C   LIG    1       -2.597  -2.582  -0.203  0.00  0.00    +0.020 A 
ATOM     15  C   LIG    1       -1.440  -1.834  -0.274  0.00  0.00    +0.010 A 
ENDBRANCH   5  10
BRANCH   3  16
ATOM     16  N   LIG    1       -2.424   1.921  -0.138  0.00  0.00    -0.690 N 
ATOM     17  H   LIG    1       -2.599   0.973  -0.027  0.00  0.00    +0.430 HD
BRANCH  16  18
ATOM     18  C   LIG    1       -3.538   2.857  -0.310  0.00  0.00    +0.350 C 
ATOM     19  C   LIG    1       -3.774   3.098  -1.803  0.00  0.00    +0.060 C 
BRANCH  18  20
ATOM     20  C   LIG    1       -4.783   2.275   0.308  0.00  0.00    +0.160 A 
ATOM     21  N   LIG    1       -5.034   1.008   0.496  0.00  0.00    -0.270 NA
ATOM     22  N   LIG    1       -6.188   0.873   1.048  0.00  0.00    -0.290 NA
ATOM     23  C   LIG    1       -6.725   2.047   1.236  0.00  0.00    +0.390 A 
ATOM     24  N   LIG    1       -5.847   2.971   0.777  0.00  0.00    -0.570 N 
ATOM     25  H   LIG    1       -5.958   3.934   0.781  0.00  0.00    +0.430 HD
ENDBRANCH  18  20
ENDBRANCH  16  18
ENDBRANCH   3  16
BRANCH   1  26
ATOM     26  C   LIG    1        0.613   5.576  -0.702  0.00  0.00    +0.300 C 
BRANCH  26  28
ATOM     27  C   LIG    1        1.039   7.093  -2.509  0.00  0.00    +0.210 C 
ATOM     28  O   LIG    1        0.805   5.741  -2.109  0.00  0.00    -0.380 OA
ENDBRANCH  26  28
ENDBRANCH   1  26
TORSDOF 6
