REMARK  Name = ZINCqH0000006qDU.0
REMARK                            x       y       z     vdW  Elec       q    Type
REMARK                         _______ _______ _______ _____ _____    ______ ____
ROOT
ATOM      1  C   LIG    1        2.990  -0.752   2.142  0.00  0.00    +0.380 A 
ATOM      2  N   LIG    1        2.048  -0.080   1.505  0.00  0.00    -0.570 NA
ATOM      3  C   LIG    1        2.347   0.958   0.737  0.00  0.00    +0.500 A 
ATOM      4  C   LIG    1        3.702   1.352   0.614  0.00  0.00    -0.220 A 
ATOM      5  C   LIG    1        4.302   2.442  -0.146  0.00  0.00    -0.020 A 
ATOM      6  C   LIG    1        5.626   2.526  -0.035  0.00  0.00    -0.020 A 
ATOM      7  S   LIG    1        6.259   1.273   1.015  0.00  0.00    +0.190 S 
ATOM      8  C   LIG    1        4.658   0.612   1.311  0.00  0.00    +0.120 A 
ATOM      9  N   LIG    1        4.259  -0.425   2.059  0.00  0.00    -0.510 NA
ENDROOT
BRANCH   5  10
ATOM     10  C   LIG    1        3.504   3.377  -0.975  0.00  0.00    -0.040 A 
ATOM     11  C   LIG    1        3.771   3.507  -2.337  0.00  0.00    +0.030 A 
ATOM     12  C   LIG    1        3.021   4.376  -3.104  0.00  0.00    +0.020 A 
ATOM     13  C   LIG    1        2.014   5.124  -2.521  0.00  0.00    +0.010 A 
ATOM     14  C   LIG    1        1.749   5.003  -1.169  0.00  0.00    +0.040 A 
ATOM     15  C   LIG    1        2.488   4.134  -0.393  0.00  0.00    +0.000 A 
ENDBRANCH   5  10
BRANCH   3  16
ATOM     16  N   LIG    1        1.351   1.649   0.072  0.00  0.00    -0.690 N 
ATOM     17  H   LIG    1        1.583   2.355  -0.551  0.00  0.00    +0.420 HD
BRANCH  16  18
ATOM     18  C   LIG    1       -0.056   1.315   0.307  0.00  0.00    +0.360 C 
ATOM     19  C   LIG    1       -0.560   2.068   1.540  0.00  0.00    +0.050 C 
BRANCH  18  20
ATOM     20  C   LIG    1       -0.875   1.712  -0.894  0.00  0.00    +0.220 A 
ATOM     21  N   LIG    1       -0.781   2.847  -1.535  0.00  0.00    -0.300 NA
ATOM     22  N   LIG    1       -1.717   2.800  -2.582  0.00  0.00    -0.480 N 
ATOM     23  H   LIG    1       -1.888   3.491  -3.240  0.00  0.00    +0.440 HD
ATOM     24  C   LIG    1       -2.331   1.607  -2.487  0.00  0.00    +0.500 A 
ATOM     25  N   LIG    1       -1.816   0.965  -1.470  0.00  0.00    -0.530 NA
ENDBRANCH  18  20
ENDBRANCH  16  18
ENDBRANCH   3  16
BRANCH   1  26
ATOM     26  C   LIG    1        2.595  -1.928   2.997  0.00  0.00    +0.290 C 
BRANCH  26  28
ATOM     27  C   LIG    1        1.943  -2.525   5.225  0.00  0.00    +0.220 C 
ATOM     28  O   LIG    1        2.329  -1.482   4.328  0.00  0.00    -0.380 OA
ENDBRANCH  26  28
ENDBRANCH   1  26
TORSDOF 6
