REMARK  Name = ZINCrg00000B28ZJ.0
REMARK                            x       y       z     vdW  Elec       q    Type
REMARK                         _______ _______ _______ _____ _____    ______ ____
ROOT
ATOM      1  C   LIG    1        3.173   0.827  -0.432  0.00  0.00    +0.620 C 
ATOM      2  N   LIG    1        3.837   1.996  -0.333  0.00  0.00    -0.600 N 
ATOM      3  C   LIG    1        3.217   3.327  -0.338  0.00  0.00    +0.280 C 
ATOM      4  C   LIG    1        4.258   4.295   0.258  0.00  0.00    +0.040 C 
ATOM      5  C   LIG    1        5.613   3.645  -0.105  0.00  0.00    +0.020 C 
ATOM      6  C   LIG    1        5.961   4.049  -1.551  0.00  0.00    +0.260 C 
ATOM      7  N   LIG    1        6.421   2.838  -2.238  0.00  0.00    -0.610 N 
ATOM      8  C   LIG    1        5.999   1.657  -1.479  0.00  0.00    +0.260 C 
ATOM      9  C   LIG    1        7.123   2.814  -3.389  0.00  0.00    +0.590 C 
ATOM     10  O   LIG    1        7.344   3.850  -3.988  0.00  0.00    -0.520 OA
ATOM     11  C   LIG    1        5.286   2.137  -0.211  0.00  0.00    +0.230 C 
ATOM     12  O   LIG    1        3.787  -0.223  -0.423  0.00  0.00    -0.540 OA
ENDROOT
BRANCH   9  13
ATOM     13  C   LIG    1        7.621   1.534  -3.921  0.00  0.00    -0.130 A 
ATOM     14  C   LIG    1        6.775   0.677  -4.605  0.00  0.00    +0.130 A 
ATOM     15  C   LIG    1        7.287  -0.531  -5.103  0.00  0.00    -0.010 A 
ATOM     16  C   LIG    1        6.721  -1.577  -5.813  0.00  0.00    +0.190 A 
ATOM     17  N   LIG    1        7.676  -2.481  -6.019  0.00  0.00    -0.460 NA
ATOM     18  C   LIG    1        8.800  -2.072  -5.486  0.00  0.00    +0.370 A 
ATOM     19  N   LIG    1        8.612  -0.869  -4.906  0.00  0.00    -0.370 N 
ATOM     20  C   LIG    1        9.458  -0.028  -4.224  0.00  0.00    +0.220 A 
ATOM     21  C   LIG    1        9.021   1.142  -3.732  0.00  0.00    +0.050 A 
ENDBRANCH   9  13
BRANCH   1  26
ATOM     22  C   LIG    1       -1.565  -0.672  -0.870  0.00  0.00    +0.330 C 
ATOM     23  N   LIG    1       -0.368   0.162  -0.742  0.00  0.00    -0.460 N 
ATOM     24  C   LIG    1       -0.339   1.519  -0.687  0.00  0.00    +0.400 A 
ATOM     25  N   LIG    1        0.897   1.912  -0.573  0.00  0.00    -0.460 NA
ATOM     26  C   LIG    1        1.705   0.821  -0.550  0.00  0.00    -0.060 A 
ATOM     27  C   LIG    1        0.909  -0.282  -0.657  0.00  0.00    +0.230 A 
ENDBRANCH   1  26
TORSDOF 2
