REMARK  Name = ZINCpk00000KfLs6.0
REMARK                            x       y       z     vdW  Elec       q    Type
REMARK                         _______ _______ _______ _____ _____    ______ ____
ROOT
ATOM      1  O   LIG    1        1.130   2.871   0.007  0.00  0.00    -0.590 OA
ATOM      2  C   LIG    1        1.147   1.655   0.000  0.00  0.00    +0.700 C 
ATOM      3  N   LIG    1        2.323   0.998  -0.015  0.00  0.00    -0.740 N 
ATOM      4  H   LIG    1        2.336   0.028  -0.020  0.00  0.00    +0.400 HD
ATOM      5  N   LIG    1       -0.011   0.966   0.007  0.00  0.00    -0.740 N 
ATOM      6  H   LIG    1        0.002  -0.004   0.002  0.00  0.00    +0.400 HD
ENDROOT
BRANCH   3   7
ATOM      7  C   LIG    1        3.582   1.747  -0.023  0.00  0.00    +0.250 C 
ATOM      8  C   LIG    1        3.947   2.118  -1.463  0.00  0.00    +0.030 C 
ATOM      9  C   LIG    1        5.293   2.848  -1.471  0.00  0.00    +0.220 C 
ATOM     10  N   LIG    1        6.325   1.978  -0.893  0.00  0.00    -0.460 N 
ATOM     11  C   LIG    1        6.020   1.647   0.505  0.00  0.00    +0.230 C 
ATOM     12  C   LIG    1        4.696   0.882   0.572  0.00  0.00    +0.030 C 
BRANCH  10  13
ATOM     13  C   LIG    1        7.578   2.556  -1.003  0.00  0.00    +0.490 A 
ATOM     14  N   LIG    1        8.306   2.737   0.089  0.00  0.00    -0.550 NA
ATOM     15  C   LIG    1        9.509   3.280   0.018  0.00  0.00    +0.340 A 
ATOM     16  C   LIG    1       10.002   3.673  -1.217  0.00  0.00    -0.110 A 
ATOM     17  C   LIG    1        9.212   3.474  -2.339  0.00  0.00    +0.350 A 
ATOM     18  N   LIG    1        8.020   2.919  -2.198  0.00  0.00    -0.530 NA
ENDBRANCH  10  13
ENDBRANCH   3   7
BRANCH   5  19
ATOM     19  C   LIG    1       -1.290   1.681   0.017  0.00  0.00    +0.260 C 
BRANCH  19  20
ATOM     20  C   LIG    1       -2.439   0.671   0.017  0.00  0.00    +0.250 C 
BRANCH  20  21
ATOM     21  C   LIG    1       -3.751   1.403  -0.096  0.00  0.00    -0.120 A 
ATOM     22  C   LIG    1       -4.316   1.986   1.022  0.00  0.00    +0.010 A 
ATOM     23  C   LIG    1       -5.518   2.662   0.917  0.00  0.00    +0.010 A 
ATOM     24  C   LIG    1       -6.159   2.747  -0.305  0.00  0.00    +0.010 A 
ATOM     25  C   LIG    1       -5.596   2.159  -1.422  0.00  0.00    +0.010 A 
ATOM     26  C   LIG    1       -4.392   1.487  -1.318  0.00  0.00    +0.010 A 
ENDBRANCH  20  21
BRANCH  20  27
ATOM     27  O   LIG    1       -2.415  -0.078   1.234  0.00  0.00    -0.550 OA
ATOM     28  H   LIG    1       -2.510   0.463   2.030  0.00  0.00    +0.380 HD
ENDBRANCH  20  27
ENDBRANCH  19  20
ENDBRANCH   5  19
TORSDOF 6
