REMARK  Name = ZINCqH0000001AB3.0
REMARK                            x       y       z     vdW  Elec       q    Type
REMARK                         _______ _______ _______ _____ _____    ______ ____
ROOT
ATOM      1  C   LIG    1       -3.956  -4.641   0.016  0.00  0.00    +0.300 C 
ENDROOT
BRANCH   1   2
ATOM      2  C   LIG    1       -3.914  -6.019  -0.592  0.00  0.00    -0.080 A 
ATOM      3  C   LIG    1       -2.856  -6.863  -0.313  0.00  0.00    +0.020 A 
ATOM      4  C   LIG    1       -2.810  -8.130  -0.867  0.00  0.00    +0.030 A 
ATOM      5  C   LIG    1       -3.830  -8.550  -1.704  0.00  0.00    +0.070 A 
ATOM      6  O   LIG    1       -3.799  -9.797  -2.256  0.00  0.00    -0.320 OA
ATOM      7  C   LIG    1       -3.602  -9.849  -3.671  0.00  0.00    +0.230 C 
ATOM      8  C   LIG    1       -4.922  -9.679  -4.405  0.00  0.00    -0.010 C 
ATOM      9  C   LIG    1       -5.535  -8.305  -4.183  0.00  0.00    +0.230 C 
ATOM     10  O   LIG    1       -5.893  -8.125  -2.811  0.00  0.00    -0.320 OA
ATOM     11  C   LIG    1       -4.893  -7.702  -1.985  0.00  0.00    +0.070 A 
ATOM     12  C   LIG    1       -4.938  -6.437  -1.424  0.00  0.00    +0.040 A 
ENDBRANCH   1   2
BRANCH   1  13
ATOM     13  N   LIG    1       -2.610  -4.061   0.006  0.00  0.00    -0.720 N 
ATOM     14  H   LIG    1       -1.833  -4.641  -0.005  0.00  0.00    +0.400 HD
ATOM     15  C   LIG    1       -2.453  -2.723   0.012  0.00  0.00    +0.520 C 
ATOM     16  O   LIG    1       -3.426  -1.998   0.025  0.00  0.00    -0.500 OA
BRANCH  15  17
ATOM     17  C   LIG    1       -1.069  -2.126   0.001  0.00  0.00    +0.220 C 
BRANCH  17  18
ATOM     18  O   LIG    1       -1.165  -0.701   0.010  0.00  0.00    -0.290 OA
BRANCH  18  19
ATOM     19  C   LIG    1        0.002  -0.004   0.002  0.00  0.00    +0.130 A 
ATOM     20  C   LIG    1       -0.017   1.383   0.010  0.00  0.00    -0.020 A 
ATOM     21  C   LIG    1        1.171   2.089   0.002  0.00  0.00    +0.050 A 
ATOM     22  C   LIG    1        2.377   1.414  -0.013  0.00  0.00    -0.030 A 
ATOM     23  C   LIG    1        2.399   0.031  -0.021  0.00  0.00    +0.050 A 
ATOM     24  C   LIG    1        1.214  -0.679  -0.013  0.00  0.00    -0.080 A 
ENDBRANCH  18  19
ENDBRANCH  17  18
ENDBRANCH  15  17
ENDBRANCH   1  13
BRANCH   1  26
ATOM     25  C   LIG    1       -3.451  -5.519   2.301  0.00  0.00    +0.020 C 
ATOM     26  C   LIG    1       -4.460  -4.735   1.458  0.00  0.00    -0.020 C 
ATOM     27  C   LIG    1       -4.621  -3.327   2.035  0.00  0.00    +0.030 C 
ENDBRANCH   1  26
TORSDOF 6
