REMARK  Name = ZINCrH000004tlAc.0
REMARK                            x       y       z     vdW  Elec       q    Type
REMARK                         _______ _______ _______ _____ _____    ______ ____
ROOT
ATOM      1  N   LIG    1        0.286   2.606   1.174  0.00  0.00    -0.530 NA
ATOM      2  C   LIG    1       -0.791   1.712   0.729  0.00  0.00    +0.170 C 
ATOM      3  C   LIG    1       -0.200   0.348   0.359  0.00  0.00    +0.300 C 
ATOM      4  N   LIG    1        0.585  -0.146   1.500  0.00  0.00    -0.610 N 
ATOM      5  C   LIG    1        1.593   0.748   2.091  0.00  0.00    +0.260 C 
ATOM      6  C   LIG    1        0.387  -1.385   1.992  0.00  0.00    +0.590 C 
ATOM      7  O   LIG    1       -0.531  -2.065   1.574  0.00  0.00    -0.510 OA
ATOM      8  C   LIG    1        0.931   2.097   2.393  0.00  0.00    +0.180 C 
ENDROOT
BRANCH   6   9
ATOM      9  C   LIG    1        1.279  -1.914   3.034  0.00  0.00    +0.020 A 
ATOM     10  C   LIG    1        0.966  -2.903   3.911  0.00  0.00    +0.060 A 
ATOM     11  C   LIG    1        2.094  -3.117   4.740  0.00  0.00    -0.120 A 
ATOM     12  C   LIG    1        2.355  -3.993   5.802  0.00  0.00    +0.110 A 
ATOM     13  C   LIG    1        3.569  -3.959   6.427  0.00  0.00    -0.120 A 
ATOM     14  C   LIG    1        4.550  -3.063   6.019  0.00  0.00    +0.080 A 
ATOM     15  C   LIG    1        4.316  -2.193   4.979  0.00  0.00    +0.010 A 
ATOM     16 BR   LIG    1        3.917  -5.143   7.860  0.00  0.00    -0.050 Br
ATOM     17  C   LIG    1        3.087  -2.208   4.326  0.00  0.00    +0.120 A 
ATOM     18  N   LIG    1        2.568  -1.481   3.280  0.00  0.00    -0.580 N 
ATOM     19  H   LIG    1        3.030  -0.780   2.795  0.00  0.00    +0.420 HD
ENDBRANCH   6   9
BRANCH   1  20
ATOM     20  C   LIG    1       -0.212   3.973   1.375  0.00  0.00    +0.230 C 
BRANCH  20  24
ATOM     21  C   LIG    1        2.792   6.316   3.318  0.00  0.00    -0.020 A 
ATOM     22  C   LIG    1        2.745   6.251   1.924  0.00  0.00    +0.070 A 
ATOM     23  C   LIG    1        1.774   5.493   1.304  0.00  0.00    +0.040 A 
ATOM     24  C   LIG    1        0.847   4.798   2.059  0.00  0.00    -0.060 A 
ATOM     25  C   LIG    1        0.883   4.862   3.441  0.00  0.00    +0.010 A 
ATOM     26  C   LIG    1        1.853   5.612   4.075  0.00  0.00    +0.060 A 
BRANCH  21  28
ATOM     27  N   LIG    1        4.596   7.722   4.485  0.00  0.00    -0.410 NA
ATOM     28  C   LIG    1        3.798   7.100   3.969  0.00  0.00    +0.250 C 
ENDBRANCH  21  28
ENDBRANCH  20  24
ENDBRANCH   1  20
TORSDOF 4
