REMARK  Name = ZINCpk00000KfLzD.0
REMARK                            x       y       z     vdW  Elec       q    Type
REMARK                         _______ _______ _______ _____ _____    ______ ____
ROOT
ATOM      1  C   LIG    1        2.969  -0.318   2.770  0.00  0.00    +0.430 A 
ATOM      2  N   LIG    1        2.703  -1.454   3.373  0.00  0.00    -0.540 NA
ATOM      3  C   LIG    1        1.463  -1.799   3.732  0.00  0.00    +0.180 A 
ATOM      4  C   LIG    1        1.207  -3.022   4.377  0.00  0.00    +0.030 A 
ATOM      5  C   LIG    1       -0.067  -3.346   4.730  0.00  0.00    +0.050 A 
ATOM      6  C   LIG    1       -1.128  -2.484   4.464  0.00  0.00    -0.010 A 
ATOM      7  C   LIG    1       -0.917  -1.289   3.841  0.00  0.00    +0.060 A 
ATOM      8  C   LIG    1        0.381  -0.923   3.469  0.00  0.00    -0.110 A 
ATOM      9  C   LIG    1        0.654   0.345   2.792  0.00  0.00    -0.030 A 
ATOM     10  C   LIG    1        1.972   0.617   2.458  0.00  0.00    -0.030 A 
ENDROOT
BRANCH   9  11
ATOM     11  C   LIG    1       -0.431   1.302   2.484  0.00  0.00    +0.590 C 
ATOM     12  N   LIG    1       -0.483   1.894   1.274  0.00  0.00    -0.610 N 
ATOM     13  C   LIG    1        0.528   1.761   0.199  0.00  0.00    +0.280 C 
ATOM     14  C   LIG    1       -0.013   2.548  -0.986  0.00  0.00    +0.170 C 
ATOM     15  O   LIG    1        0.903   3.232  -1.816  0.00  0.00    -0.360 OA
ATOM     16  C   LIG    1        0.209   3.937  -2.862  0.00  0.00    +0.240 C 
ATOM     17  C   LIG    1       -0.846   4.886  -2.302  0.00  0.00    +0.160 C 
ATOM     18  N   LIG    1       -1.722   4.212  -1.319  0.00  0.00    -0.510 NA
ATOM     19  C   LIG    1       -2.690   5.155  -0.744  0.00  0.00    +0.200 C 
ATOM     20  C   LIG    1       -0.876   3.638  -0.284  0.00  0.00    +0.090 C 
ATOM     21  C   LIG    1       -1.566   2.792   0.789  0.00  0.00    +0.300 C 
ATOM     22  O   LIG    1       -1.276   1.554   3.321  0.00  0.00    -0.510 OA
ENDBRANCH   9  11
BRANCH   1  24
ATOM     23  C   LIG    1        4.626   1.270   1.855  0.00  0.00    +0.300 C 
ATOM     24  N   LIG    1        4.284  -0.033   2.429  0.00  0.00    -0.610 N 
ATOM     25  C   LIG    1        5.330  -1.037   2.643  0.00  0.00    +0.290 C 
ENDBRANCH   1  24
TORSDOF 2
