REMARK  Name = ZINCAx0000000afh.0
REMARK                            x       y       z     vdW  Elec       q    Type
REMARK                         _______ _______ _______ _____ _____    ______ ____
ROOT
ATOM      1  N   LIG    1       -0.757   1.498  -0.174  0.00  0.00    -0.630 N 
ATOM      2  H   LIG    1       -1.550   1.806   0.293  0.00  0.00    +0.430 HD
ATOM      3  C   LIG    1       -0.838   0.453  -1.021  0.00  0.00    +0.520 C 
ATOM      4  O   LIG    1        0.129   0.130  -1.681  0.00  0.00    -0.480 OA
ENDROOT
BRANCH   1  11
ATOM      5  C   LIG    1       -0.796   4.206   0.686  0.00  0.00    +0.110 C 
ATOM      6  C   LIG    1        0.495   3.466   0.448  0.00  0.00    -0.090 A 
ATOM      7  C   LIG    1        1.703   4.105   0.653  0.00  0.00    +0.040 A 
ATOM      8  C   LIG    1        2.890   3.436   0.431  0.00  0.00    +0.020 A 
ATOM      9  C   LIG    1        2.872   2.107   0.004  0.00  0.00    -0.020 A 
ATOM     10  C   LIG    1        1.654   1.460  -0.198  0.00  0.00    +0.080 A 
ATOM     11  C   LIG    1        0.467   2.141   0.027  0.00  0.00    +0.140 A 
BRANCH   9  12
ATOM     12  C   LIG    1        4.143   1.388  -0.235  0.00  0.00    +0.330 A 
ATOM     13  N   LIG    1        4.271   0.085  -0.293  0.00  0.00    -0.470 NA
ATOM     14  C   LIG    1        5.567  -0.235  -0.527  0.00  0.00    +0.080 A 
ATOM     15  C   LIG    1        6.244  -1.450  -0.679  0.00  0.00    +0.040 A 
ATOM     16  C   LIG    1        7.603  -1.451  -0.909  0.00  0.00    +0.090 A 
ATOM     17  C   LIG    1        8.305  -0.255  -0.992  0.00  0.00    +0.020 A 
ATOM     18  C   LIG    1        7.652   0.950  -0.844  0.00  0.00    +0.050 A 
ATOM     19  F   LIG    1        8.256  -2.624  -1.056  0.00  0.00    -0.130 F 
ATOM     20  C   LIG    1        6.284   0.972  -0.611  0.00  0.00    +0.040 A 
ATOM     21  N   LIG    1        5.361   1.983  -0.423  0.00  0.00    -0.480 N 
ATOM     22  C   LIG    1        5.634   3.422  -0.424  0.00  0.00    +0.340 C 
ENDBRANCH   9  12
ENDBRANCH   1  11
BRANCH   3  23
ATOM     23  C   LIG    1       -2.116  -0.309  -1.148  0.00  0.00    +0.510 C 
ATOM     24  N   LIG    1       -2.197  -1.354  -1.995  0.00  0.00    -0.480 N 
ATOM     25  H   LIG    1       -1.425  -1.612  -2.522  0.00  0.00    +0.450 HD
ATOM     26  O   LIG    1       -3.083   0.013  -0.488  0.00  0.00    -0.520 OA
BRANCH  24  27
ATOM     27  N   LIG    1       -3.396  -2.069  -2.114  0.00  0.00    -0.500 N 
ATOM     28  H   LIG    1       -4.169  -1.811  -1.586  0.00  0.00    +0.450 HD
BRANCH  27  29
ATOM     29  C   LIG    1       -3.480  -3.148  -2.989  0.00  0.00    +0.330 A 
ATOM     30  C   LIG    1       -4.671  -3.864  -3.104  0.00  0.00    +0.040 A 
ATOM     31  C   LIG    1       -4.706  -4.927  -3.991  0.00  0.00    +0.090 A 
ATOM     32  C   LIG    1       -3.546  -5.221  -4.705  0.00  0.00    +0.250 A 
ATOM     33  N   LIG    1       -2.459  -4.490  -4.527  0.00  0.00    -0.200 NA
ATOM     34  N   LIG    1       -2.427  -3.501  -3.709  0.00  0.00    -0.270 NA
BRANCH  32  35
ATOM     35  N   LIG    1       -3.532  -6.290  -5.611  0.00  0.00    -0.400 N 
ATOM     36  C   LIG    1       -2.447  -6.750  -6.311  0.00  0.00    +0.160 A 
ATOM     37  C   LIG    1       -2.875  -7.787  -7.057  0.00  0.00    +0.160 A 
ATOM     38  N   LIG    1       -4.187  -7.953  -6.829  0.00  0.00    -0.470 NA
ATOM     39  C   LIG    1       -4.592  -7.063  -5.965  0.00  0.00    +0.400 A 
ENDBRANCH  32  35
ENDBRANCH  27  29
ENDBRANCH  24  27
ENDBRANCH   3  23
TORSDOF 6
