REMARK  Name = ZINCqH0000031Iw2.0
REMARK                            x       y       z     vdW  Elec       q    Type
REMARK                         _______ _______ _______ _____ _____    ______ ____
ROOT
ATOM      1  C   LIG    1        2.779  -1.085   7.806  0.00  0.00    +0.060 C 
ENDROOT
BRANCH   1   2
ATOM      2  C   LIG    1        3.974  -2.029   7.652  0.00  0.00    +0.320 C 
ATOM      3  C   LIG    1        4.507  -2.395   9.014  0.00  0.00    -0.100 A 
ATOM      4  C   LIG    1        5.445  -1.603   9.638  0.00  0.00    +0.030 A 
ATOM      5  C   LIG    1        5.913  -1.945  10.896  0.00  0.00    +0.010 A 
ATOM      6  C   LIG    1        5.442  -3.079  11.533  0.00  0.00    +0.020 A 
ATOM      7  C   LIG    1        4.506  -3.885  10.916  0.00  0.00    +0.020 A 
ATOM      8  C   LIG    1        4.037  -3.549   9.646  0.00  0.00    -0.030 A 
ATOM      9  C   LIG    1        3.049  -4.402   8.958  0.00  0.00    -0.030 C 
ATOM     10  C   LIG    1        2.826  -4.218   7.651  0.00  0.00    +0.240 C 
ATOM     11  N   LIG    1        3.547  -3.251   6.961  0.00  0.00    -0.560 N 
ATOM     12  C   LIG    1        3.853  -3.435   5.662  0.00  0.00    +0.520 C 
ATOM     13  O   LIG    1        4.482  -2.589   5.061  0.00  0.00    -0.480 OA
ATOM     14  C   LIG    1        3.414  -4.691   4.954  0.00  0.00    +0.100 C 
ENDBRANCH   1   2
BRANCH   1  17
ATOM     15  N   LIG    1        1.272   0.211   6.334  0.00  0.00    -0.680 N 
ATOM     16  H   LIG    1        0.858   0.578   7.131  0.00  0.00    +0.410 HD
ATOM     17  C   LIG    1        2.318  -0.632   6.445  0.00  0.00    +0.500 C 
ATOM     18  O   LIG    1        2.888  -1.025   5.450  0.00  0.00    -0.480 OA
BRANCH  15  22
ATOM     19  C   LIG    1       -0.182   1.238   2.574  0.00  0.00    -0.190 A 
ATOM     20  C   LIG    1        1.189   1.027   2.763  0.00  0.00    +0.090 A 
ATOM     21  C   LIG    1        1.665   0.694   4.005  0.00  0.00    +0.010 A 
ATOM     22  C   LIG    1        0.785   0.554   5.075  0.00  0.00    +0.180 A 
ATOM     23  C   LIG    1       -0.580   0.757   4.891  0.00  0.00    -0.030 A 
ATOM     24  C   LIG    1       -1.064   1.095   3.653  0.00  0.00    +0.100 A 
BRANCH  19  26
ATOM     25  C   LIG    1        0.255   1.752   0.087  0.00  0.00    +0.070 C 
ATOM     26  C   LIG    1       -0.696   1.600   1.247  0.00  0.00    +0.400 C 
ATOM     27  O   LIG    1       -1.885   1.777   1.084  0.00  0.00    -0.460 OA
ENDBRANCH  19  26
ENDBRANCH  15  22
ENDBRANCH   1  17
TORSDOF 4
