REMARK  Name = ZINCvU0000000Gwb.0
REMARK                            x       y       z     vdW  Elec       q    Type
REMARK                         _______ _______ _______ _____ _____    ______ ____
ROOT
ATOM      1  C   LIG    1        1.153   6.019   0.025  0.00  0.00    +0.030 C 
ENDROOT
BRANCH   1   2
ATOM      2  C   LIG    1        1.457   6.438   1.440  0.00  0.00    -0.090 A 
ATOM      3  C   LIG    1        0.449   6.460   2.386  0.00  0.00    +0.030 A 
ATOM      4  C   LIG    1        0.729   6.840   3.686  0.00  0.00    +0.000 A 
ATOM      5  C   LIG    1        2.014   7.207   4.037  0.00  0.00    +0.010 A 
ATOM      6  C   LIG    1        3.021   7.190   3.090  0.00  0.00    +0.010 A 
ATOM      7  C   LIG    1        2.743   6.806   1.792  0.00  0.00    +0.060 A 
ENDBRANCH   1   2
BRANCH   1   9
ATOM      8  O   LIG    1       -0.571   4.406   0.030  0.00  0.00    -0.450 OA
ATOM      9  C   LIG    1        0.626   4.607   0.021  0.00  0.00    +0.460 C 
BRANCH   9  10
ATOM     10  C   LIG    1        1.529   3.514   0.007  0.00  0.00    -0.270 A 
ATOM     11  C   LIG    1        2.906   3.578  -0.005  0.00  0.00    +0.340 A 
ATOM     12  N   LIG    1        3.416   2.332  -0.017  0.00  0.00    -0.560 N 
ATOM     13  H   LIG    1        4.363   2.123  -0.027  0.00  0.00    +0.420 HD
ATOM     14  C   LIG    1        2.406   1.391  -0.013  0.00  0.00    +0.070 A 
ATOM     15  C   LIG    1        2.404  -0.000  -0.020  0.00  0.00    +0.000 A 
ATOM     16  C   LIG    1        1.209  -0.687  -0.013  0.00  0.00    +0.030 A 
ATOM     17  C   LIG    1        0.002  -0.004   0.002  0.00  0.00    +0.000 A 
ATOM     18  C   LIG    1       -0.017   1.374   0.010  0.00  0.00    +0.060 A 
ATOM     19  C   LIG    1        1.183   2.079   0.002  0.00  0.00    -0.050 A 
ENDBRANCH   9  10
ENDBRANCH   1   9
BRANCH   1  20
ATOM     20  S   LIG    1       -0.091   7.129  -0.679  0.00  0.00    +0.110 S 
BRANCH  20  21
ATOM     21  C   LIG    1        0.818   8.639  -0.693  0.00  0.00    +0.210 A 
ATOM     22  N   LIG    1        2.057   8.809  -0.284  0.00  0.00    -0.320 NA
ATOM     23  N   LIG    1        2.415  10.033  -0.433  0.00  0.00    -0.020 NA
ATOM     24  N   LIG    1        1.453  10.725  -0.939  0.00  0.00    -0.070 NA
ATOM     25  N   LIG    1        0.376   9.843  -1.134  0.00  0.00    -0.320 N 
BRANCH  25  26
ATOM     26  C   LIG    1       -0.886  10.144  -1.667  0.00  0.00    +0.130 A 
ATOM     27  C   LIG    1       -1.550   9.211  -2.451  0.00  0.00    +0.050 A 
ATOM     28  C   LIG    1       -2.795   9.508  -2.971  0.00  0.00    +0.070 A 
ATOM     29  C   LIG    1       -3.376  10.738  -2.719  0.00  0.00    -0.020 A 
ATOM     30  C   LIG    1       -2.714  11.672  -1.941  0.00  0.00    +0.060 A 
ATOM     31 CL   LIG    1       -4.938  11.111  -3.379  0.00  0.00    -0.050 Cl
ATOM     32  C   LIG    1       -1.471  11.378  -1.415  0.00  0.00    +0.070 A 
ENDBRANCH  25  26
ENDBRANCH  20  21
ENDBRANCH   1  20
TORSDOF 6
