REMARK  Name = ZINCrH000004sfDj.0
REMARK                            x       y       z     vdW  Elec       q    Type
REMARK                         _______ _______ _______ _____ _____    ______ ____
ROOT
ATOM      1  C   LIG    1       -0.087   1.063  -2.472  0.00  0.00    +0.070 A 
ATOM      2  N   LIG    1        0.064  -0.200  -2.780  0.00  0.00    -0.270 NA
ATOM      3  N   LIG    1        0.731  -0.278  -4.009  0.00  0.00    -0.470 N 
ATOM      4  H   LIG    1        0.974  -1.093  -4.476  0.00  0.00    +0.450 HD
ATOM      5  C   LIG    1        0.976   0.989  -4.431  0.00  0.00    +0.250 A 
ATOM      6  C   LIG    1        0.474   1.837  -3.498  0.00  0.00    -0.010 A 
ENDROOT
BRANCH   1  11
ATOM      7  N   LIG    1       -2.852   1.610   0.036  0.00  0.00    -0.520 NA
ATOM      8  C   LIG    1       -2.185   1.096   1.239  0.00  0.00    +0.190 C 
ATOM      9  C   LIG    1       -0.732   1.581   1.266  0.00  0.00    +0.030 C 
ATOM     10  C   LIG    1       -0.013   1.086   0.008  0.00  0.00    +0.030 C 
ATOM     11  C   LIG    1       -0.756   1.594  -1.230  0.00  0.00    +0.090 C 
ATOM     12  C   LIG    1       -2.207   1.109  -1.184  0.00  0.00    +0.200 C 
BRANCH   7  13
ATOM     13  C   LIG    1       -4.284   1.280   0.048  0.00  0.00    +0.290 C 
ATOM     14  C   LIG    1       -4.458  -0.228   0.239  0.00  0.00    +0.040 C 
BRANCH  13  19
ATOM     15  C   LIG    1       -7.594   4.007   2.694  0.00  0.00    +0.180 C 
ATOM     16  C   LIG    1       -6.389   3.187   2.314  0.00  0.00    -0.050 A 
ATOM     17  C   LIG    1       -5.376   2.833   3.123  0.00  0.00    +0.140 A 
ATOM     18  N   LIG    1       -4.510   2.104   2.398  0.00  0.00    -0.470 NA
ATOM     19  C   LIG    1       -4.959   2.012   1.179  0.00  0.00    +0.200 A 
ATOM     20  O   LIG    1       -6.123   2.670   1.098  0.00  0.00    -0.200 OA
ENDBRANCH  13  19
ENDBRANCH   7  13
ENDBRANCH   1  11
BRANCH   6  21
ATOM     21  N   LIG    1        0.512   3.243  -3.549  0.00  0.00    -0.640 N 
ATOM     22  H   LIG    1        0.127   3.765  -2.828  0.00  0.00    +0.410 HD
ATOM     23  C   LIG    1        1.085   3.864  -4.599  0.00  0.00    +0.520 C 
ATOM     24  O   LIG    1        1.568   3.211  -5.500  0.00  0.00    -0.530 OA
BRANCH  23  25
ATOM     25  C   LIG    1        1.127   5.369  -4.654  0.00  0.00    -0.010 C 
ATOM     26  C   LIG    1       -0.308   5.936  -4.686  0.00  0.00    +0.030 C 
ATOM     27  C   LIG    1       -0.212   7.156  -5.638  0.00  0.00    +0.020 C 
ATOM     28  C   LIG    1        0.771   6.663  -6.728  0.00  0.00    +0.010 C 
ATOM     29  C   LIG    1        1.812   5.831  -5.951  0.00  0.00    +0.040 C 
ENDBRANCH  23  25
ENDBRANCH   6  21
TORSDOF 5
