REMARK  Name = ZINCpe000000YtnV.0
REMARK                            x       y       z     vdW  Elec       q    Type
REMARK                         _______ _______ _______ _____ _____    ______ ____
ROOT
ATOM      1  C   LIG    1       -1.303   1.933   0.019  0.00  0.00    +0.000 A 
ATOM      2  N   LIG    1       -1.469   3.240   0.026  0.00  0.00    -0.250 NA
ATOM      3  N   LIG    1       -2.721   3.527   0.034  0.00  0.00    -0.230 N 
ATOM      4  C   LIG    1       -3.461   2.388   0.032  0.00  0.00    +0.180 A 
ATOM      5  C   LIG    1       -2.593   1.349   0.016  0.00  0.00    -0.130 A 
ENDROOT
BRANCH   1   9
ATOM      6  C   LIG    1        2.841   2.905   0.689  0.00  0.00    +0.090 C 
ATOM      7  C   LIG    1        2.575   1.566  -0.014  0.00  0.00    +0.330 C 
ATOM      8  N   LIG    1        1.143   1.901   0.001  0.00  0.00    -0.630 N 
ATOM      9  C   LIG    1       -0.014   1.212   0.009  0.00  0.00    +0.640 C 
ATOM     10  O   LIG    1        0.002  -0.004   0.002  0.00  0.00    -0.520 OA
ATOM     11  C   LIG    1        1.531   3.320  -0.001  0.00  0.00    +0.270 C 
BRANCH   6  12
ATOM     12  O   LIG    1        2.763   2.843   2.115  0.00  0.00    -0.520 OA
ATOM     13  H   LIG    1        2.930   3.688   2.554  0.00  0.00    +0.380 HD
ENDBRANCH   6  12
BRANCH   6  14
ATOM     14  C   LIG    1        4.078   3.647   0.179  0.00  0.00    +0.220 C 
BRANCH  14  16
ATOM     15  N   LIG    1        4.353   5.883   1.493  0.00  0.00    -0.410 NA
ATOM     16  C   LIG    1        4.233   4.909   0.921  0.00  0.00    +0.190 C 
ENDBRANCH  14  16
ENDBRANCH   6  14
ENDBRANCH   1   9
BRANCH   3  17
ATOM     17  C   LIG    1       -3.247   4.826   0.043  0.00  0.00    +0.130 A 
ATOM     18  C   LIG    1       -4.622   5.019   0.044  0.00  0.00    +0.000 A 
ATOM     19  C   LIG    1       -5.138   6.301   0.059  0.00  0.00    +0.050 A 
ATOM     20  C   LIG    1       -4.286   7.390   0.059  0.00  0.00    +0.010 A 
ATOM     21  C   LIG    1       -2.917   7.201   0.052  0.00  0.00    +0.040 A 
ATOM     22  C   LIG    1       -2.395   5.922   0.044  0.00  0.00    +0.030 A 
ENDBRANCH   3  17
BRANCH   5  23
ATOM     23  C   LIG    1       -2.929  -0.120   0.002  0.00  0.00    +0.120 C 
BRANCH  23  24
ATOM     24  C   LIG    1       -2.917  -0.659   1.434  0.00  0.00    +0.020 C 
BRANCH  24  25
ATOM     25  C   LIG    1       -3.258  -2.150   1.420  0.00  0.00    +0.170 C 
BRANCH  25  26
ATOM     26  O   LIG    1       -3.247  -2.654   2.757  0.00  0.00    -0.580 OA
ATOM     27  H   LIG    1       -3.455  -3.596   2.825  0.00  0.00    +0.380 HD
ENDBRANCH  25  26
ENDBRANCH  24  25
ENDBRANCH  23  24
ENDBRANCH   5  23
TORSDOF 9
