REMARK  Name = ZINCqH0000004Sgy.0
REMARK                            x       y       z     vdW  Elec       q    Type
REMARK                         _______ _______ _______ _____ _____    ______ ____
ROOT
ATOM      1  N   LIG    1       -0.721   1.571  -1.179  0.00  0.00    -0.530 N 
ATOM      2  C   LIG    1       -1.707   0.822  -1.725  0.00  0.00    +0.560 A 
ATOM      3  C   LIG    1       -2.390   1.357  -2.911  0.00  0.00    -0.200 A 
ATOM      4  C   LIG    1       -3.421   0.662  -3.541  0.00  0.00    +0.100 A 
ATOM      5  C   LIG    1       -4.025   1.205  -4.654  0.00  0.00    +0.000 A 
ATOM      6  C   LIG    1       -3.615   2.436  -5.151  0.00  0.00    +0.070 A 
ATOM      7  C   LIG    1       -2.599   3.139  -4.545  0.00  0.00    +0.030 A 
ATOM      8  C   LIG    1       -1.970   2.610  -3.414  0.00  0.00    +0.160 A 
ATOM      9  N   LIG    1       -0.967   3.269  -2.788  0.00  0.00    -0.530 NA
ATOM     10  O   LIG    1       -2.021  -0.253  -1.248  0.00  0.00    -0.500 OA
ATOM     11  C   LIG    1       -0.377   2.773  -1.729  0.00  0.00    +0.370 A 
ENDROOT
BRANCH   1  13
ATOM     12  C   LIG    1       -0.729   1.579   1.267  0.00  0.00    +0.050 C 
ATOM     13  C   LIG    1       -0.013   1.086   0.008  0.00  0.00    +0.290 C 
ENDBRANCH   1  13
BRANCH  11  14
ATOM     14  S   LIG    1        0.919   3.700  -0.978  0.00  0.00    +0.040 S 
BRANCH  14  15
ATOM     15  C   LIG    1        0.950   5.141  -2.072  0.00  0.00    +0.270 C 
BRANCH  15  16
ATOM     16  C   LIG    1        2.016   6.101  -1.610  0.00  0.00    +0.180 A 
ATOM     17  N   LIG    1        3.271   6.109  -1.985  0.00  0.00    -0.450 NA
ATOM     18  C   LIG    1        3.842   7.138  -1.319  0.00  0.00    +0.220 A 
ATOM     19  N   LIG    1        2.912   7.683  -0.580  0.00  0.00    -0.360 NA
ATOM     20  O   LIG    1        1.860   7.099  -0.736  0.00  0.00    +0.100 OA
BRANCH  18  21
ATOM     21  C   LIG    1        5.261   7.564  -1.407  0.00  0.00    -0.030 A 
ATOM     22  C   LIG    1        6.147   6.881  -2.238  0.00  0.00    +0.070 A 
ATOM     23  C   LIG    1        7.463   7.286  -2.320  0.00  0.00    +0.010 A 
ATOM     24  C   LIG    1        7.907   8.361  -1.570  0.00  0.00    +0.030 A 
ATOM     25  C   LIG    1        7.034   9.038  -0.739  0.00  0.00    +0.010 A 
ATOM     26  C   LIG    1        5.714   8.646  -0.654  0.00  0.00    +0.050 A 
ENDBRANCH  18  21
ENDBRANCH  15  16
ENDBRANCH  14  15
ENDBRANCH  11  14
TORSDOF 5
