REMARK  Name = ZINCkj000005ilxN.1
REMARK                            x       y       z     vdW  Elec       q    Type
REMARK                         _______ _______ _______ _____ _____    ______ ____
ROOT
ATOM      1  N   LIG    1       -3.313   0.444   3.422  0.00  0.00    -0.460 N 
ATOM      2  C   LIG    1       -3.509  -0.793   2.641  0.00  0.00    +0.230 C 
ATOM      3  C   LIG    1       -5.018  -1.056   2.589  0.00  0.00    +0.000 C 
ATOM      4  C   LIG    1       -5.375  -2.458   2.989  0.00  0.00    +0.270 C 
ATOM      5  N   LIG    1       -5.541  -2.616   4.434  0.00  0.00    -0.380 N 
ATOM      6  C   LIG    1       -6.606  -1.706   4.881  0.00  0.00    +0.260 C 
ATOM      7  C   LIG    1       -6.099  -0.275   4.767  0.00  0.00    +0.080 C 
ATOM      8  C   LIG    1       -5.914  -4.004   4.740  0.00  0.00    +0.320 C 
ATOM      9  H   LIG    1       -4.677  -2.385   4.902  0.00  0.00    +0.430 HD
ATOM     10  C   LIG    1       -5.687   0.065   3.362  0.00  0.00    +0.020 C 
ATOM     11  C   LIG    1       -4.601   1.167   3.442  0.00  0.00    +0.230 C 
ENDROOT
BRANCH   1  16
ATOM     12  C   LIG    1       -0.718   1.572   1.248  0.00  0.00    +0.360 A 
ATOM     13  N   LIG    1       -0.362   2.725   1.777  0.00  0.00    -0.510 NA
ATOM     14  C   LIG    1       -0.960   3.191   2.864  0.00  0.00    +0.200 A 
ATOM     15  C   LIG    1       -1.964   2.447   3.453  0.00  0.00    -0.080 A 
ATOM     16  C   LIG    1       -2.313   1.227   2.870  0.00  0.00    +0.340 A 
ATOM     17  C   LIG    1       -0.546   4.515   3.454  0.00  0.00    +0.150 C 
ATOM     18  N   LIG    1       -1.670   0.829   1.776  0.00  0.00    -0.550 NA
BRANCH  12  19
ATOM     19  C   LIG    1       -0.013   1.086   0.008  0.00  0.00    +0.290 C 
BRANCH  19  21
ATOM     20  C   LIG    1       -0.114   1.152  -2.386  0.00  0.00    +0.220 C 
ATOM     21  O   LIG    1       -0.704   1.559  -1.150  0.00  0.00    -0.380 OA
ENDBRANCH  19  21
ENDBRANCH  12  19
ENDBRANCH   1  16
TORSDOF 3
