REMARK  Name = ZINCkj000005ilxN.0
REMARK                            x       y       z     vdW  Elec       q    Type
REMARK                         _______ _______ _______ _____ _____    ______ ____
ROOT
ATOM      1  N   LIG    1        1.312  -2.034  -0.021  0.00  0.00    -0.460 N 
ATOM      2  C   LIG    1        2.713  -2.489  -0.037  0.00  0.00    +0.260 C 
ATOM      3  C   LIG    1        2.925  -3.368   1.218  0.00  0.00    +0.000 C 
ATOM      4  C   LIG    1        3.552  -2.489   2.300  0.00  0.00    +0.260 C 
ATOM      5  N   LIG    1        3.508  -3.185   3.591  0.00  0.00    -0.380 N 
ATOM      6  C   LIG    1        2.113  -3.293   4.023  0.00  0.00    +0.250 C 
ATOM      7  C   LIG    1        1.307  -4.133   3.052  0.00  0.00    +0.080 C 
ATOM      8  C   LIG    1        4.274  -2.424   4.587  0.00  0.00    +0.330 C 
ATOM      9  H   LIG    1        3.904  -4.107   3.491  0.00  0.00    +0.430 HD
ATOM     10  C   LIG    1        1.506  -3.789   1.605  0.00  0.00    +0.000 C 
ATOM     11  C   LIG    1        0.633  -2.605   1.158  0.00  0.00    +0.220 C 
ENDROOT
BRANCH   1  16
ATOM     12  C   LIG    1        2.284   1.400  -0.012  0.00  0.00    +0.350 A 
ATOM     13  N   LIG    1        1.132   2.039   0.002  0.00  0.00    -0.510 NA
ATOM     14  C   LIG    1       -0.017   1.377   0.010  0.00  0.00    +0.200 A 
ATOM     15  C   LIG    1        0.002  -0.004   0.002  0.00  0.00    -0.080 A 
ATOM     16  C   LIG    1        1.240  -0.650  -0.013  0.00  0.00    +0.340 A 
ATOM     17  C   LIG    1       -1.327   2.121   0.020  0.00  0.00    +0.160 C 
ATOM     18  N   LIG    1        2.349   0.084  -0.020  0.00  0.00    -0.550 NA
BRANCH  12  19
ATOM     19  C   LIG    1        3.563   2.197  -0.020  0.00  0.00    +0.280 C 
BRANCH  19  21
ATOM     20  C   LIG    1        5.163   3.209  -1.489  0.00  0.00    +0.220 C 
ATOM     21  O   LIG    1        3.955   2.456  -1.369  0.00  0.00    -0.380 OA
ENDBRANCH  19  21
ENDBRANCH  12  19
ENDBRANCH   1  16
TORSDOF 3
