REMARK  Name = ZINCrD00000F5LBT.0
REMARK                            x       y       z     vdW  Elec       q    Type
REMARK                         _______ _______ _______ _____ _____    ______ ____
ROOT
ATOM      1  C   LIG    1       -0.918  -1.735   1.449  0.00  0.00    +0.550 C 
ATOM      2  N   LIG    1       -1.041  -0.511   0.897  0.00  0.00    -0.720 N 
ATOM      3  H   LIG    1       -1.819   0.033   1.093  0.00  0.00    +0.400 HD
ATOM      4  O   LIG    1        0.058  -2.418   1.204  0.00  0.00    -0.530 OA
ENDROOT
BRANCH   1   6
ATOM      5  C   LIG    1       -1.840  -3.466   2.897  0.00  0.00    +0.120 C 
ATOM      6  C   LIG    1       -1.962  -2.243   2.345  0.00  0.00    -0.080 C 
BRANCH   5  10
ATOM      7  C   LIG    1       -4.862  -4.937   5.492  0.00  0.00    -0.130 A 
ATOM      8  C   LIG    1       -3.742  -5.722   5.210  0.00  0.00    +0.080 A 
ATOM      9  C   LIG    1       -2.761  -5.246   4.369  0.00  0.00    +0.040 A 
ATOM     10  C   LIG    1       -2.888  -3.976   3.796  0.00  0.00    -0.050 A 
ATOM     11  C   LIG    1       -4.008  -3.189   4.083  0.00  0.00    +0.020 A 
ATOM     12  C   LIG    1       -4.990  -3.669   4.920  0.00  0.00    +0.040 A 
BRANCH   7  16
ATOM     13  C   LIG    1       -8.039  -5.199   7.564  0.00  0.00    +0.290 C 
ATOM     14  N   LIG    1       -6.996  -4.692   6.668  0.00  0.00    -0.730 N 
ATOM     15  H   LIG    1       -7.085  -3.812   6.270  0.00  0.00    +0.400 HD
ATOM     16  C   LIG    1       -5.915  -5.449   6.396  0.00  0.00    +0.550 C 
ATOM     17  O   LIG    1       -5.804  -6.552   6.894  0.00  0.00    -0.530 OA
ENDBRANCH   7  16
ENDBRANCH   5  10
ENDBRANCH   1   6
BRANCH   2  18
ATOM     18  C   LIG    1        0.002  -0.004   0.002  0.00  0.00    +0.320 C 
BRANCH  18  19
ATOM     19  C   LIG    1       -0.018   1.503   0.010  0.00  0.00    -0.130 A 
ATOM     20  C   LIG    1       -1.226   2.177   0.020  0.00  0.00    +0.050 A 
ATOM     21  C   LIG    1       -1.247   3.558   0.033  0.00  0.00    -0.080 A 
ATOM     22  C   LIG    1       -0.056   4.269   0.025  0.00  0.00    +0.130 A 
ATOM     23  C   LIG    1        1.154   3.591   0.010  0.00  0.00    -0.020 A 
ATOM     24  C   LIG    1        1.170   2.209   0.003  0.00  0.00    +0.070 A 
BRANCH  22  25
ATOM     25  O   LIG    1       -0.074   5.628   0.032  0.00  0.00    -0.320 OA
ATOM     26  C   LIG    1       -1.356   6.259   0.047  0.00  0.00    +0.250 C 
ENDBRANCH  22  25
ENDBRANCH  18  19
BRANCH  18  27
ATOM     27  C   LIG    1       -0.255  -0.510  -1.419  0.00  0.00    -0.060 C 
ATOM     28  C   LIG    1       -1.579  -1.228  -1.684  0.00  0.00    +0.000 C 
ATOM     29  C   LIG    1       -0.274  -2.024  -1.637  0.00  0.00    +0.030 C 
ENDBRANCH  18  27
ENDBRANCH   2  18
TORSDOF 7
