REMARK  Name = ZINCrD000000fY2y.0
REMARK                            x       y       z     vdW  Elec       q    Type
REMARK                         _______ _______ _______ _____ _____    ______ ____
ROOT
ATOM      1  N   LIG    1        3.053   1.919  -1.561  0.00  0.00    -0.740 N 
ATOM      2  H   LIG    1        2.197   2.207  -1.206  0.00  0.00    +0.420 HD
ENDROOT
BRANCH   1   3
ATOM      3  C   LIG    1        3.861   1.048  -0.819  0.00  0.00    +0.200 A 
ATOM      4  C   LIG    1        5.021   0.532  -1.376  0.00  0.00    +0.000 A 
ATOM      5  C   LIG    1        5.814  -0.332  -0.644  0.00  0.00    -0.160 A 
ATOM      6  C   LIG    1        5.458  -0.679   0.645  0.00  0.00    +0.050 A 
ATOM      7  C   LIG    1        4.305  -0.165   1.211  0.00  0.00    +0.010 A 
ATOM      8  C   LIG    1        3.504   0.702   0.484  0.00  0.00    +0.080 A 
BRANCH   8   9
ATOM      9  N   LIG    1        2.336   1.224   1.054  0.00  0.00    -0.480 N 
ATOM     10  C   LIG    1        2.226   0.842   2.478  0.00  0.00    +0.190 C 
ATOM     11  C   LIG    1        1.530   2.047   3.158  0.00  0.00    +0.030 C 
ATOM     12  C   LIG    1        2.158   3.243   2.394  0.00  0.00    +0.010 C 
ATOM     13  C   LIG    1        2.314   2.695   0.960  0.00  0.00    +0.190 C 
ENDBRANCH   8   9
BRANCH   5  14
ATOM     14  C   LIG    1        7.072  -0.895  -1.253  0.00  0.00    +0.510 C 
ATOM     15  F   LIG    1        7.935   0.152  -1.594  0.00  0.00    -0.180 F 
ATOM     16  F   LIG    1        6.747  -1.625  -2.402  0.00  0.00    -0.180 F 
ATOM     17  F   LIG    1        7.702  -1.736  -0.329  0.00  0.00    -0.180 F 
ENDBRANCH   5  14
ENDBRANCH   1   3
BRANCH   1  18
ATOM     18  C   LIG    1        3.499   2.393  -2.873  0.00  0.00    +0.310 C 
BRANCH  18  24
ATOM     19  N   LIG    1        1.915   5.250  -6.400  0.00  0.00    -0.730 N 
ATOM     20  H   LIG    1        2.728   5.064  -6.895  0.00  0.00    +0.400 HD
ATOM     21  C   LIG    1        1.718   4.690  -5.190  0.00  0.00    +0.700 C 
ATOM     22  N   LIG    1        2.652   3.870  -4.667  0.00  0.00    -0.690 N 
ATOM     23  H   LIG    1        3.465   3.683  -5.162  0.00  0.00    +0.410 HD
ATOM     24  C   LIG    1        2.455   3.310  -3.457  0.00  0.00    +0.520 C 
ATOM     25  O   LIG    1        1.439   3.544  -2.839  0.00  0.00    -0.460 OA
ATOM     26  O   LIG    1        0.700   4.925  -4.570  0.00  0.00    -0.520 OA
BRANCH  19  28
ATOM     27  C   LIG    1        0.693   7.338  -6.036  0.00  0.00    +0.030 C 
ATOM     28  C   LIG    1        0.900   6.142  -6.968  0.00  0.00    +0.180 C 
ATOM     29  C   LIG    1       -0.418   5.381  -7.122  0.00  0.00    +0.030 C 
ATOM     30  C   LIG    1        1.366   6.638  -8.338  0.00  0.00    +0.040 C 
ENDBRANCH  19  28
ENDBRANCH  18  24
ENDBRANCH   1  18
TORSDOF 6
