REMARK  Name = ZINCvU0000000C91.0
REMARK                            x       y       z     vdW  Elec       q    Type
REMARK                         _______ _______ _______ _____ _____    ______ ____
ROOT
ATOM      1  C   LIG    1       -1.780   4.756   0.043  0.00  0.00    +0.150 C 
ATOM      2  C   LIG    1       -0.795   3.616   0.028  0.00  0.00    -0.160 A 
ATOM      3  C   LIG    1       -1.133   2.341   0.020  0.00  0.00    -0.090 A 
ATOM      4  C   LIG    1       -0.017   1.415   0.010  0.00  0.00    -0.150 A 
ATOM      5  C   LIG    1        0.002  -0.004   0.002  0.00  0.00    +0.180 A 
ATOM      6  N   LIG    1        1.171  -0.629  -0.013  0.00  0.00    -0.450 NA
ATOM      7  C   LIG    1        2.306   0.044  -0.020  0.00  0.00    +0.360 A 
ATOM      8  N   LIG    1        2.341   1.357  -0.013  0.00  0.00    -0.470 NA
ATOM      9  C   LIG    1        1.213   2.078   0.002  0.00  0.00    +0.100 A 
ATOM     10  C   LIG    1       -2.569   1.882   0.024  0.00  0.00    +0.140 C 
ATOM     11  S   LIG    1        0.947   3.815   0.013  0.00  0.00    +0.180 S 
ENDROOT
BRANCH   7  12
ATOM     12  C   LIG    1        3.606  -0.719  -0.036  0.00  0.00    +0.300 C 
BRANCH  12  13
ATOM     13  N   LIG    1        4.015  -0.960  -1.426  0.00  0.00    -0.530 NA
ATOM     14  C   LIG    1        3.069  -1.855  -2.105  0.00  0.00    +0.170 C 
ATOM     15  C   LIG    1        3.444  -1.968  -3.585  0.00  0.00    +0.020 C 
ATOM     16  C   LIG    1        4.869  -2.514  -3.705  0.00  0.00    -0.020 C 
ATOM     17  C   LIG    1        5.828  -1.590  -2.949  0.00  0.00    +0.030 C 
ATOM     18  C   LIG    1        5.273  -2.572  -5.180  0.00  0.00    +0.000 C 
ATOM     19  C   LIG    1        5.384  -1.488  -1.488  0.00  0.00    +0.180 C 
ENDBRANCH  12  13
ENDBRANCH   7  12
BRANCH   5  20
ATOM     20  S   LIG    1       -1.503  -0.920   0.011  0.00  0.00    +0.210 S 
BRANCH  20  21
ATOM     21  C   LIG    1       -0.863  -2.561  -0.004  0.00  0.00    +0.110 A 
ATOM     22  N   LIG    1        0.406  -2.902  -0.017  0.00  0.00    -0.200 NA
ATOM     23  N   LIG    1        0.520  -4.182  -0.024  0.00  0.00    -0.260 NA
ATOM     24  C   LIG    1       -0.672  -4.739  -0.017  0.00  0.00    +0.260 A 
ATOM     25  N   LIG    1       -1.594  -3.716   0.002  0.00  0.00    -0.460 N 
ATOM     26  C   LIG    1       -3.053  -3.840   0.022  0.00  0.00    +0.350 C 
BRANCH  24  27
ATOM     27  C   LIG    1       -0.965  -6.181  -0.022  0.00  0.00    +0.040 A 
ATOM     28  C   LIG    1       -0.076  -7.178   0.245  0.00  0.00    +0.030 A 
ATOM     29  C   LIG    1       -0.782  -8.391   0.131  0.00  0.00    -0.050 A 
ATOM     30  C   LIG    1       -2.050  -8.081  -0.205  0.00  0.00    +0.200 A 
ATOM     31  O   LIG    1       -2.157  -6.745  -0.296  0.00  0.00    -0.180 OA
ENDBRANCH  24  27
ENDBRANCH  20  21
ENDBRANCH   5  20
TORSDOF 5
