REMARK  Name = ZINCfA000000bisn.0
REMARK                            x       y       z     vdW  Elec       q    Type
REMARK                         _______ _______ _______ _____ _____    ______ ____
ROOT
ATOM      1  C   LIG    1       -2.023   1.056   2.059  0.00  0.00    +0.320 C 
ATOM      2  N   LIG    1       -1.753   2.345   1.408  0.00  0.00    -0.390 N 
ATOM      3  H   LIG    1       -1.019   2.826   1.906  0.00  0.00    +0.430 HD
ENDROOT
BRANCH   2   4
ATOM      4  C   LIG    1       -1.332   2.114   0.020  0.00  0.00    +0.330 C 
BRANCH   4   5
ATOM      5  C   LIG    1       -0.017   1.378   0.010  0.00  0.00    -0.160 A 
ATOM      6  C   LIG    1        1.171   2.086   0.002  0.00  0.00    +0.060 A 
ATOM      7  C   LIG    1        2.377   1.412  -0.013  0.00  0.00    +0.040 A 
ATOM      8  C   LIG    1        2.397   0.029  -0.021  0.00  0.00    -0.010 A 
ATOM      9  C   LIG    1        1.208  -0.679  -0.014  0.00  0.00    +0.040 A 
ATOM     10 CL   LIG    1        3.912  -0.818  -0.041  0.00  0.00    -0.040 Cl
ATOM     11  C   LIG    1        0.002  -0.004   0.002  0.00  0.00    +0.060 A 
ENDBRANCH   4   5
ENDBRANCH   2   4
BRANCH   2  12
ATOM     12  C   LIG    1       -2.972   3.165   1.420  0.00  0.00    +0.270 C 
BRANCH  12  13
ATOM     13  C   LIG    1       -3.340   3.510   2.864  0.00  0.00    +0.050 C 
BRANCH  13  14
ATOM     14  C   LIG    1       -4.609   4.364   2.877  0.00  0.00    +0.230 C 
BRANCH  14  15
ATOM     15  C   LIG    1       -4.964   4.696   4.266  0.00  0.00    +0.180 C 
ATOM     16  N   LIG    1       -5.237   4.953   5.339  0.00  0.00    -0.400 NA
ENDBRANCH  14  15
ENDBRANCH  13  14
ENDBRANCH  12  13
ENDBRANCH   2  12
TORSDOF 6
