REMARK  Name = ZINCfA000000bisn.1
REMARK                            x       y       z     vdW  Elec       q    Type
REMARK                         _______ _______ _______ _____ _____    ______ ____
ROOT
ATOM      1  C   LIG    1        1.878   5.077  -2.031  0.00  0.00    +0.320 C 
ATOM      2  N   LIG    1        2.860   4.194  -1.388  0.00  0.00    -0.390 N 
ATOM      3  H   LIG    1        2.908   3.321  -1.891  0.00  0.00    +0.430 HD
ENDROOT
BRANCH   2   4
ATOM      4  C   LIG    1        2.451   3.936  -0.000  0.00  0.00    +0.330 C 
BRANCH   4   5
ATOM      5  C   LIG    1        1.156   3.166   0.007  0.00  0.00    -0.160 A 
ATOM      6  C   LIG    1        1.175   1.783   0.000  0.00  0.00    +0.060 A 
ATOM      7  C   LIG    1       -0.013   1.076   0.008  0.00  0.00    +0.040 A 
ATOM      8  C   LIG    1       -1.220   1.751   0.017  0.00  0.00    -0.010 A 
ATOM      9  C   LIG    1       -1.238   3.135   0.029  0.00  0.00    +0.040 A 
ATOM     10 CL   LIG    1       -2.712   0.864   0.020  0.00  0.00    -0.040 Cl
ATOM     11  C   LIG    1       -0.050   3.841   0.022  0.00  0.00    +0.060 A 
ENDBRANCH   4   5
ENDBRANCH   2   4
BRANCH   2  12
ATOM     12  C   LIG    1        4.179   4.839  -1.398  0.00  0.00    +0.270 C 
BRANCH  12  13
ATOM     13  C   LIG    1        4.660   4.994  -2.842  0.00  0.00    +0.050 C 
BRANCH  13  14
ATOM     14  C   LIG    1        6.035   5.665  -2.853  0.00  0.00    +0.230 C 
BRANCH  14  15
ATOM     15  C   LIG    1        6.497   5.815  -4.242  0.00  0.00    +0.180 C 
ATOM     16  N   LIG    1        6.854   5.930  -5.315  0.00  0.00    -0.400 NA
ENDBRANCH  14  15
ENDBRANCH  13  14
ENDBRANCH  12  13
ENDBRANCH   2  12
TORSDOF 6
