REMARK  Name = ZINCpe000000WgoX.0
REMARK                            x       y       z     vdW  Elec       q    Type
REMARK                         _______ _______ _______ _____ _____    ______ ____
ROOT
ATOM      1  C   LIG    1       -1.859  -1.924  -0.312  0.00  0.00    +0.520 C 
ATOM      2  N   LIG    1       -2.474  -3.118  -0.199  0.00  0.00    -0.610 N 
ATOM      3  C   LIG    1       -1.695  -4.361  -0.091  0.00  0.00    +0.290 C 
ATOM      4  C   LIG    1       -2.206  -5.146   1.127  0.00  0.00    +0.170 C 
ATOM      5  N   LIG    1       -3.659  -5.332   1.008  0.00  0.00    -0.530 NA
ATOM      6  C   LIG    1       -4.365  -4.044   1.030  0.00  0.00    +0.180 C 
ATOM      7  C   LIG    1       -3.941  -3.213  -0.186  0.00  0.00    +0.300 C 
ATOM      8  O   LIG    1       -2.517  -0.909  -0.405  0.00  0.00    -0.510 OA
ENDROOT
BRANCH   1   9
ATOM      9  C   LIG    1       -0.354  -1.849  -0.323  0.00  0.00    +0.240 C 
BRANCH   9  10
ATOM     10  O   LIG    1        0.054  -0.486  -0.452  0.00  0.00    -0.270 OA
BRANCH  10  16
ATOM     11  C   LIG    1        1.857   1.067  -0.597  0.00  0.00    +0.110 A 
ATOM     12  C   LIG    1        3.215   1.316  -0.629  0.00  0.00    +0.020 A 
ATOM     13  C   LIG    1        4.119   0.254  -0.538  0.00  0.00    -0.030 A 
ATOM     14  C   LIG    1        3.645  -1.054  -0.414  0.00  0.00    +0.080 A 
ATOM     15  C   LIG    1        2.288  -1.296  -0.382  0.00  0.00    -0.030 A 
ATOM     16  C   LIG    1        1.391  -0.242  -0.478  0.00  0.00    +0.130 A 
BRANCH  11  18
ATOM     17  C   LIG    1        1.521   3.411  -0.810  0.00  0.00    +0.250 C 
ATOM     18  O   LIG    1        0.974   2.097  -0.685  0.00  0.00    -0.300 OA
ENDBRANCH  11  18
BRANCH  13  19
ATOM     19  C   LIG    1        5.528   0.506  -0.572  0.00  0.00    +0.250 C 
ATOM     20  N   LIG    1        6.646   0.707  -0.599  0.00  0.00    -0.410 NA
ENDBRANCH  13  19
ENDBRANCH  10  16
ENDBRANCH   9  10
ENDBRANCH   1   9
BRANCH   5  21
ATOM     21  C   LIG    1       -4.162  -6.227   2.059  0.00  0.00    +0.150 C 
BRANCH  21  22
ATOM     22  C   LIG    1       -5.500  -6.825   1.621  0.00  0.00    +0.130 C 
ATOM     23  C   LIG    1       -5.951  -7.870   2.644  0.00  0.00    +0.020 C 
ATOM     24  C   LIG    1       -5.338  -7.489   0.252  0.00  0.00    +0.050 C 
BRANCH  22  25
ATOM     25  O   LIG    1       -6.481  -5.789   1.536  0.00  0.00    -0.550 OA
ATOM     26  H   LIG    1       -6.636  -5.324   2.369  0.00  0.00    +0.370 HD
ENDBRANCH  22  25
ENDBRANCH  21  22
ENDBRANCH   5  21
TORSDOF 8
