REMARK  Name = ZINCrH000004mSPH.0
REMARK                            x       y       z     vdW  Elec       q    Type
REMARK                         _______ _______ _______ _____ _____    ______ ____
ROOT
ATOM      1  C   LIG    1       -2.492  -0.006   0.025  0.00  0.00    +0.030 A 
ATOM      2  C   LIG    1       -3.556  -0.217  -0.808  0.00  0.00    +0.020 A 
ATOM      3  C   LIG    1       -4.523   0.722  -0.366  0.00  0.00    -0.030 A 
ATOM      4  N   LIG    1       -3.975   1.376   0.629  0.00  0.00    -0.330 NA
ATOM      5  O   LIG    1       -2.854   0.986   0.858  0.00  0.00    +0.140 OA
ENDROOT
BRANCH   1  10
ATOM      6  C   LIG    1        0.042  -2.782  -0.013  0.00  0.00    +0.090 A 
ATOM      7  C   LIG    1        1.230  -2.064  -0.021  0.00  0.00    -0.010 A 
ATOM      8  C   LIG    1        1.210  -0.682  -0.019  0.00  0.00    -0.030 A 
ATOM      9  C   LIG    1        0.002  -0.004   0.002  0.00  0.00    +0.130 A 
ATOM     10  C   LIG    1       -1.200  -0.722   0.010  0.00  0.00    -0.030 A 
ATOM     11  C   LIG    1       -1.172  -2.117   0.002  0.00  0.00    +0.070 A 
BRANCH   6  13
ATOM     12  C   LIG    1        1.358  -4.763  -0.036  0.00  0.00    +0.250 C 
ATOM     13  O   LIG    1        0.071  -4.141  -0.020  0.00  0.00    -0.310 OA
ENDBRANCH   6  13
BRANCH   9  14
ATOM     14  O   LIG    1       -0.016   1.355   0.009  0.00  0.00    -0.310 OA
ATOM     15  C   LIG    1        1.248   2.021   0.001  0.00  0.00    +0.250 C 
ENDBRANCH   9  14
ENDBRANCH   1  10
BRANCH   3  16
ATOM     16  C   LIG    1       -5.883   0.928  -0.924  0.00  0.00    +0.600 C 
ATOM     17  N   LIG    1       -6.691   1.869  -0.398  0.00  0.00    -0.710 N 
ATOM     18  H   LIG    1       -6.385   2.412   0.345  0.00  0.00    +0.410 HD
ATOM     19  O   LIG    1       -6.267   0.248  -1.855  0.00  0.00    -0.510 OA
BRANCH  17  20
ATOM     20  C   LIG    1       -8.034   2.072  -0.948  0.00  0.00    +0.320 C 
ATOM     21  C   LIG    1       -8.941   2.696   0.120  0.00  0.00    +0.030 C 
ATOM     22  C   LIG    1      -10.252   3.150  -0.528  0.00  0.00    +0.060 C 
ATOM     23  C   LIG    1       -9.986   4.359  -1.432  0.00  0.00    +0.140 C 
ATOM     24  C   LIG    1       -8.825   4.030  -2.339  0.00  0.00    -0.000 A 
ATOM     25  O   LIG    1       -8.462   4.655  -3.465  0.00  0.00    -0.170 OA
ATOM     26  C   LIG    1       -7.374   4.053  -3.980  0.00  0.00    +0.150 A 
ATOM     27  C   LIG    1       -7.032   3.028  -3.174  0.00  0.00    -0.030 A 
ATOM     28  C   LIG    1       -7.964   3.014  -2.121  0.00  0.00    -0.200 A 
ENDBRANCH  17  20
ENDBRANCH   3  16
TORSDOF 5
