REMARK  Name = ZINCnE00000rhnI7.0
REMARK                            x       y       z     vdW  Elec       q    Type
REMARK                         _______ _______ _______ _____ _____    ______ ____
ROOT
ATOM      1  C   LIG    1        0.002  -0.004   0.002  0.00  0.00    +0.030 C 
ATOM      2  C   LIG    1        1.176  -0.661  -0.013  0.00  0.00    +0.090 C 
ENDROOT
BRANCH   2   3
ATOM      3  C   LIG    1        1.196  -2.133  -0.021  0.00  0.00    -0.050 A 
ATOM      4  C   LIG    1       -0.005  -2.850  -0.007  0.00  0.00    +0.100 A 
ATOM      5  C   LIG    1        0.010  -4.230  -0.019  0.00  0.00    +0.020 A 
ATOM      6  C   LIG    1        1.213  -4.915  -0.035  0.00  0.00    +0.160 A 
ATOM      7  C   LIG    1        2.423  -4.211  -0.043  0.00  0.00    -0.050 A 
ATOM      8  F   LIG    1        1.218  -6.266  -0.042  0.00  0.00    -0.120 F 
ATOM      9  C   LIG    1        2.414  -2.816  -0.036  0.00  0.00    +0.040 A 
ATOM     10 CL   LIG    1        3.909  -1.934  -0.046  0.00  0.00    -0.010 Cl
BRANCH   7  11
ATOM     11  C   LIG    1        3.667  -4.921  -0.058  0.00  0.00    +0.250 C 
ATOM     12  N   LIG    1        4.653  -5.484  -0.070  0.00  0.00    -0.380 NA
ENDBRANCH   7  11
ENDBRANCH   2   3
BRANCH   1  18
ATOM     13  C   LIG    1       -1.254   2.152   0.020  0.00  0.00    -0.090 A 
ATOM     14  C   LIG    1       -1.252   3.549   0.033  0.00  0.00    +0.100 A 
ATOM     15  C   LIG    1       -0.034   4.207   0.025  0.00  0.00    +0.010 A 
ATOM     16  CA  LIG    1        1.148   3.466   0.010  0.00  0.00    +0.120 A 
ATOM     17  N   LIG    1        1.123   2.140   0.003  0.00  0.00    -0.430 NA
ATOM     18  C   LIG    1       -0.018   1.466   0.010  0.00  0.00    +0.180 A 
BRANCH  16  19
ATOM     19  C   LIG    1        2.450   4.170   0.001  0.00  0.00    +0.530 C 
ATOM     20  OXT LIG    1        2.484   5.392   0.007  0.00  0.00    -0.670 OA
ATOM     21  O   LIG    1        3.491   3.530  -0.013  0.00  0.00    -0.650 OA
ENDBRANCH  16  19
BRANCH  13  23
ATOM     22  N   LIG    1       -3.468   0.851   0.023  0.00  0.00    -0.430 NA
ATOM     23  C   LIG    1       -2.489   1.426   0.022  0.00  0.00    +0.270 C 
ENDBRANCH  13  23
ENDBRANCH   1  18
TORSDOF 5
