REMARK  Name = ZINCqH00000363pW.0
REMARK                            x       y       z     vdW  Elec       q    Type
REMARK                         _______ _______ _______ _____ _____    ______ ____
ROOT
ATOM      1  C   LIG    1        0.043  -6.771  -5.192  0.00  0.00    +0.280 C 
ATOM      2  C   LIG    1        0.040  -8.287  -4.907  0.00  0.00    +0.050 C 
ATOM      3  C   LIG    1       -0.529  -8.370  -3.466  0.00  0.00    +0.040 C 
ATOM      4  C   LIG    1        0.077  -7.096  -2.822  0.00  0.00    +0.250 C 
ATOM      5  N   LIG    1        0.046  -6.083  -3.893  0.00  0.00    -0.620 N 
ATOM      6  C   LIG    1        0.030  -4.747  -3.711  0.00  0.00    +0.530 C 
ATOM      7  O   LIG    1        0.010  -4.005  -4.669  0.00  0.00    -0.500 OA
ENDROOT
BRANCH   1  12
ATOM      8  C   LIG    1        3.540  -5.608  -6.029  0.00  0.00    +0.100 A 
ATOM      9  C   LIG    1        3.543  -5.713  -7.412  0.00  0.00    -0.040 A 
ATOM     10  C   LIG    1        2.416  -6.159  -8.074  0.00  0.00    -0.040 A 
ATOM     11  C   LIG    1        1.281  -6.503  -7.356  0.00  0.00    +0.100 A 
ATOM     12  C   LIG    1        1.277  -6.398  -5.973  0.00  0.00    -0.080 A 
ATOM     13  C   LIG    1        2.402  -5.947  -5.311  0.00  0.00    +0.030 A 
BRANCH   8  15
ATOM     14  C   LIG    1        5.783  -4.832  -6.180  0.00  0.00    +0.230 C 
ATOM     15  O   LIG    1        4.649  -5.168  -5.378  0.00  0.00    -0.320 OA
ENDBRANCH   8  15
BRANCH  11  16
ATOM     16  O   LIG    1        0.171  -6.942  -8.007  0.00  0.00    -0.310 OA
ATOM     17  C   LIG    1        0.245  -7.025  -9.432  0.00  0.00    +0.230 C 
ENDBRANCH  11  16
ENDBRANCH   1  12
BRANCH   6  18
ATOM     18  C   LIG    1        0.036  -4.177  -2.316  0.00  0.00    +0.230 C 
BRANCH  18  19
ATOM     19  O   LIG    1        0.016  -2.750  -2.385  0.00  0.00    -0.290 OA
BRANCH  19  20
ATOM     20  C   LIG    1        0.018  -2.075  -1.205  0.00  0.00    +0.130 A 
ATOM     21  C   LIG    1        0.040  -2.772  -0.006  0.00  0.00    -0.090 A 
ATOM     22  C   LIG    1        0.042  -2.084   1.192  0.00  0.00    +0.050 A 
ATOM     23  C   LIG    1        0.023  -0.701   1.196  0.00  0.00    -0.040 A 
ATOM     24  C   LIG    1        0.002  -0.004   0.002  0.00  0.00    -0.050 A 
ATOM     25  C   LIG    1       -0.018   1.503   0.010  0.00  0.00    +0.090 C 
ATOM     26  C   LIG    1       -0.006  -0.688  -1.198  0.00  0.00    -0.020 A 
ENDBRANCH  19  20
ENDBRANCH  18  19
ENDBRANCH   6  18
TORSDOF 6
