REMARK  Name = ZINCrD000000fJW6.0
REMARK                            x       y       z     vdW  Elec       q    Type
REMARK                         _______ _______ _______ _____ _____    ______ ____
ROOT
ATOM      1  N   LIG    1       -2.691   6.487   4.445  0.00  0.00    -0.670 N 
ATOM      2  H   LIG    1       -3.397   6.720   5.068  0.00  0.00    +0.420 HD
ATOM      3  C   LIG    1       -2.030   7.455   3.781  0.00  0.00    +0.530 C 
ATOM      4  O   LIG    1       -1.086   7.171   3.075  0.00  0.00    -0.510 OA
ENDROOT
BRANCH   3   5
ATOM      5  C   LIG    1       -2.465   8.892   3.915  0.00  0.00    -0.010 C 
ATOM      6  C   LIG    1       -1.555   9.783   3.066  0.00  0.00    +0.060 C 
ATOM      7  C   LIG    1       -1.975  11.245   3.227  0.00  0.00    +0.030 C 
ATOM      8  C   LIG    1       -3.416  11.416   2.735  0.00  0.00    +0.260 C 
ATOM      9  N   LIG    1       -4.275  10.460   3.446  0.00  0.00    -0.610 N 
ATOM     10  C   LIG    1       -5.376  10.880   4.100  0.00  0.00    +0.600 C 
ATOM     11  O   LIG    1       -6.031  10.093   4.758  0.00  0.00    -0.520 OA
ATOM     12  C   LIG    1       -3.911   9.037   3.431  0.00  0.00    +0.300 C 
BRANCH  10  13
ATOM     13  C   LIG    1       -5.784  12.286   4.020  0.00  0.00    -0.280 A 
ATOM     14  C   LIG    1       -6.519  12.953   4.959  0.00  0.00    +0.100 A 
ATOM     15  C   LIG    1       -6.757  14.267   4.631  0.00  0.00    +0.000 A 
ATOM     16  C   LIG    1       -6.244  14.661   3.460  0.00  0.00    -0.070 A 
ATOM     17  S   LIG    1       -5.414  13.382   2.696  0.00  0.00    +0.220 S 
ENDBRANCH  10  13
ENDBRANCH   3   5
BRANCH   1  22
ATOM     18  C   LIG    1       -0.719   3.453   3.760  0.00  0.00    +0.160 A 
ATOM     19  C   LIG    1       -1.708   2.480   3.819  0.00  0.00    +0.040 A 
ATOM     20  C   LIG    1       -3.014   2.836   4.094  0.00  0.00    +0.040 A 
ATOM     21  C   LIG    1       -3.344   4.163   4.301  0.00  0.00    +0.060 A 
ATOM     22  C   LIG    1       -2.358   5.143   4.237  0.00  0.00    +0.130 A 
ATOM     23  F   LIG    1       -4.623   4.508   4.564  0.00  0.00    -0.140 F 
ATOM     24  C   LIG    1       -1.046   4.786   3.966  0.00  0.00    +0.030 A 
BRANCH  18  27
ATOM     25  C   LIG    1        2.453   1.446   3.474  0.00  0.00    +0.110 C 
ATOM     26  C   LIG    1        1.067   1.884   3.870  0.00  0.00    +0.510 C 
ATOM     27  N   LIG    1        0.606   3.091   3.486  0.00  0.00    -0.670 N 
ATOM     28  H   LIG    1        1.191   3.708   3.020  0.00  0.00    +0.420 HD
ATOM     29  O   LIG    1        0.366   1.150   4.535  0.00  0.00    -0.520 OA
ENDBRANCH  18  27
ENDBRANCH   1  22
TORSDOF 4
