REMARK  Name = ZINCrH000004t1lY.0
REMARK                            x       y       z     vdW  Elec       q    Type
REMARK                         _______ _______ _______ _____ _____    ______ ____
ROOT
ATOM      1  C   LIG    1        1.231  -4.231  -1.839  0.00  0.00    -0.030 C 
ATOM      2  C   LIG    1        1.965  -4.525  -0.519  0.00  0.00    +0.030 C 
ATOM      3  C   LIG    1        3.156  -5.440  -0.872  0.00  0.00    +0.020 C 
ATOM      4  C   LIG    1        3.427  -5.151  -2.369  0.00  0.00    +0.010 C 
ATOM      5  C   LIG    1        2.001  -4.978  -2.948  0.00  0.00    +0.050 C 
ENDROOT
BRANCH   1   6
ATOM      6  C   LIG    1       -0.187  -4.737  -1.766  0.00  0.00    -0.070 A 
ATOM      7  C   LIG    1       -1.239  -3.887  -2.052  0.00  0.00    +0.050 A 
ATOM      8  C   LIG    1       -2.540  -4.352  -1.989  0.00  0.00    +0.010 A 
ATOM      9  C   LIG    1       -2.788  -5.663  -1.630  0.00  0.00    +0.070 A 
ATOM     10  C   LIG    1       -1.736  -6.512  -1.339  0.00  0.00    -0.180 A 
ATOM     11  C   LIG    1       -0.436  -6.048  -1.407  0.00  0.00    +0.080 A 
BRANCH  10  12
ATOM     12  C   LIG    1       -2.007  -7.942  -0.948  0.00  0.00    +0.510 C 
ATOM     13  F   LIG    1       -0.938  -8.747  -1.354  0.00  0.00    -0.180 F 
ATOM     14  F   LIG    1       -3.182  -8.380  -1.567  0.00  0.00    -0.180 F 
ATOM     15  F   LIG    1       -2.153  -8.025   0.441  0.00  0.00    -0.180 F 
ENDBRANCH  10  12
ENDBRANCH   1   6
BRANCH   1  16
ATOM     16  C   LIG    1        1.237  -2.727  -2.120  0.00  0.00    +0.300 C 
BRANCH  16  20
ATOM     17  N   LIG    1        0.038  -0.019   0.060  0.00  0.00    -0.740 N 
ATOM     18  H   LIG    1       -0.358  -0.520   0.790  0.00  0.00    +0.400 HD
ATOM     19  C   LIG    1        0.605  -0.671  -0.975  0.00  0.00    +0.700 C 
ATOM     20  N   LIG    1        0.621  -2.019  -0.995  0.00  0.00    -0.750 N 
ATOM     21  H   LIG    1        0.224  -2.519  -0.265  0.00  0.00    +0.400 HD
ATOM     22  O   LIG    1        1.103  -0.044  -1.890  0.00  0.00    -0.590 OA
BRANCH  17  23
ATOM     23  C   LIG    1        0.022   1.446   0.082  0.00  0.00    +0.360 C 
BRANCH  23  27
ATOM     24  C   LIG    1       -3.491   2.949   3.325  0.00  0.00    +0.360 C 
ATOM     25  N   LIG    1       -2.199   2.575   2.744  0.00  0.00    -0.370 N 
ATOM     26  C   LIG    1       -1.987   2.175   1.473  0.00  0.00    +0.260 A 
ATOM     27  C   LIG    1       -0.665   1.921   1.336  0.00  0.00    -0.260 A 
ATOM     28  C   LIG    1       -0.047   2.184   2.563  0.00  0.00    +0.250 A 
ATOM     29  N   LIG    1       -0.966   2.577   3.408  0.00  0.00    -0.290 NA
ENDBRANCH  23  27
ENDBRANCH  17  23
ENDBRANCH  16  20
ENDBRANCH   1  16
TORSDOF 6
