REMARK  Name = ZINCrg00000fSupI.0
REMARK                            x       y       z     vdW  Elec       q    Type
REMARK                         _______ _______ _______ _____ _____    ______ ____
ROOT
ATOM      1  C   LIG    1        0.848   2.216  -4.679  0.00  0.00    +0.190 C 
ENDROOT
BRANCH   1   2
ATOM      2  C   LIG    1        0.984   3.550  -5.366  0.00  0.00    +0.430 A 
ATOM      3  N   LIG    1        0.124   4.489  -5.085  0.00  0.00    -0.530 NA
ATOM      4  C   LIG    1        0.194   5.698  -5.665  0.00  0.00    +0.540 A 
ATOM      5  C   LIG    1        1.274   5.957  -6.641  0.00  0.00    -0.210 A 
ATOM      6  C   LIG    1        2.155   4.925  -6.898  0.00  0.00    +0.050 A 
ATOM      7  S   LIG    1        3.348   5.445  -8.076  0.00  0.00    +0.180 S 
ATOM      8  C   LIG    1        2.635   7.045  -8.200  0.00  0.00    -0.190 A 
ATOM      9  C   LIG    1        3.160   8.151  -9.097  0.00  0.00    +0.120 C 
ATOM     10  C   LIG    1        2.073   9.217  -9.253  0.00  0.00    +0.030 C 
ATOM     11  C   LIG    1        1.551   9.601  -7.865  0.00  0.00    +0.020 C 
ATOM     12  C   LIG    1        0.742   8.434  -7.294  0.00  0.00    +0.110 C 
ATOM     13  C   LIG    1        1.572   7.162  -7.402  0.00  0.00    -0.030 A 
ATOM     14  O   LIG    1       -0.619   6.567  -5.393  0.00  0.00    -0.460 OA
ATOM     15  N   LIG    1        1.989   3.725  -6.238  0.00  0.00    -0.580 N 
ATOM     16  H   LIG    1        2.606   2.997  -6.410  0.00  0.00    +0.420 HD
ENDBRANCH   1   2
BRANCH   1  18
ATOM     17  N   LIG    1       -0.508   0.589  -6.201  0.00  0.00    -0.360 NA
ATOM     18  C   LIG    1        0.083   1.297  -5.538  0.00  0.00    +0.200 C 
ENDBRANCH   1  18
BRANCH   1  19
ATOM     19  C   LIG    1        0.126   2.397  -3.369  0.00  0.00    +0.350 C 
ATOM     20  O   LIG    1       -0.687   3.281  -3.245  0.00  0.00    -0.320 OA
BRANCH  19  21
ATOM     21  C   LIG    1        0.418   1.475  -2.213  0.00  0.00    +0.140 C 
ATOM     22  C   LIG    1        1.718   1.905  -1.498  0.00  0.00    +0.050 C 
ATOM     23  C   LIG    1        1.428   1.643  -0.003  0.00  0.00    +0.050 C 
ATOM     24  C   LIG    1       -0.013   1.086   0.008  0.00  0.00    +0.150 C 
ATOM     25  O   LIG    1       -0.612   1.587  -1.207  0.00  0.00    -0.320 OA
BRANCH  24  26
ATOM     26  C   LIG    1       -0.762   1.593   1.213  0.00  0.00    +0.520 C 
ATOM     27  O   LIG    1       -1.702   2.346   1.070  0.00  0.00    -0.510 OA
ATOM     28  N   LIG    1       -0.389   1.208   2.450  0.00  0.00    -0.850 N 
ATOM     29  H   LIG    1       -0.872   1.535   3.225  0.00  0.00    +0.410 HD
ATOM     30  H   LIG    1        0.362   0.605   2.564  0.00  0.00    +0.400 HD
ENDBRANCH  24  26
ENDBRANCH  19  21
ENDBRANCH   1  19
TORSDOF 5
