REMARK  Name = ZINCrD000000C4jH.0
REMARK                            x       y       z     vdW  Elec       q    Type
REMARK                         _______ _______ _______ _____ _____    ______ ____
ROOT
ATOM      1  N   LIG    1        2.478   3.381  -0.888  0.00  0.00    -0.680 N 
ATOM      2  H   LIG    1        1.627   3.831  -0.767  0.00  0.00    +0.410 HD
ATOM      3  C   LIG    1        2.599   2.075  -0.580  0.00  0.00    +0.730 C 
ATOM      4  N   LIG    1        1.517   1.370  -0.193  0.00  0.00    -0.650 N 
ATOM      5  C   LIG    1        0.088   1.693  -0.000  0.00  0.00    +0.280 C 
ATOM      6  C   LIG    1       -0.162   0.201  -0.222  0.00  0.00    -0.110 C 
ATOM      7  C   LIG    1       -0.691  -0.326  -1.556  0.00  0.00    +0.050 C 
ATOM      8  C   LIG    1       -1.337  -1.467  -0.749  0.00  0.00    +0.010 C 
ATOM      9  C   LIG    1       -1.320  -0.521   0.466  0.00  0.00    +0.040 C 
ATOM     10  C   LIG    1        1.287  -0.034   0.206  0.00  0.00    +0.280 C 
ATOM     11  O   LIG    1        3.685   1.532  -0.652  0.00  0.00    -0.570 OA
ENDROOT
BRANCH   1  21
ATOM     12  O   LIG    1        3.266   7.100  -4.299  0.00  0.00    -0.530 OA
ATOM     13  C   LIG    1        4.361   6.815  -3.848  0.00  0.00    +0.550 A 
ATOM     14  N   LIG    1        5.464   7.459  -4.279  0.00  0.00    -0.630 N 
ATOM     15  H   LIG    1        5.370   8.150  -4.953  0.00  0.00    +0.420 HD
ATOM     16  C   LIG    1        6.710   7.171  -3.799  0.00  0.00    +0.260 A 
ATOM     17  C   LIG    1        6.922   6.228  -2.866  0.00  0.00    -0.050 A 
ATOM     18  C   LIG    1        5.786   5.473  -2.335  0.00  0.00    -0.010 A 
ATOM     19  C   LIG    1        5.948   4.482  -1.366  0.00  0.00    +0.030 A 
ATOM     20  C   LIG    1        4.856   3.809  -0.896  0.00  0.00    +0.070 A 
ATOM     21  C   LIG    1        3.580   4.090  -1.381  0.00  0.00    +0.150 A 
ATOM     22  C   LIG    1        3.392   5.067  -2.343  0.00  0.00    +0.060 A 
ATOM     23  C   LIG    1        4.494   5.768  -2.829  0.00  0.00    -0.140 A 
ENDBRANCH   1  21
BRANCH  10  24
ATOM     24  C   LIG    1        1.455  -0.288   1.705  0.00  0.00    +0.000 C 
ATOM     25  C   LIG    1        0.944   0.923   2.491  0.00  0.00    +0.000 C 
ATOM     26  C   LIG    1        1.190   0.693   3.985  0.00  0.00    +0.200 C 
ATOM     27  O   LIG    1        2.583   0.469   4.209  0.00  0.00    -0.380 OA
ATOM     28  C   LIG    1        3.105  -0.679   3.537  0.00  0.00    +0.200 C 
ATOM     29  C   LIG    1        2.938  -0.504   2.026  0.00  0.00    +0.000 C 
ENDBRANCH  10  24
TORSDOF 2
