REMARK  Name = ZINCvU0000000HE4.0
REMARK                            x       y       z     vdW  Elec       q    Type
REMARK                         _______ _______ _______ _____ _____    ______ ____
ROOT
ATOM      1  C   LIG    1       -1.290   1.681   0.017  0.00  0.00    +0.260 C 
ATOM      2  C   LIG    1       -2.025   1.651  -1.335  0.00  0.00    +0.010 C 
ATOM      3  C   LIG    1       -3.326   1.438  -0.539  0.00  0.00    +0.270 C 
ATOM      4  C   LIG    1       -2.450   0.855   0.573  0.00  0.00    -0.120 C 
ATOM      5  C   LIG    1       -2.862   0.958   2.042  0.00  0.00    +0.040 C 
ATOM      6  C   LIG    1       -3.330  -0.504   1.923  0.00  0.00    +0.010 C 
ATOM      7  C   LIG    1       -2.323  -0.656   0.769  0.00  0.00    +0.040 C 
ENDROOT
BRANCH   3   8
ATOM      8  N   LIG    1       -4.234   0.463  -1.147  0.00  0.00    -0.720 N 
ATOM      9  H   LIG    1       -4.042  -0.486  -1.081  0.00  0.00    +0.400 HD
ATOM     10  C   LIG    1       -5.337   0.883  -1.798  0.00  0.00    +0.520 C 
ATOM     11  O   LIG    1       -5.578   2.068  -1.880  0.00  0.00    -0.530 OA
BRANCH  10  12
ATOM     12  C   LIG    1       -6.274  -0.124  -2.425  0.00  0.00    +0.000 C 
ATOM     13  C   LIG    1       -5.513  -0.925  -3.479  0.00  0.00    +0.030 C 
ATOM     14  C   LIG    1       -6.421  -1.964  -4.128  0.00  0.00    -0.050 C 
ATOM     15  C   LIG    1       -7.713  -1.363  -4.652  0.00  0.00    +0.020 C 
ATOM     16  C   LIG    1       -8.400  -0.363  -3.741  0.00  0.00    -0.060 C 
ATOM     17  C   LIG    1       -9.394   0.454  -4.595  0.00  0.00    +0.010 C 
ATOM     18  C   LIG    1       -9.211  -1.075  -2.654  0.00  0.00    +0.020 C 
ATOM     19  C   LIG    1       -5.657  -2.569  -5.327  0.00  0.00    +0.010 C 
ATOM     20  C   LIG    1       -6.702  -3.103  -3.144  0.00  0.00    +0.020 C 
ATOM     21  C   LIG    1       -7.423   0.618  -3.104  0.00  0.00    +0.050 C 
ENDBRANCH  10  12
ENDBRANCH   3   8
BRANCH   1  22
ATOM     22  N   LIG    1       -0.011   0.966   0.007  0.00  0.00    -0.700 N 
ATOM     23  H   LIG    1        0.002  -0.004   0.002  0.00  0.00    +0.410 HD
BRANCH  22  27
ATOM     24  C   LIG    1        2.433   5.238   0.006  0.00  0.00    +0.130 C 
ATOM     25  C   LIG    1        2.386   3.732  -0.001  0.00  0.00    +0.210 A 
ATOM     26  C   LIG    1        1.173   3.071   0.007  0.00  0.00    -0.160 A 
ATOM     27  C   LIG    1        1.179   1.675  -0.000  0.00  0.00    +0.450 A 
ATOM     28  N   LIG    1        2.345   1.036  -0.009  0.00  0.00    -0.580 NA
ATOM     29  C   LIG    1        3.479   1.708  -0.022  0.00  0.00    +0.400 A 
ATOM     30  N   LIG    1        3.507   3.025  -0.015  0.00  0.00    -0.560 NA
BRANCH  29  31
ATOM     31  C   LIG    1        4.781   0.948  -0.038  0.00  0.00    +0.030 C 
ATOM     32  C   LIG    1        6.069   1.749   0.161  0.00  0.00    +0.060 C 
ATOM     33  C   LIG    1        5.723   1.185  -1.220  0.00  0.00    +0.050 C 
ENDBRANCH  29  31
ENDBRANCH  22  27
ENDBRANCH   1  22
TORSDOF 5
