REMARK  Name = ZINCkj000005kayV.0
REMARK                            x       y       z     vdW  Elec       q    Type
REMARK                         _______ _______ _______ _____ _____    ______ ____
ROOT
ATOM      1  S   LIG    1       -1.684  -0.826  -0.029  0.00  0.00    +2.690 S 
ATOM      2  O   LIG    1       -2.719   0.128   0.160  0.00  0.00    -0.940 OA
ATOM      3  O   LIG    1       -1.536  -1.984   0.781  0.00  0.00    -0.930 OA
ENDROOT
BRANCH   1  10
ATOM      4  C   LIG    1        1.043  -2.111  -0.235  0.00  0.00    +0.100 C 
ATOM      5  C   LIG    1        1.037  -0.619  -0.021  0.00  0.00    +0.020 A 
ATOM      6  C   LIG    1        2.230   0.068   0.067  0.00  0.00    +0.040 A 
ATOM      7  C   LIG    1        2.224   1.450   0.265  0.00  0.00    +0.050 A 
ATOM      8  C   LIG    1        1.008   2.128   0.371  0.00  0.00    +0.050 A 
ATOM      9  C   LIG    1       -0.178   1.429   0.281  0.00  0.00    +0.150 A 
ATOM     10  C   LIG    1       -0.164   0.059   0.085  0.00  0.00    -0.670 A 
BRANCH   7  11
ATOM     11  C   LIG    1        3.458   2.170   0.357  0.00  0.00    +0.230 C 
ATOM     12  N   LIG    1        4.438   2.740   0.430  0.00  0.00    -0.370 NA
ENDBRANCH   7  11
ENDBRANCH   1  10
BRANCH   1  13
ATOM     13  N   LIG    1       -1.822  -1.362  -1.590  0.00  0.00    -1.000 NA
ATOM     14  C   LIG    1       -1.406  -2.724  -1.953  0.00  0.00    +0.320 C 
ATOM     15  C   LIG    1       -0.418  -2.643  -3.121  0.00  0.00    +0.040 C 
ATOM     16  C   LIG    1       -1.054  -1.853  -4.268  0.00  0.00    +0.180 C 
ATOM     17  C   LIG    1       -1.364  -0.430  -3.798  0.00  0.00    +0.050 C 
ATOM     18  C   LIG    1       -2.368  -0.487  -2.637  0.00  0.00    +0.280 C 
ATOM     19  C   LIG    1       -3.700  -1.052  -3.133  0.00  0.00    +0.050 C 
BRANCH  16  20
ATOM     20  N   LIG    1       -0.122  -1.802  -5.402  0.00  0.00    -0.640 N 
ATOM     21  H   LIG    1        0.733  -1.349  -5.115  0.00  0.00    +0.430 HD
ATOM     22  H   LIG    1       -0.540  -1.281  -6.158  0.00  0.00    +0.440 HD
ATOM     23  H   LIG    1        0.082  -2.740  -5.713  0.00  0.00    +0.440 HD
ENDBRANCH  16  20
ENDBRANCH   1  13
TORSDOF 4
