REMARK  Name = ZINCrD000000Ayuz.0
REMARK                            x       y       z     vdW  Elec       q    Type
REMARK                         _______ _______ _______ _____ _____    ______ ____
ROOT
ATOM      1  O   LIG    1        0.002  -0.004  -0.009  0.00  0.00    -0.500 OA
ATOM      2  C   LIG    1       -0.014   1.209   0.007  0.00  0.00    +0.510 C 
ATOM      3  N   LIG    1       -1.191   1.867   0.018  0.00  0.00    -0.670 N 
ATOM      4  H   LIG    1       -1.205   2.833   0.098  0.00  0.00    +0.420 HD
ENDROOT
BRANCH   3   5
ATOM      5  C   LIG    1       -2.392   1.155  -0.086  0.00  0.00    +0.170 A 
ATOM      6  C   LIG    1       -3.468   1.705  -0.770  0.00  0.00    +0.020 A 
ATOM      7  C   LIG    1       -4.651   1.002  -0.878  0.00  0.00    +0.060 A 
ATOM      8  C   LIG    1       -4.770  -0.252  -0.293  0.00  0.00    +0.110 A 
ATOM      9  C   LIG    1       -3.694  -0.801   0.397  0.00  0.00    +0.120 A 
ATOM     10  F   LIG    1       -3.809  -2.021   0.967  0.00  0.00    -0.110 F 
ATOM     11  C   LIG    1       -2.509  -0.099   0.500  0.00  0.00    +0.020 A 
BRANCH   8  12
ATOM     12  N   LIG    1       -5.974  -0.964  -0.398  0.00  0.00    -0.320 N 
ATOM     13  C   LIG    1       -7.091  -0.549  -1.037  0.00  0.00    +0.230 A 
ATOM     14  C   LIG    1       -8.024  -1.520  -0.908  0.00  0.00    -0.100 A 
ATOM     15  C   LIG    1       -7.461  -2.564  -0.167  0.00  0.00    +0.240 A 
ATOM     16  N   LIG    1       -6.230  -2.234   0.134  0.00  0.00    -0.280 NA
ENDBRANCH   8  12
ENDBRANCH   3   5
BRANCH   2  17
ATOM     17  C   LIG    1        1.280   1.980   0.007  0.00  0.00    +0.120 C 
BRANCH  17  18
ATOM     18  C   LIG    1        2.439   1.017  -0.013  0.00  0.00    -0.080 A 
ATOM     19  C   LIG    1        2.982   0.565   1.176  0.00  0.00    +0.050 A 
ATOM     20  C   LIG    1        4.040  -0.322   1.160  0.00  0.00    -0.010 A 
ATOM     21  C   LIG    1        4.566  -0.752  -0.051  0.00  0.00    +0.160 A 
ATOM     22  C   LIG    1        4.023  -0.292  -1.243  0.00  0.00    +0.020 A 
ATOM     23  C   LIG    1        2.961   0.591  -1.221  0.00  0.00    +0.050 A 
BRANCH  21  24
ATOM     24  N   LIG    1        5.644  -1.648  -0.070  0.00  0.00    -0.320 N 
ATOM     25  C   LIG    1        6.268  -2.166   1.012  0.00  0.00    +0.230 A 
ATOM     26  C   LIG    1        7.249  -2.985   0.569  0.00  0.00    -0.100 A 
ATOM     27  C   LIG    1        7.232  -2.961  -0.830  0.00  0.00    +0.250 A 
ATOM     28  N   LIG    1        6.271  -2.160  -1.214  0.00  0.00    -0.290 NA
ENDBRANCH  21  24
ENDBRANCH  17  18
ENDBRANCH   2  17
TORSDOF 5
