REMARK  Name = ZINCrH00000No4BW.0
REMARK                            x       y       z     vdW  Elec       q    Type
REMARK                         _______ _______ _______ _____ _____    ______ ____
ROOT
ATOM      1  N   LIG    1       -2.432  -0.644   9.524  0.00  0.00    -0.520 NA
ENDROOT
BRANCH   1   2
ATOM      2  C   LIG    1       -1.779  -1.726  10.273  0.00  0.00    +0.240 C 
BRANCH   2   5
ATOM      3  N   LIG    1       -4.213  -3.491  12.348  0.00  0.00    -0.330 N 
ATOM      4  C   LIG    1       -3.513  -3.354  11.192  0.00  0.00    +0.250 A 
ATOM      5  C   LIG    1       -2.727  -2.259  11.316  0.00  0.00    -0.210 A 
ATOM      6  C   LIG    1       -2.946  -1.712  12.585  0.00  0.00    +0.240 A 
ATOM      7  N   LIG    1       -3.839  -2.444  13.201  0.00  0.00    -0.290 NA
BRANCH   3   9
ATOM      8  C   LIG    1       -5.751  -4.512  13.802  0.00  0.00    +0.030 C 
ATOM      9  C   LIG    1       -5.138  -4.494  12.634  0.00  0.00    +0.230 C 
ENDBRANCH   3   9
ENDBRANCH   2   5
ENDBRANCH   1   2
BRANCH   1  10
ATOM     10  C   LIG    1       -2.362   0.624  10.261  0.00  0.00    +0.290 C 
BRANCH  10  11
ATOM     11  C   LIG    1       -1.230   1.458   9.721  0.00  0.00    -0.240 A 
ATOM     12  C   LIG    1       -1.351   2.535   8.910  0.00  0.00    +0.260 A 
ATOM     13  N   LIG    1       -0.110   2.999   8.655  0.00  0.00    -0.360 N 
ATOM     14  N   LIG    1        0.805   2.177   9.324  0.00  0.00    -0.270 NA
ATOM     15  C   LIG    1        0.223   4.158   7.822  0.00  0.00    +0.360 C 
ATOM     16  C   LIG    1        0.133   1.253   9.963  0.00  0.00    +0.120 A 
ATOM     17 CL   LIG    1        0.815  -0.009  10.941  0.00  0.00    +0.010 Cl
ENDBRANCH  10  11
ENDBRANCH   1  10
BRANCH   1  18
ATOM     18  C   LIG    1       -1.849  -0.506   8.182  0.00  0.00    +0.170 C 
BRANCH  18  19
ATOM     19  C   LIG    1       -2.795   0.307   7.296  0.00  0.00    +0.070 C 
BRANCH  19  20
ATOM     20  C   LIG    1       -2.248   0.346   5.868  0.00  0.00    -0.100 C 
ATOM     21  C   LIG    1       -1.989  -1.032   5.180  0.00  0.00    +0.020 C 
ATOM     22  C   LIG    1       -1.840  -0.676   3.682  0.00  0.00    -0.010 C 
ATOM     23  C   LIG    1       -2.062   0.866   3.626  0.00  0.00    +0.090 C 
ATOM     24  O   LIG    1       -0.864   1.433   4.225  0.00  0.00    -0.380 OA
ATOM     25  C   LIG    1       -2.447   1.431   2.258  0.00  0.00    +0.100 C 
ATOM     26  C   LIG    1       -0.912   1.123   5.648  0.00  0.00    +0.180 C 
ATOM     27  C   LIG    1       -3.121   1.053   4.768  0.00  0.00    +0.030 C 
ENDBRANCH  19  20
ENDBRANCH  18  19
ENDBRANCH   1  18
TORSDOF 8
