REMARK  Name = ZINCpk00000xIlrI.0
REMARK                            x       y       z     vdW  Elec       q    Type
REMARK                         _______ _______ _______ _____ _____    ______ ____
ROOT
ATOM      1  O   LIG    1       -2.654   4.094   4.979  0.00  0.00    -0.510 OA
ATOM      2  C   LIG    1       -1.857   4.197   4.065  0.00  0.00    +0.600 C 
ATOM      3  N   LIG    1       -1.144   5.330   3.917  0.00  0.00    -0.710 N 
ATOM      4  H   LIG    1       -0.509   5.412   3.188  0.00  0.00    +0.410 HD
ENDROOT
BRANCH   2   5
ATOM      5  C   LIG    1       -1.674   3.087   3.124  0.00  0.00    -0.020 A 
ATOM      6  C   LIG    1       -2.329   1.889   3.158  0.00  0.00    +0.040 A 
ATOM      7  C   LIG    1       -1.851   1.136   2.075  0.00  0.00    +0.090 A 
ATOM      8  C   LIG    1       -0.930   1.894   1.440  0.00  0.00    -0.560 A 
ATOM      9  O   LIG    1       -0.829   3.070   2.072  0.00  0.00    -0.110 OA
BRANCH   8  10
ATOM     10  S   LIG    1       -0.017   1.417   0.010  0.00  0.00    +2.730 S 
ATOM     11  O   LIG    1        1.162   2.210   0.003  0.00  0.00    -0.930 OA
ATOM     12  O   LIG    1        0.002  -0.004   0.002  0.00  0.00    -0.930 OA
BRANCH  10  13
ATOM     13  N   LIG    1       -0.900   1.880  -1.312  0.00  0.00    -1.080 NA
ATOM     14  H   LIG    1       -1.261   1.209  -1.914  0.00  0.00    +0.420 HD
BRANCH  13  15
ATOM     15  C   LIG    1       -1.137   3.302  -1.574  0.00  0.00    +0.210 C 
ATOM     16  C   LIG    1       -2.470   3.690  -2.216  0.00  0.00    +0.020 C 
ATOM     17  C   LIG    1       -1.180   3.753  -3.035  0.00  0.00    +0.030 C 
ENDBRANCH  13  15
ENDBRANCH  10  13
ENDBRANCH   8  10
ENDBRANCH   2   5
BRANCH   3  18
ATOM     18  C   LIG    1       -1.327   6.439   4.857  0.00  0.00    +0.310 C 
BRANCH  18  19
ATOM     19  C   LIG    1       -0.404   7.596   4.467  0.00  0.00    +0.170 C 
ATOM     20  C   LIG    1       -0.577   8.786   5.440  0.00  0.00    +0.100 C 
ATOM     21  C   LIG    1       -0.423   9.975   4.511  0.00  0.00    -0.170 A 
ATOM     22  C   LIG    1       -0.188  11.310   4.750  0.00  0.00    +0.060 A 
ATOM     23  C   LIG    1       -0.071  12.192   3.689  0.00  0.00    -0.020 A 
ATOM     24  C   LIG    1       -0.192  11.727   2.393  0.00  0.00    +0.050 A 
ATOM     25  C   LIG    1       -0.432  10.390   2.152  0.00  0.00    -0.010 A 
ATOM     26  C   LIG    1       -0.555   9.497   3.213  0.00  0.00    +0.100 A 
ATOM     27  O   LIG    1       -0.798   8.157   3.204  0.00  0.00    -0.300 OA
ENDBRANCH  18  19
ENDBRANCH   3  18
TORSDOF 6
