REMARK  Name = ZINCqH0000037ePU.0
REMARK                            x       y       z     vdW  Elec       q    Type
REMARK                         _______ _______ _______ _____ _____    ______ ____
ROOT
ATOM      1  N   LIG    1       -7.404   0.402   1.299  0.00  0.00    -0.710 N 
ATOM      2  H   LIG    1       -7.173   1.327   1.118  0.00  0.00    +0.410 HD
ATOM      3  C   LIG    1       -8.636   0.090   1.748  0.00  0.00    +0.600 C 
ATOM      4  O   LIG    1       -8.925  -1.069   1.976  0.00  0.00    -0.530 OA
ENDROOT
BRANCH   3   5
ATOM      5  C   LIG    1       -9.632   1.154   1.965  0.00  0.00    +0.010 A 
ATOM      6  C   LIG    1      -10.882   0.896   2.410  0.00  0.00    -0.020 A 
ATOM      7  S   LIG    1      -11.744   2.368   2.541  0.00  0.00    +0.200 S 
ATOM      8  C   LIG    1      -10.340   3.261   1.968  0.00  0.00    +0.100 A 
ATOM      9  N   LIG    1       -9.369   2.433   1.734  0.00  0.00    -0.440 NA
BRANCH   8  10
ATOM     10  C   LIG    1      -10.277   4.727   1.783  0.00  0.00    -0.030 A 
ATOM     11  C   LIG    1       -9.102   5.326   1.326  0.00  0.00    +0.060 A 
ATOM     12  C   LIG    1       -9.052   6.693   1.150  0.00  0.00    +0.010 A 
ATOM     13  C   LIG    1      -10.159   7.472   1.436  0.00  0.00    +0.030 A 
ATOM     14  C   LIG    1      -11.325   6.885   1.894  0.00  0.00    +0.010 A 
ATOM     15  C   LIG    1      -11.390   5.518   2.069  0.00  0.00    +0.030 A 
ENDBRANCH   8  10
ENDBRANCH   3   5
BRANCH   1  17
ATOM     16  C   LIG    1       -6.609  -1.261  -0.308  0.00  0.00    +0.040 C 
ATOM     17  C   LIG    1       -6.413  -0.655   1.083  0.00  0.00    +0.290 C 
BRANCH  17  18
ATOM     18  C   LIG    1       -5.027  -0.074   1.188  0.00  0.00    -0.040 A 
ATOM     19  C   LIG    1       -4.027  -0.783   1.825  0.00  0.00    +0.010 A 
ATOM     20  C   LIG    1       -2.755  -0.251   1.921  0.00  0.00    +0.130 A 
ATOM     21  C   LIG    1       -2.483   0.992   1.379  0.00  0.00    -0.660 A 
ATOM     22  C   LIG    1       -3.485   1.704   0.746  0.00  0.00    +0.130 A 
ATOM     23  C   LIG    1       -4.756   1.169   0.647  0.00  0.00    +0.000 A 
BRANCH  21  24
ATOM     24  S   LIG    1       -0.862   1.671   1.500  0.00  0.00    +2.500 S 
ATOM     25  O   LIG    1       -1.065   3.076   1.440  0.00  0.00    -0.940 OA
ATOM     26  O   LIG    1       -0.312   1.059   2.659  0.00  0.00    -0.940 OA
ATOM     27  C   LIG    1       -0.013   1.086   0.008  0.00  0.00    -0.260 C 
ENDBRANCH  21  24
ENDBRANCH  17  18
ENDBRANCH   1  17
TORSDOF 5
