REMARK  Name = ZINCpe00000MJM6Z.0
REMARK                            x       y       z     vdW  Elec       q    Type
REMARK                         _______ _______ _______ _____ _____    ______ ____
ROOT
ATOM      1  N   LIG    1       -2.693   8.350   1.911  0.00  0.00    -0.710 N 
ATOM      2  H   LIG    1       -3.621   8.486   2.160  0.00  0.00    +0.410 HD
ATOM      3  C   LIG    1       -2.311   7.191   1.341  0.00  0.00    +0.510 C 
ATOM      4  O   LIG    1       -1.151   7.021   1.030  0.00  0.00    -0.530 OA
ENDROOT
BRANCH   1   9
ATOM      5  C   LIG    1       -2.168  10.319   3.314  0.00  0.00    +0.150 C 
ATOM      6  C   LIG    1       -2.304  11.713   2.662  0.00  0.00    +0.200 C 
ATOM      7  O   LIG    1       -2.514  11.445   1.258  0.00  0.00    -0.360 OA
ATOM      8  C   LIG    1       -1.619  10.357   0.941  0.00  0.00    +0.210 C 
ATOM      9  C   LIG    1       -1.707   9.406   2.156  0.00  0.00    +0.230 C 
BRANCH   5  10
ATOM     10  O   LIG    1       -3.428   9.881   3.826  0.00  0.00    -0.290 OA
BRANCH  10  14
ATOM     11  C   LIG    1       -5.630  10.028   8.183  0.00  0.00    +0.370 C 
ATOM     12  N   LIG    1       -4.651  10.189   7.105  0.00  0.00    -0.370 N 
ATOM     13  C   LIG    1       -4.803   9.780   5.818  0.00  0.00    +0.210 A 
ATOM     14  C   LIG    1       -3.675  10.116   5.145  0.00  0.00    -0.030 A 
ATOM     15  C   LIG    1       -2.806  10.743   6.048  0.00  0.00    +0.170 A 
ATOM     16  N   LIG    1       -3.391  10.791   7.217  0.00  0.00    -0.270 NA
ENDBRANCH  10  14
ENDBRANCH   5  10
ENDBRANCH   1   9
BRANCH   3  17
ATOM     17  C   LIG    1       -3.325   6.105   1.089  0.00  0.00    +0.120 C 
BRANCH  17  18
ATOM     18  C   LIG    1       -2.646   4.922   0.448  0.00  0.00    -0.100 A 
ATOM     19  C   LIG    1       -2.557   4.836  -0.929  0.00  0.00    +0.060 A 
ATOM     20  C   LIG    1       -1.940   3.753  -1.522  0.00  0.00    -0.010 A 
ATOM     21  C   LIG    1       -1.402   2.737  -0.737  0.00  0.00    +0.110 A 
ATOM     22  O   LIG    1       -0.767   1.591  -1.107  0.00  0.00    -0.310 OA
ATOM     23  C   LIG    1       -0.013   1.086   0.008  0.00  0.00    +0.240 C 
ATOM     24  C   LIG    1       -0.801   1.617   1.229  0.00  0.00    +0.070 C 
ATOM     25  C   LIG    1       -1.491   2.838   0.646  0.00  0.00    -0.170 A 
ATOM     26  C   LIG    1       -2.110   3.918   1.235  0.00  0.00    +0.070 A 
ENDBRANCH  17  18
ENDBRANCH   3  17
TORSDOF 5
