REMARK  Name = ZINCpe00000MJI7B.0
REMARK                            x       y       z     vdW  Elec       q    Type
REMARK                         _______ _______ _______ _____ _____    ______ ____
ROOT
ATOM      1  O   LIG    1       -2.477   5.308  -0.023  0.00  0.00    -0.500 OA
ATOM      2  C   LIG    1       -1.426   5.915   0.046  0.00  0.00    +0.570 C 
ATOM      3  N   LIG    1       -1.429   7.258   0.155  0.00  0.00    -0.600 N 
ATOM      4  C   LIG    1       -0.167   8.012   0.155  0.00  0.00    +0.250 C 
ATOM      5  C   LIG    1       -0.122   8.906   1.392  0.00  0.00    +0.030 C 
ATOM      6  C   LIG    1       -1.377   9.781   1.433  0.00  0.00    +0.070 C 
ATOM      7  C   LIG    1       -2.619   8.890   1.523  0.00  0.00    +0.110 C 
ATOM      8  C   LIG    1       -2.693   7.996   0.282  0.00  0.00    +0.290 C 
ENDROOT
BRANCH   2   9
ATOM      9  C   LIG    1       -0.147   5.180   0.012  0.00  0.00    -0.090 A 
ATOM     10  C   LIG    1        0.829   5.515  -0.915  0.00  0.00    +0.070 A 
ATOM     11  C   LIG    1        2.036   4.827  -0.953  0.00  0.00    +0.040 A 
ATOM     12  C   LIG    1        2.294   3.809  -0.086  0.00  0.00    +0.090 A 
ATOM     13  C   LIG    1        1.333   3.434   0.872  0.00  0.00    +0.070 A 
ATOM     14  N   LIG    1        1.569   2.437   1.730  0.00  0.00    -0.420 NA
ATOM     15  C   LIG    1        0.655   2.108   2.614  0.00  0.00    +0.260 A 
ATOM     16  C   LIG    1       -0.565   2.784   2.662  0.00  0.00    +0.260 A 
ATOM     17  N   LIG    1       -0.817   3.772   1.832  0.00  0.00    -0.410 NA
ATOM     18  C   LIG    1        0.097   4.124   0.926  0.00  0.00    +0.110 A 
ENDBRANCH   2   9
BRANCH   7  19
ATOM     19  O   LIG    1       -2.537   8.075   2.694  0.00  0.00    -0.540 OA
ATOM     20  H   LIG    1       -3.291   7.482   2.814  0.00  0.00    +0.380 HD
ENDBRANCH   7  19
BRANCH   7  21
ATOM     21  C   LIG    1       -3.871   9.766   1.597  0.00  0.00    +0.320 C 
BRANCH  21  22
ATOM     22  N   LIG    1       -5.059   8.913   1.680  0.00  0.00    -0.300 N 
ATOM     23  C   LIG    1       -6.011   8.970   2.641  0.00  0.00    +0.140 A 
ATOM     24  C   LIG    1       -6.916   8.012   2.332  0.00  0.00    +0.140 A 
ATOM     25  N   LIG    1       -6.480   7.424   1.212  0.00  0.00    -0.260 NA
ATOM     26  N   LIG    1       -5.381   7.985   0.848  0.00  0.00    -0.080 NA
ENDBRANCH  21  22
ENDBRANCH   7  21
TORSDOF 4
