REMARK  Name = ZINCpe00000z3iuH.0
REMARK                            x       y       z     vdW  Elec       q    Type
REMARK                         _______ _______ _______ _____ _____    ______ ____
ROOT
ATOM      1  C   LIG    1       -4.770  -1.138   1.984  0.00  0.00    -0.720 A 
ATOM      2  C   LIG    1       -4.865  -0.857   3.338  0.00  0.00    +0.210 A 
ATOM      3  C   LIG    1       -6.097  -0.802   3.961  0.00  0.00    -0.030 A 
ATOM      4  C   LIG    1       -7.249  -1.041   3.228  0.00  0.00    +0.250 A 
ATOM      5  N   LIG    1       -8.505  -1.000   3.816  0.00  0.00    -0.640 N 
ATOM      6  H   LIG    1       -8.587  -0.799   4.761  0.00  0.00    +0.440 HD
ATOM      7  C   LIG    1       -9.610  -1.234   3.087  0.00  0.00    +0.710 A 
ATOM      8  N   LIG    1       -9.571  -1.516   1.776  0.00  0.00    -0.660 N 
ATOM      9  H   LIG    1      -10.400  -1.676   1.298  0.00  0.00    +0.440 HD
ATOM     10  C   LIG    1       -8.399  -1.580   1.107  0.00  0.00    +0.570 A 
ATOM     11  O   LIG    1       -8.371  -1.835  -0.081  0.00  0.00    -0.480 OA
ATOM     12  O   LIG    1      -10.692  -1.189   3.640  0.00  0.00    -0.530 OA
ATOM     13  C   LIG    1       -7.153  -1.331   1.856  0.00  0.00    -0.220 A 
ATOM     14  C   LIG    1       -5.906  -1.379   1.239  0.00  0.00    +0.250 A 
ENDROOT
BRANCH   1  15
ATOM     15  S   LIG    1       -3.188  -1.196   1.212  0.00  0.00    +2.690 S 
ATOM     16  O   LIG    1       -2.247  -1.465   2.242  0.00  0.00    -0.940 OA
ATOM     17  O   LIG    1       -3.333  -2.014   0.059  0.00  0.00    -0.940 OA
BRANCH  15  22
ATOM     18  C   LIG    1       -0.829   3.421  -1.427  0.00  0.00    +0.090 C 
ATOM     19  C   LIG    1       -1.163   2.095  -0.741  0.00  0.00    -0.100 C 
ATOM     20  C   LIG    1       -2.106   1.186  -1.513  0.00  0.00    +0.070 C 
ATOM     21  C   LIG    1       -3.267   0.697  -0.682  0.00  0.00    +0.310 C 
ATOM     22  N   LIG    1       -2.854   0.331   0.662  0.00  0.00    -0.990 NA
ATOM     23  C   LIG    1       -2.159   1.257   1.543  0.00  0.00    +0.340 C 
ATOM     24  C   LIG    1       -0.017   1.395   0.010  0.00  0.00    +0.200 C 
ATOM     25  F   LIG    1        1.237   2.016   0.001  0.00  0.00    -0.160 F 
ATOM     26  F   LIG    1        0.002  -0.004   0.002  0.00  0.00    -0.150 F 
ATOM     27  C   LIG    1       -1.135   2.079   0.781  0.00  0.00    -0.010 C 
ENDBRANCH  15  22
ENDBRANCH   1  15
TORSDOF 2
