REMARK  Name = ZINCpe000000WG0x.0
REMARK                            x       y       z     vdW  Elec       q    Type
REMARK                         _______ _______ _______ _____ _____    ______ ____
ROOT
ATOM      1  C   LIG    1       -6.430   7.454   0.077  0.00  0.00    +0.060 C 
ENDROOT
BRANCH   1   7
ATOM      2  N   LIG    1       -8.610  11.677  -1.080  0.00  0.00    -1.000 NA
ATOM      3  C   LIG    1       -9.704  10.695  -1.081  0.00  0.00    +0.300 C 
ATOM      4  C   LIG    1       -9.509   9.744   0.106  0.00  0.00    +0.270 C 
ATOM      5  N   LIG    1       -8.121   9.258   0.096  0.00  0.00    -0.610 N 
ATOM      6  C   LIG    1       -7.028  10.240   0.102  0.00  0.00    +0.270 C 
ATOM      7  C   LIG    1       -7.857   7.937   0.087  0.00  0.00    +0.520 C 
ATOM      8  O   LIG    1       -8.768   7.136   0.087  0.00  0.00    -0.530 OA
ATOM      9  C   LIG    1       -7.223  11.191  -1.090  0.00  0.00    +0.290 C 
BRANCH   2  11
ATOM     10  C   LIG    1       -9.014  13.734   0.691  0.00  0.00    -0.280 C 
ATOM     11  S   LIG    1       -8.934  13.301  -1.069  0.00  0.00    +2.610 S 
ATOM     12  O   LIG    1      -10.219  13.405  -1.667  0.00  0.00    -0.950 OA
ATOM     13  O   LIG    1       -7.793  13.890  -1.677  0.00  0.00    -0.950 OA
ENDBRANCH   2  11
ENDBRANCH   1   7
BRANCH   1  14
ATOM     14  C   LIG    1       -6.409   5.924   0.068  0.00  0.00    +0.040 C 
BRANCH  14  15
ATOM     15  C   LIG    1       -4.960   5.434   0.057  0.00  0.00    +0.250 C 
BRANCH  15  16
ATOM     16  N   LIG    1       -4.940   3.969   0.049  0.00  0.00    -0.730 N 
ATOM     17  H   LIG    1       -5.773   3.473   0.051  0.00  0.00    +0.410 HD
BRANCH  16  18
ATOM     18  C   LIG    1       -3.721   3.287   0.038  0.00  0.00    +0.270 A 
ATOM     19  C   LIG    1       -3.700   1.898   0.030  0.00  0.00    -0.060 A 
ATOM     20  C   LIG    1       -2.493   1.227   0.021  0.00  0.00    +0.150 A 
ATOM     21  C   LIG    1       -1.306   1.936   0.019  0.00  0.00    -0.110 A 
ATOM     22  C   LIG    1       -1.323   3.319   0.032  0.00  0.00    +0.150 A 
ATOM     23  C   LIG    1       -2.526   3.996   0.037  0.00  0.00    -0.060 A 
BRANCH  21  24
ATOM     24  N   LIG    1       -0.014   1.214   0.009  0.00  0.00    +0.040 N 
ATOM     25  O   LIG    1        1.032   1.837   0.002  0.00  0.00    -0.170 OA
ATOM     26  O   LIG    1        0.002  -0.004   0.002  0.00  0.00    -0.170 OA
ENDBRANCH  21  24
ENDBRANCH  16  18
ENDBRANCH  15  16
ENDBRANCH  14  15
ENDBRANCH   1  14
TORSDOF 7
