REMARK  Name = ZINCpe000000Vcq5.0
REMARK                            x       y       z     vdW  Elec       q    Type
REMARK                         _______ _______ _______ _____ _____    ______ ____
ROOT
ATOM      1  C   LIG    1        3.311   6.442   0.092  0.00  0.00    +0.320 C 
ENDROOT
BRANCH   1   2
ATOM      2  C   LIG    1        3.046   7.852   0.553  0.00  0.00    -0.150 A 
ATOM      3  C   LIG    1        1.943   8.537   0.078  0.00  0.00    +0.050 A 
ATOM      4  C   LIG    1        1.695   9.828   0.503  0.00  0.00    -0.080 A 
ATOM      5  C   LIG    1        2.560  10.441   1.398  0.00  0.00    +0.140 A 
ATOM      6  C   LIG    1        3.669   9.753   1.869  0.00  0.00    -0.020 A 
ATOM      7  C   LIG    1        3.909   8.460   1.445  0.00  0.00    +0.100 A 
BRANCH   5   8
ATOM      8  O   LIG    1        2.321  11.712   1.814  0.00  0.00    -0.320 OA
ATOM      9  C   LIG    1        1.160  12.359   1.288  0.00  0.00    +0.250 C 
ENDBRANCH   5   8
ENDBRANCH   1   2
BRANCH   1  10
ATOM     10  N   LIG    1        2.046   5.706   0.019  0.00  0.00    -0.710 N 
ATOM     11  H   LIG    1        1.211   6.187  -0.097  0.00  0.00    +0.410 HD
ATOM     12  C   LIG    1        2.042   4.362   0.114  0.00  0.00    +0.590 C 
ATOM     13  O   LIG    1        3.092   3.753   0.168  0.00  0.00    -0.520 OA
BRANCH  12  14
ATOM     14  C   LIG    1        0.759   3.627   0.152  0.00  0.00    +0.020 A 
ATOM     15  N   LIG    1       -0.376   4.287   0.093  0.00  0.00    -0.180 NA
ATOM     16  N   LIG    1       -1.515   3.696   0.123  0.00  0.00    -0.340 N 
ATOM     17  C   LIG    1       -1.617   2.356   0.211  0.00  0.00    +0.480 A 
ATOM     18  C   LIG    1       -0.445   1.572   0.284  0.00  0.00    -0.010 A 
ATOM     19  O   LIG    1       -2.714   1.824   0.231  0.00  0.00    -0.520 OA
ATOM     20  C   LIG    1       -2.737   4.500   0.053  0.00  0.00    +0.360 C 
ATOM     21  C   LIG    1        0.757   2.215   0.252  0.00  0.00    +0.140 A 
ENDBRANCH  12  14
ENDBRANCH   1  10
BRANCH   1  22
ATOM     22  C   LIG    1        3.964   6.471  -1.291  0.00  0.00    +0.100 C 
BRANCH  22  23
ATOM     23  C   LIG    1        5.336   7.084  -1.186  0.00  0.00    +0.470 C 
ATOM     24  O   LIG    1        5.798   7.349  -0.101  0.00  0.00    -0.500 OA
BRANCH  23  26
ATOM     25  C   LIG    1        7.361   7.927  -2.119  0.00  0.00    +0.260 C 
ATOM     26  O   LIG    1        6.046   7.336  -2.297  0.00  0.00    -0.360 OA
ENDBRANCH  23  26
ENDBRANCH  22  23
ENDBRANCH   1  22
TORSDOF 7
