REMARK  Name = ZINCpe000000U9fY.0
REMARK                            x       y       z     vdW  Elec       q    Type
REMARK                         _______ _______ _______ _____ _____    ______ ____
ROOT
ATOM      1  N   LIG    1       -1.191   1.870   0.018  0.00  0.00    -0.740 N 
ATOM      2  H   LIG    1       -1.204   2.840   0.023  0.00  0.00    +0.400 HD
ATOM      3  C   LIG    1       -0.014   1.212   0.009  0.00  0.00    +0.710 C 
ATOM      4  N   LIG    1        1.143   1.901   0.001  0.00  0.00    -0.740 N 
ATOM      5  H   LIG    1        1.130   2.871   0.007  0.00  0.00    +0.410 HD
ATOM      6  O   LIG    1        0.002  -0.004   0.002  0.00  0.00    -0.580 OA
ENDROOT
BRANCH   1   7
ATOM      7  C   LIG    1       -2.449   1.120   0.020  0.00  0.00    +0.310 C 
BRANCH   7   8
ATOM      8  C   LIG    1       -3.543   1.972  -0.571  0.00  0.00    -0.090 A 
ATOM      9  C   LIG    1       -3.606   3.320  -0.270  0.00  0.00    +0.020 A 
ATOM     10  C   LIG    1       -4.607   4.105  -0.809  0.00  0.00    +0.030 A 
ATOM     11  C   LIG    1       -5.552   3.543  -1.654  0.00  0.00    +0.050 A 
ATOM     12  O   LIG    1       -6.537   4.327  -2.172  0.00  0.00    -0.310 OA
ATOM     13  C   LIG    1       -7.242   3.810  -3.306  0.00  0.00    +0.220 C 
ATOM     14  C   LIG    1       -7.610   2.348  -3.017  0.00  0.00    +0.220 C 
ATOM     15  O   LIG    1       -6.400   1.617  -2.792  0.00  0.00    -0.310 OA
ATOM     16  C   LIG    1       -5.487   2.188  -1.959  0.00  0.00    +0.060 A 
ATOM     17  C   LIG    1       -4.478   1.407  -1.418  0.00  0.00    +0.040 A 
ENDBRANCH   7   8
BRANCH   7  19
ATOM     18  C   LIG    1       -1.769  -0.223   2.014  0.00  0.00    +0.030 C 
ATOM     19  C   LIG    1       -2.816   0.743   1.456  0.00  0.00    +0.010 C 
ENDBRANCH   7  19
ENDBRANCH   1   7
BRANCH   4  20
ATOM     20  C   LIG    1        2.422   1.186  -0.015  0.00  0.00    +0.430 C 
BRANCH  20  21
ATOM     21  C   LIG    1        3.554   2.181  -0.020  0.00  0.00    +0.270 A 
ATOM     22  N   LIG    1        3.425   3.469  -0.018  0.00  0.00    -0.280 NA
ATOM     23  N   LIG    1        4.707   4.036  -0.021  0.00  0.00    -0.540 N 
ATOM     24  H   LIG    1        4.917   4.983  -0.018  0.00  0.00    +0.460 HD
ATOM     25  C   LIG    1        5.595   3.020  -0.035  0.00  0.00    +0.650 A 
ATOM     26  O   LIG    1        6.809   3.123  -0.046  0.00  0.00    -0.550 OA
ATOM     27  N   LIG    1        4.892   1.869  -0.035  0.00  0.00    -0.550 N 
ATOM     28  C   LIG    1        5.458   0.518  -0.046  0.00  0.00    +0.350 C 
ENDBRANCH  20  21
ENDBRANCH   4  20
TORSDOF 5
