REMARK  Name = ZINCkj000005mn4s.0
REMARK                            x       y       z     vdW  Elec       q    Type
REMARK                         _______ _______ _______ _____ _____    ______ ____
ROOT
ATOM      1  C   LIG    1       -0.439   3.964  -1.887  0.00  0.00    +0.720 C 
ATOM      2  N   LIG    1        0.362   3.656  -2.854  0.00  0.00    -0.650 NA
ATOM      3  C   LIG    1        0.807   4.873  -3.547  0.00  0.00    +0.330 C 
ATOM      4  C   LIG    1        0.097   6.014  -2.791  0.00  0.00    +0.260 C 
ATOM      5  H   LIG    1        0.632   2.754  -3.087  0.00  0.00    +0.450 HD
ATOM      6  N   LIG    1       -0.674   5.305  -1.756  0.00  0.00    -0.680 NA
ATOM      7  H   LIG    1       -1.248   5.719  -1.093  0.00  0.00    +0.450 HD
ENDROOT
BRANCH   1  13
ATOM      8  C   LIG    1       -1.030   1.307   3.521  0.00  0.00    +0.530 A 
ATOM      9  N   LIG    1       -1.859   2.331   3.568  0.00  0.00    -0.510 NA
ATOM     10  C   LIG    1       -2.151   3.011   2.471  0.00  0.00    +0.350 A 
ATOM     11  C   LIG    1       -1.572   2.635   1.266  0.00  0.00    -0.230 A 
ATOM     12  C   LIG    1       -1.919   3.410   0.023  0.00  0.00    +0.390 C 
ATOM     13  N   LIG    1       -1.012   3.022  -1.065  0.00  0.00    -0.590 NA
ATOM     14  C   LIG    1       -0.740   1.586  -1.240  0.00  0.00    +0.320 C 
ATOM     15  C   LIG    1       -0.013   1.086   0.008  0.00  0.00    +0.120 C 
ATOM     16  C   LIG    1       -0.705   1.565   1.255  0.00  0.00    +0.190 A 
ATOM     17  N   LIG    1       -0.462   0.927   2.396  0.00  0.00    -0.510 NA
ENDBRANCH   1  13
BRANCH   4  18
ATOM     18  C   LIG    1        1.120   6.961  -2.160  0.00  0.00    +0.000 C 
ATOM     19  C   LIG    1        1.964   6.206  -1.112  0.00  0.00    +0.010 C 
ATOM     20  C   LIG    1        2.184   7.243   0.017  0.00  0.00    +0.020 C 
ATOM     21  C   LIG    1        0.827   7.986   0.069  0.00  0.00    +0.010 C 
ATOM     22  C   LIG    1        0.397   8.093  -1.409  0.00  0.00    +0.020 C 
ENDBRANCH   4  18
TORSDOF 2
