REMARK  Name = ZINCqH0000007soH.1
REMARK                            x       y       z     vdW  Elec       q    Type
REMARK                         _______ _______ _______ _____ _____    ______ ____
ROOT
ATOM      1  C   LIG    1       -0.806   1.964  -1.271  0.00  0.00    +0.200 C 
ENDROOT
BRANCH   1   5
ATOM      2  C   LIG    1       -0.653   6.213  -1.695  0.00  0.00    +0.130 A 
ATOM      3  C   LIG    1       -0.693   5.404  -2.821  0.00  0.00    -0.020 A 
ATOM      4  C   LIG    1       -0.741   4.030  -2.681  0.00  0.00    +0.060 A 
ATOM      5  C   LIG    1       -0.752   3.462  -1.421  0.00  0.00    -0.130 A 
ATOM      6  C   LIG    1       -0.719   4.267  -0.297  0.00  0.00    +0.080 A 
ATOM      7  C   LIG    1       -0.664   5.641  -0.431  0.00  0.00    -0.080 A 
BRANCH   2   9
ATOM      8  C   LIG    1       -0.568   8.336  -0.627  0.00  0.00    +0.250 C 
ATOM      9  O   LIG    1       -0.606   7.565  -1.829  0.00  0.00    -0.320 OA
ENDBRANCH   2   9
ENDBRANCH   1   5
BRANCH   1  10
ATOM     10  N   LIG    1        0.194   1.534  -0.284  0.00  0.00    -0.520 NA
ATOM     11  C   LIG    1        1.425   2.329  -0.401  0.00  0.00    +0.150 C 
ATOM     12  C   LIG    1        2.414   1.889   0.682  0.00  0.00    +0.220 C 
ATOM     13  O   LIG    1        2.662   0.487   0.553  0.00  0.00    -0.390 OA
ATOM     14  C   LIG    1        1.485  -0.318   0.662  0.00  0.00    +0.220 C 
ATOM     15  C   LIG    1        0.486   0.099  -0.421  0.00  0.00    +0.150 C 
ENDBRANCH   1  10
BRANCH   1  16
ATOM     16  C   LIG    1       -2.200   1.548  -0.798  0.00  0.00    +0.230 C 
BRANCH  16  17
ATOM     17  N   LIG    1       -2.240   0.096  -0.612  0.00  0.00    -0.550 NA
ATOM     18  C   LIG    1       -2.453  -0.405   0.577  0.00  0.00    +0.390 A 
ATOM     19  N   LIG    1       -2.518  -1.724   0.912  0.00  0.00    -0.630 N 
ATOM     20  H   LIG    1       -2.403  -2.416   0.242  0.00  0.00    +0.420 HD
ATOM     21  C   LIG    1       -2.754  -2.046   2.238  0.00  0.00    +0.150 A 
ATOM     22  C   LIG    1       -2.860  -3.325   2.805  0.00  0.00    +0.000 A 
ATOM     23  C   LIG    1       -3.098  -3.481   4.151  0.00  0.00    +0.060 A 
ATOM     24  C   LIG    1       -3.239  -2.380   4.978  0.00  0.00    +0.010 A 
ATOM     25  C   LIG    1       -3.139  -1.111   4.441  0.00  0.00    +0.090 A 
ATOM     26  C   LIG    1       -2.899  -0.950   3.088  0.00  0.00    -0.160 A 
ATOM     27  S   LIG    1       -2.708   0.493   2.082  0.00  0.00    -0.000 S 
ENDBRANCH  16  17
ENDBRANCH   1  16
TORSDOF 5
