REMARK  Name = ZINCqH0000032xjj.0
REMARK                            x       y       z     vdW  Elec       q    Type
REMARK                         _______ _______ _______ _____ _____    ______ ____
ROOT
ATOM      1  C   LIG    1       -7.065   2.333  -1.142  0.00  0.00    +0.170 A 
ATOM      2  C   LIG    1       -8.049   2.151  -0.175  0.00  0.00    +0.010 A 
ATOM      3  C   LIG    1       -9.345   2.542  -0.427  0.00  0.00    +0.070 A 
ATOM      4  C   LIG    1       -9.674   3.111  -1.660  0.00  0.00    -0.150 A 
ATOM      5  C   LIG    1       -8.684   3.287  -2.632  0.00  0.00    +0.100 A 
ATOM      6  C   LIG    1       -7.389   2.900  -2.371  0.00  0.00    -0.020 A 
ENDROOT
BRANCH   4   7
ATOM      7  C   LIG    1      -11.063   3.526  -1.937  0.00  0.00    +0.560 C 
ATOM      8  N   LIG    1      -12.091   2.783  -1.481  0.00  0.00    -0.600 N 
ATOM      9  C   LIG    1      -11.848   1.499  -0.810  0.00  0.00    +0.260 C 
ATOM     10  C   LIG    1      -12.672   0.413  -1.508  0.00  0.00    +0.010 C 
ATOM     11  C   LIG    1      -14.143   0.836  -1.540  0.00  0.00    +0.010 C 
ATOM     12  C   LIG    1      -14.284   2.136  -2.336  0.00  0.00    +0.020 C 
ATOM     13  C   LIG    1      -13.477   3.244  -1.642  0.00  0.00    +0.210 C 
ATOM     14  C   LIG    1      -13.500   4.511  -2.499  0.00  0.00    +0.040 C 
ATOM     15  O   LIG    1      -11.280   4.538  -2.575  0.00  0.00    -0.530 OA
ENDBRANCH   4   7
BRANCH   1  17
ATOM     16  C   LIG    1       -5.257   2.038   0.368  0.00  0.00    +0.610 C 
ATOM     17  N   LIG    1       -5.754   1.942  -0.881  0.00  0.00    -0.660 N 
ATOM     18  H   LIG    1       -5.198   1.599  -1.599  0.00  0.00    +0.420 HD
ATOM     19  O   LIG    1       -5.918   2.558   1.246  0.00  0.00    -0.510 OA
BRANCH  16  23
ATOM     20  N   LIG    1       -2.001   0.595   0.420  0.00  0.00    -0.270 N 
ATOM     21  C   LIG    1       -2.056   0.952   1.722  0.00  0.00    +0.170 A 
ATOM     22  C   LIG    1       -3.257   1.542   1.925  0.00  0.00    -0.010 A 
ATOM     23  C   LIG    1       -3.910   1.513   0.670  0.00  0.00    -0.030 A 
ATOM     24  N   LIG    1       -3.086   0.933  -0.179  0.00  0.00    -0.260 NA
BRANCH  20  26
ATOM     25  C   LIG    1       -0.979  -1.586  -0.004  0.00  0.00    +0.050 C 
ATOM     26  C   LIG    1       -0.865  -0.075  -0.217  0.00  0.00    +0.250 C 
ATOM     27  C   LIG    1        0.439   0.431   0.402  0.00  0.00    +0.060 C 
ENDBRANCH  20  26
ENDBRANCH  16  23
ENDBRANCH   1  17
TORSDOF 4
