REMARK  Name = ZINC65000000000c.0
REMARK                            x       y       z     vdW  Elec       q    Type
REMARK                         _______ _______ _______ _____ _____    ______ ____
ROOT
ATOM      1  C   LIG    1       -0.014   1.209   0.009  0.00  0.00    +0.520 C 
ATOM      2  N   LIG    1        1.143   1.898   0.001  0.00  0.00    -0.600 N 
ATOM      3  H   LIG    1        1.130   2.868   0.007  0.00  0.00    +0.410 HD
ATOM      4  O   LIG    1        0.002  -0.004   0.002  0.00  0.00    -0.520 OA
ENDROOT
BRANCH   1   6
ATOM      5  C   LIG    1       -2.479   0.934   0.019  0.00  0.00    +0.050 C 
ATOM      6  C   LIG    1       -1.330   1.944   0.019  0.00  0.00    +0.070 C 
ENDBRANCH   1   6
BRANCH   2   7
ATOM      7  O   LIG    1        2.379   1.207  -0.014  0.00  0.00    -0.320 OA
ATOM      8  H   LIG    1        3.154   1.786  -0.018  0.00  0.00    +0.390 HD
ENDBRANCH   2   7
TORSDOF 2
