REMARK  Name = ZINCvU0000000DXg.0
REMARK                            x       y       z     vdW  Elec       q    Type
REMARK                         _______ _______ _______ _____ _____    ______ ____
ROOT
ATOM      1  C   LIG    1        0.766   1.572  -0.217  0.00  0.00    +0.360 A 
ATOM      2  N   LIG    1        1.972   1.049  -0.338  0.00  0.00    -0.510 NA
ATOM      3  C   LIG    1        2.146  -0.262  -0.431  0.00  0.00    +0.200 A 
ATOM      4  C   LIG    1        1.008  -1.109  -0.400  0.00  0.00    -0.160 A 
ATOM      5  C   LIG    1       -0.245  -0.503  -0.271  0.00  0.00    +0.100 A 
ATOM      6  S   LIG    1       -1.497  -1.736  -0.254  0.00  0.00    +0.170 S 
ATOM      7  C   LIG    1       -0.323  -3.027  -0.419  0.00  0.00    -0.170 A 
ATOM      8  C   LIG    1       -0.673  -4.492  -0.482  0.00  0.00    +0.150 C 
ATOM      9  C   LIG    1        0.907  -2.554  -0.480  0.00  0.00    -0.070 A 
ATOM     10  C   LIG    1        2.114  -3.445  -0.624  0.00  0.00    +0.140 C 
ATOM     11  N   LIG    1       -0.318   0.831  -0.183  0.00  0.00    -0.490 NA
ENDROOT
BRANCH   1  12
ATOM     12  C   LIG    1        0.628   3.069  -0.116  0.00  0.00    +0.290 C 
BRANCH  12  13
ATOM     13  N   LIG    1        0.684   3.471   1.296  0.00  0.00    -0.530 NA
BRANCH  13  15
ATOM     14  C   LIG    1        2.188   5.379   0.990  0.00  0.00    +0.020 C 
ATOM     15  C   LIG    1        0.791   4.931   1.424  0.00  0.00    +0.170 C 
ENDBRANCH  13  15
BRANCH  13  16
ATOM     16  C   LIG    1       -0.479   2.962   2.035  0.00  0.00    +0.160 C 
ATOM     17  C   LIG    1       -0.230   3.103   3.538  0.00  0.00    +0.020 C 
ENDBRANCH  13  16
ENDBRANCH  12  13
ENDBRANCH   1  12
BRANCH   3  18
ATOM     18  S   LIG    1        3.764  -0.942  -0.592  0.00  0.00    +0.070 S 
BRANCH  18  19
ATOM     19  C   LIG    1        4.747   0.578  -0.571  0.00  0.00    +0.000 C 
ATOM     20  C   LIG    1        4.418   1.415  -1.809  0.00  0.00    +0.090 C 
BRANCH  19  21
ATOM     21  C   LIG    1        6.213   0.228  -0.576  0.00  0.00    +0.540 C 
ATOM     22  N   LIG    1        7.114   1.093  -0.071  0.00  0.00    -0.660 N 
ATOM     23  H   LIG    1        6.828   1.970   0.229  0.00  0.00    +0.410 HD
ATOM     24  O   LIG    1        6.581  -0.833  -1.035  0.00  0.00    -0.510 OA
BRANCH  22  25
ATOM     25  C   LIG    1        8.463   0.726   0.021  0.00  0.00    +0.110 A 
ATOM     26  C   LIG    1        8.806  -0.592   0.293  0.00  0.00    +0.060 A 
ATOM     27  C   LIG    1       10.136  -0.955   0.380  0.00  0.00    -0.060 A 
ATOM     28  C   LIG    1       11.128  -0.001   0.205  0.00  0.00    +0.120 A 
ATOM     29  C   LIG    1       10.785   1.317  -0.061  0.00  0.00    +0.010 A 
ATOM     30  C   LIG    1        9.456   1.680  -0.153  0.00  0.00    +0.030 A 
BRANCH  28  31
ATOM     31  O   LIG    1       12.437  -0.357   0.297  0.00  0.00    -0.320 OA
ATOM     32  C   LIG    1       12.717  -1.731   0.573  0.00  0.00    +0.250 C 
ENDBRANCH  28  31
ENDBRANCH  22  25
ENDBRANCH  19  21
ENDBRANCH  18  19
ENDBRANCH   3  18
TORSDOF 9
