REMARK  Name = ZINCpe00000yqaML.0
REMARK                            x       y       z     vdW  Elec       q    Type
REMARK                         _______ _______ _______ _____ _____    ______ ____
ROOT
ATOM      1  C   LIG    1       -1.215   2.177   0.020  0.00  0.00    +0.620 C 
ATOM      2  N   LIG    1       -2.443   1.623   0.024  0.00  0.00    -0.610 N 
ATOM      3  C   LIG    1       -2.734   0.182   0.018  0.00  0.00    +0.250 C 
ATOM      4  C   LIG    1       -4.269   0.024  -0.001  0.00  0.00    +0.030 C 
ATOM      5  C   LIG    1       -4.751   1.381  -0.577  0.00  0.00    +0.000 C 
ATOM      6  C   LIG    1       -3.719   2.362   0.040  0.00  0.00    +0.260 C 
ATOM      7  O   LIG    1       -1.093   3.386   0.025  0.00  0.00    -0.530 OA
ENDROOT
BRANCH   1  10
ATOM      8  C   LIG    1        2.074   0.613  -0.015  0.00  0.00    +0.020 A 
ATOM      9  C   LIG    1        1.332   1.745  -0.001  0.00  0.00    -0.010 A 
ATOM     10  C   LIG    1       -0.016   1.314   0.009  0.00  0.00    -0.010 A 
ATOM     11  N   LIG    1        0.002  -0.004   0.002  0.00  0.00    -0.260 NA
ATOM     12  N   LIG    1        1.214  -0.428  -0.012  0.00  0.00    -0.280 N 
BRANCH   8  14
ATOM     13  C   LIG    1        4.109   0.620   1.402  0.00  0.00    +0.030 C 
ATOM     14  C   LIG    1        3.579   0.530  -0.030  0.00  0.00    +0.110 C 
ENDBRANCH   8  14
BRANCH  12  15
ATOM     15  C   LIG    1        1.608  -1.840  -0.023  0.00  0.00    +0.340 C 
BRANCH  15  16
ATOM     16  C   LIG    1        1.731  -2.323  -1.470  0.00  0.00    +0.180 C 
BRANCH  16  17
ATOM     17  O   LIG    1        2.115  -3.700  -1.481  0.00  0.00    -0.570 OA
ATOM     18  H   LIG    1        2.212  -4.074  -2.367  0.00  0.00    +0.390 HD
ENDBRANCH  16  17
ENDBRANCH  15  16
ENDBRANCH  12  15
ENDBRANCH   1  10
BRANCH   5  19
ATOM     19  C   LIG    1       -6.167   1.708  -0.099  0.00  0.00    +0.000 C 
ATOM     20  C   LIG    1       -7.268   0.991  -0.900  0.00  0.00    +0.020 C 
ATOM     21  C   LIG    1       -8.068   2.304  -0.819  0.00  0.00    +0.230 C 
ATOM     22  C   LIG    1       -6.720   3.026  -0.665  0.00  0.00    +0.030 C 
BRANCH  21  23
ATOM     23  N   LIG    1       -8.776   2.639  -2.058  0.00  0.00    -0.720 N 
ATOM     24  H   LIG    1       -8.279   2.949  -2.831  0.00  0.00    +0.400 HD
ATOM     25  C   LIG    1      -10.117   2.518  -2.122  0.00  0.00    +0.510 C 
ATOM     26  O   LIG    1      -10.738   2.131  -1.154  0.00  0.00    -0.550 OA
ATOM     27  C   LIG    1      -10.845   2.864  -3.395  0.00  0.00    +0.090 C 
ENDBRANCH  21  23
ENDBRANCH   5  19
TORSDOF 7
