REMARK  Name = ZINCnE000001L42e.0
REMARK                            x       y       z     vdW  Elec       q    Type
REMARK                         _______ _______ _______ _____ _____    ______ ____
ROOT
ATOM      1  C   LIG    1        0.957  -1.546  -4.234  0.00  0.00    +0.120 A 
ATOM      2  C   LIG    1        0.594  -2.721  -4.873  0.00  0.00    -0.070 A 
ATOM      3  C   LIG    1        1.389  -3.845  -4.760  0.00  0.00    +0.050 A 
ATOM      4  C   LIG    1        2.550  -3.807  -4.008  0.00  0.00    -0.100 A 
ATOM      5  C   LIG    1        2.927  -2.642  -3.371  0.00  0.00    +0.060 A 
ATOM      6  C   LIG    1        2.130  -1.504  -3.474  0.00  0.00    -0.080 A 
ENDROOT
BRANCH   6   7
ATOM      7  C   LIG    1        2.528  -0.251  -2.787  0.00  0.00    -0.020 A 
ATOM      8  C   LIG    1        3.692   0.412  -3.167  0.00  0.00    +0.030 A 
ATOM      9  C   LIG    1        4.056   1.577  -2.523  0.00  0.00    +0.000 A 
ATOM     10  C   LIG    1        3.268   2.081  -1.506  0.00  0.00    +0.010 A 
ATOM     11  C   LIG    1        2.108   1.425  -1.121  0.00  0.00    -0.130 A 
ATOM     12  C   LIG    1        1.287   2.006   0.001  0.00  0.00    +0.260 C 
ATOM     13  O   LIG    1       -0.017   1.428   0.010  0.00  0.00    -0.380 OA
ATOM     14  C   LIG    1        0.002  -0.004   0.002  0.00  0.00    +0.210 C 
ATOM     15  C   LIG    1        0.477  -0.474  -1.374  0.00  0.00    +0.060 C 
ATOM     16  C   LIG    1        1.734   0.263  -1.759  0.00  0.00    -0.050 A 
ENDBRANCH   6   7
BRANCH   1  18
ATOM     17  C   LIG    1       -1.006  -0.558  -5.138  0.00  0.00    +0.230 C 
ATOM     18  O   LIG    1        0.177  -0.440  -4.346  0.00  0.00    -0.310 OA
ENDBRANCH   1  18
BRANCH   4  19
ATOM     19  C   LIG    1        3.410  -5.039  -3.891  0.00  0.00    +0.080 C 
BRANCH  19  20
ATOM     20  C   LIG    1        4.443  -5.049  -5.019  0.00  0.00    -0.060 C 
BRANCH  20  21
ATOM     21  C   LIG    1        5.303  -6.282  -4.902  0.00  0.00    +0.490 C 
ATOM     22  O   LIG    1        6.194  -6.482  -5.709  0.00  0.00    -0.710 OA
ATOM     23  O   LIG    1        5.107  -7.077  -3.999  0.00  0.00    -0.700 OA
ENDBRANCH  20  21
ENDBRANCH  19  20
ENDBRANCH   4  19
TORSDOF 5
