REMARK  Name = ZINCqH0000036xFT.0
REMARK                            x       y       z     vdW  Elec       q    Type
REMARK                         _______ _______ _______ _____ _____    ______ ____
ROOT
ATOM      1  N   LIG    1       -0.015   5.250   0.075  0.00  0.00    -0.560 N 
ATOM      2  C   LIG    1        1.178   6.101   0.152  0.00  0.00    +0.310 C 
ATOM      3  C   LIG    1        0.716   7.499  -0.321  0.00  0.00    +0.020 C 
ATOM      4  C   LIG    1       -0.793   7.460   0.015  0.00  0.00    +0.090 C 
ATOM      5  C   LIG    1       -1.137   5.987   0.006  0.00  0.00    +0.520 C 
ATOM      6  O   LIG    1       -2.261   5.536  -0.054  0.00  0.00    -0.500 OA
ENDROOT
BRANCH   3   7
ATOM      7  C   LIG    1        1.413   8.585   0.458  0.00  0.00    +0.540 C 
ATOM      8  N   LIG    1        0.988   9.860   0.364  0.00  0.00    -0.550 N 
ATOM      9  C   LIG    1        1.605  10.958   0.973  0.00  0.00    +0.140 A 
ATOM     10  C   LIG    1        2.744  10.998   1.778  0.00  0.00    +0.010 A 
ATOM     11  C   LIG    1        3.194  12.199   2.286  0.00  0.00    +0.040 A 
ATOM     12  C   LIG    1        2.520  13.371   2.001  0.00  0.00    -0.010 A 
ATOM     13  C   LIG    1        1.391  13.339   1.204  0.00  0.00    +0.050 A 
ATOM     14  C   LIG    1        0.936  12.139   0.693  0.00  0.00    -0.130 A 
ATOM     15  C   LIG    1       -0.250  11.823  -0.190  0.00  0.00    +0.110 C 
ATOM     16  C   LIG    1       -0.185  10.301  -0.396  0.00  0.00    +0.220 C 
ATOM     17  C   LIG    1       -0.011   9.971  -1.880  0.00  0.00    +0.040 C 
ATOM     18  O   LIG    1        2.358   8.311   1.168  0.00  0.00    -0.510 OA
ENDBRANCH   3   7
BRANCH   1  23
ATOM     19  C   LIG    1       -1.144   1.746   0.120  0.00  0.00    -0.060 A 
ATOM     20  C   LIG    1        0.075   1.079   0.083  0.00  0.00    -0.030 A 
ATOM     21  C   LIG    1        1.255   1.797   0.039  0.00  0.00    +0.060 A 
ATOM     22  C   LIG    1        1.227   3.178   0.036  0.00  0.00    -0.030 A 
ATOM     23  C   LIG    1        0.012   3.851   0.078  0.00  0.00    +0.180 A 
ATOM     24  C   LIG    1       -1.175   3.134   0.123  0.00  0.00    +0.020 A 
BRANCH  19  26
ATOM     25  C   LIG    1       -2.079  -0.892   0.153  0.00  0.00    +0.140 C 
ATOM     26  S   LIG    1       -2.649   0.830   0.168  0.00  0.00    -0.110 S 
ENDBRANCH  19  26
ENDBRANCH   1  23
TORSDOF 3
