REMARK  Name = ZINCpk00000y6vFx.0
REMARK                            x       y       z     vdW  Elec       q    Type
REMARK                         _______ _______ _______ _____ _____    ______ ____
ROOT
ATOM      1  C   LIG    1       -1.223   1.753   0.012  0.00  0.00    +0.130 A 
ATOM      2  C   LIG    1       -1.227   3.129   0.198  0.00  0.00    +0.050 A 
ATOM      3  C   LIG    1       -0.036   3.829   0.186  0.00  0.00    +0.020 A 
ATOM      4  C   LIG    1        1.159   3.161  -0.008  0.00  0.00    +0.100 A 
ATOM      5  C   LIG    1        1.166   1.789  -0.189  0.00  0.00    -0.660 A 
ATOM      6  C   LIG    1       -0.021   1.083  -0.177  0.00  0.00    +0.130 A 
ENDROOT
BRANCH   1   9
ATOM      7  O   LIG    1       -1.477  -0.695   1.026  0.00  0.00    -0.500 OA
ATOM      8  C   LIG    1       -2.465  -0.215   0.506  0.00  0.00    +0.570 C 
ATOM      9  N   LIG    1       -2.427   1.042   0.019  0.00  0.00    -0.660 N 
ATOM     10  H   LIG    1       -3.235   1.452  -0.326  0.00  0.00    +0.420 HD
BRANCH   8  11
ATOM     11  C   LIG    1       -3.711  -1.010   0.407  0.00  0.00    +0.070 A 
ATOM     12  C   LIG    1       -3.743  -2.308   0.912  0.00  0.00    +0.040 A 
ATOM     13  C   LIG    1       -4.916  -3.040   0.813  0.00  0.00    +0.070 A 
ATOM     14  C   LIG    1       -6.016  -2.448   0.212  0.00  0.00    +0.000 A 
ATOM     15  C   LIG    1       -5.912  -1.152  -0.268  0.00  0.00    +0.270 A 
ATOM     16  N   LIG    1       -4.788  -0.478  -0.157  0.00  0.00    -0.460 NA
ENDBRANCH   8  11
ENDBRANCH   1   9
BRANCH   5  17
ATOM     17  S   LIG    1        2.691   0.943  -0.435  0.00  0.00    +2.690 S 
ATOM     18  O   LIG    1        2.470  -0.405  -0.042  0.00  0.00    -0.940 OA
ATOM     19  O   LIG    1        3.702   1.763   0.134  0.00  0.00    -0.950 OA
BRANCH  17  20
ATOM     20  N   LIG    1        2.977   0.913  -2.066  0.00  0.00    -0.990 NA
ATOM     21  C   LIG    1        3.730   1.995  -2.714  0.00  0.00    +0.280 C 
ATOM     22  C   LIG    1        4.890   1.384  -3.506  0.00  0.00    +0.020 C 
ATOM     23  C   LIG    1        4.344   0.332  -4.474  0.00  0.00    -0.010 C 
ATOM     24  C   LIG    1        3.658  -0.784  -3.682  0.00  0.00    +0.150 C 
ATOM     25  C   LIG    1        2.489  -0.200  -2.892  0.00  0.00    +0.300 C 
BRANCH  24  26
ATOM     26  O   LIG    1        3.175  -1.781  -4.585  0.00  0.00    -0.560 OA
ATOM     27  H   LIG    1        3.866  -2.195  -5.121  0.00  0.00    +0.380 HD
ENDBRANCH  24  26
ENDBRANCH  17  20
ENDBRANCH   5  17
TORSDOF 5
