REMARK  Name = ZINCrD00000l8XbN.0
REMARK                            x       y       z     vdW  Elec       q    Type
REMARK                         _______ _______ _______ _____ _____    ______ ____
ROOT
ATOM      1  C   LIG    1        0.002  -0.004   0.002  0.00  0.00    +0.150 A 
ATOM      2  C   LIG    1        1.212  -0.685  -0.014  0.00  0.00    -0.040 A 
ATOM      3  C   LIG    1        2.399   0.014  -0.021  0.00  0.00    +0.100 A 
ATOM      4  C   LIG    1        2.388   1.411  -0.013  0.00  0.00    -0.130 A 
ATOM      5  C   LIG    1        1.169   2.097   0.002  0.00  0.00    +0.040 A 
ATOM      6  C   LIG    1       -0.017   1.390   0.010  0.00  0.00    +0.090 A 
ENDROOT
BRANCH   4   7
ATOM      7  C   LIG    1        3.658   2.161  -0.021  0.00  0.00    +0.520 C 
ATOM      8  O   LIG    1        3.646   3.376  -0.014  0.00  0.00    -0.500 OA
BRANCH   7   9
ATOM      9  O   LIG    1        4.831   1.498  -0.035  0.00  0.00    -0.330 OA
BRANCH   9  10
ATOM     10  C   LIG    1        6.041   2.301  -0.042  0.00  0.00    +0.280 C 
BRANCH  10  11
ATOM     11  C   LIG    1        7.245   1.394  -0.059  0.00  0.00    +0.530 C 
ATOM     12  N   LIG    1        8.485   1.921  -0.067  0.00  0.00    -0.630 N 
ATOM     13  H   LIG    1        8.603   2.884  -0.063  0.00  0.00    +0.420 HD
ATOM     14  O   LIG    1        7.098   0.190  -0.064  0.00  0.00    -0.490 OA
BRANCH  12  15
ATOM     15  C   LIG    1        9.600   1.082  -0.083  0.00  0.00    +0.250 A 
ATOM     16  N   LIG    1       10.855   1.445  -0.098  0.00  0.00    -0.390 NA
ATOM     17  O   LIG    1       11.593   0.487  -0.105  0.00  0.00    +0.100 OA
ATOM     18  C   LIG    1       10.909  -0.666  -0.105  0.00  0.00    -0.020 A 
ATOM     19  C   LIG    1       11.490  -2.057  -0.118  0.00  0.00    +0.190 C 
ATOM     20  C   LIG    1        9.598  -0.338  -0.091  0.00  0.00    -0.040 A 
ENDBRANCH  12  15
ENDBRANCH  10  11
ENDBRANCH   9  10
ENDBRANCH   7   9
ENDBRANCH   4   7
BRANCH   1  21
ATOM     21  O   LIG    1       -1.165  -0.697   0.009  0.00  0.00    -0.300 OA
BRANCH  21  22
ATOM     22  C   LIG    1       -1.073  -2.123   0.001  0.00  0.00    +0.190 C 
BRANCH  22  23
ATOM     23  C   LIG    1       -2.480  -2.725   0.011  0.00  0.00    +0.040 C 
BRANCH  23  25
ATOM     24  C   LIG    1       -3.788  -4.854   0.012  0.00  0.00    +0.030 C 
ATOM     25  C   LIG    1       -2.381  -4.252   0.002  0.00  0.00    +0.020 C 
ENDBRANCH  23  25
ENDBRANCH  22  23
ENDBRANCH  21  22
ENDBRANCH   1  21
BRANCH   6  26
ATOM     26  O   LIG    1       -1.204   2.054   0.019  0.00  0.00    -0.300 OA
BRANCH  26  27
ATOM     27  C   LIG    1       -1.148   3.482   0.026  0.00  0.00    +0.170 C 
ATOM     28  C   LIG    1       -2.570   4.048   0.036  0.00  0.00    +0.070 C 
ENDBRANCH  26  27
ENDBRANCH   6  26
TORSDOF 11
