REMARK  Name = ZINCtV00000sB3Vr.0
REMARK                            x       y       z     vdW  Elec       q    Type
REMARK                         _______ _______ _______ _____ _____    ______ ____
ROOT
ATOM      1  C   LIG    1        4.120  -3.405  -2.606  0.00  0.00    +0.250 C 
ENDROOT
BRANCH   1   2
ATOM      2  N   LIG    1        4.437  -2.829  -1.292  0.00  0.00    -0.470 N 
ATOM      3  C   LIG    1        5.343  -1.685  -1.425  0.00  0.00    +0.230 C 
ATOM      4  C   LIG    1        6.741  -2.193  -1.804  0.00  0.00    +0.190 C 
ATOM      5  N   LIG    1        7.205  -3.054  -0.704  0.00  0.00    -0.750 N 
ATOM      6  H   LIG    1        8.122  -3.018  -0.390  0.00  0.00    +0.400 HD
ATOM      7  C   LIG    1        6.272  -3.931  -0.125  0.00  0.00    +0.180 A 
ATOM      8  C   LIG    1        6.712  -4.919   0.742  0.00  0.00    -0.060 A 
ATOM      9  C   LIG    1        5.803  -5.784   1.323  0.00  0.00    +0.030 A 
ATOM     10  C   LIG    1        4.455  -5.663   1.039  0.00  0.00    -0.040 A 
ATOM     11  C   LIG    1        4.011  -4.681   0.173  0.00  0.00    +0.060 A 
ATOM     12  C   LIG    1        4.917  -3.808  -0.418  0.00  0.00    +0.030 A 
BRANCH   4  13
ATOM     13  C   LIG    1        7.695  -1.010  -1.978  0.00  0.00    -0.070 C 
ATOM     14  C   LIG    1        7.739  -0.195  -0.683  0.00  0.00    +0.040 C 
ATOM     15  C   LIG    1        7.204  -0.121  -3.123  0.00  0.00    +0.040 C 
ATOM     16  C   LIG    1        9.098  -1.529  -2.301  0.00  0.00    +0.030 C 
ENDBRANCH   4  13
ENDBRANCH   1   2
BRANCH   1  23
ATOM     17  C   LIG    1        1.664  -3.877  -2.408  0.00  0.00    +0.100 A 
ATOM     18  C   LIG    1        0.600  -4.762  -2.288  0.00  0.00    +0.010 A 
ATOM     19  C   LIG    1        0.838  -6.121  -2.223  0.00  0.00    -0.010 A 
ATOM     20  C   LIG    1        2.135  -6.602  -2.280  0.00  0.00    +0.100 A 
ATOM     21  C   LIG    1        3.197  -5.722  -2.400  0.00  0.00    +0.000 A 
ATOM     22  F   LIG    1        2.364  -7.932  -2.217  0.00  0.00    -0.140 F 
ATOM     23  C   LIG    1        2.964  -4.362  -2.469  0.00  0.00    -0.030 A 
BRANCH  17  24
ATOM     24  N   LIG    1        1.427  -2.501  -2.474  0.00  0.00    -0.490 N 
ATOM     25  C   LIG    1        0.666  -2.155  -3.682  0.00  0.00    +0.200 C 
BRANCH  24  26
ATOM     26  C   LIG    1        0.739  -2.027  -1.265  0.00  0.00    +0.180 C 
BRANCH  26  27
ATOM     27  C   LIG    1        0.718  -0.497  -1.257  0.00  0.00    +0.020 C 
BRANCH  27  28
ATOM     28  C   LIG    1        0.002  -0.004   0.002  0.00  0.00    +0.000 C 
BRANCH  28  30
ATOM     29  C   LIG    1       -0.735   2.019   1.269  0.00  0.00    +0.000 C 
ATOM     30  C   LIG    1       -0.019   1.526   0.010  0.00  0.00    +0.000 C 
ENDBRANCH  28  30
ENDBRANCH  27  28
ENDBRANCH  26  27
ENDBRANCH  24  26
ENDBRANCH  17  24
ENDBRANCH   1  23
TORSDOF 8
