REMARK  Name = ZINCtV00001bB3Ig.0
REMARK                            x       y       z     vdW  Elec       q    Type
REMARK                         _______ _______ _______ _____ _____    ______ ____
ROOT
ATOM      1  C   LIG    1        3.477   2.173  -0.019  0.00  0.00    +0.550 C 
ATOM      2  N   LIG    1        2.320   1.483  -0.012  0.00  0.00    -0.580 N 
ATOM      3  H   LIG    1        2.333   0.513  -0.018  0.00  0.00    +0.390 HD
ATOM      4  O   LIG    1        3.461   3.386  -0.013  0.00  0.00    -0.480 OA
ENDROOT
BRANCH   2   5
ATOM      5  N   LIG    1        1.097   2.167   0.003  0.00  0.00    -0.230 NA
ATOM      6  C   LIG    1       -0.018   1.503   0.010  0.00  0.00    +0.140 C 
ATOM      7  C   LIG    1        0.002  -0.004   0.002  0.00  0.00    +0.090 C 
BRANCH   6   8
ATOM      8  C   LIG    1       -1.304   2.222   0.020  0.00  0.00    -0.050 A 
ATOM      9  C   LIG    1       -2.506   1.508   0.016  0.00  0.00    +0.040 A 
ATOM     10  C   LIG    1       -3.706   2.181   0.030  0.00  0.00    +0.010 A 
ATOM     11  C   LIG    1       -3.724   3.576   0.039  0.00  0.00    -0.020 A 
ATOM     12  C   LIG    1       -2.526   4.290   0.037  0.00  0.00    +0.010 A 
ATOM     13  C   LIG    1       -1.324   3.620   0.028  0.00  0.00    +0.070 A 
BRANCH  11  14
ATOM     14  C   LIG    1       -5.019   4.300   0.049  0.00  0.00    -0.050 A 
ATOM     15  C   LIG    1       -5.040   5.694   0.062  0.00  0.00    +0.020 A 
ATOM     16  C   LIG    1       -6.248   6.362   0.066  0.00  0.00    +0.010 A 
ATOM     17  C   LIG    1       -7.435   5.651   0.067  0.00  0.00    +0.000 A 
ATOM     18  C   LIG    1       -7.419   4.268   0.060  0.00  0.00    +0.010 A 
ATOM     19  C   LIG    1       -6.218   3.589   0.051  0.00  0.00    +0.020 A 
ENDBRANCH  11  14
ENDBRANCH   6   8
ENDBRANCH   2   5
BRANCH   1  20
ATOM     20  C   LIG    1        4.793   1.437  -0.036  0.00  0.00    +0.080 C 
BRANCH  20  21
ATOM     21  S   LIG    1        6.155   2.635  -0.043  0.00  0.00    +0.000 S 
BRANCH  21  30
ATOM     22  C   LIG    1        9.006   3.676  -0.065  0.00  0.00    +0.120 C 
ATOM     23  C   LIG    1        8.853   2.177  -0.071  0.00  0.00    -0.060 A 
ATOM     24  C   LIG    1        9.973   1.369  -0.085  0.00  0.00    +0.070 A 
ATOM     25  C   LIG    1        9.834  -0.008  -0.091  0.00  0.00    -0.100 A 
ATOM     26  C   LIG    1        8.573  -0.579  -0.082  0.00  0.00    -0.040 A 
ATOM     27  C   LIG    1        7.450   0.224  -0.062  0.00  0.00    +0.000 A 
ATOM     28  C   LIG    1        8.427  -2.079  -0.089  0.00  0.00    +0.100 C 
ATOM     29 BR   LIG    1       11.369  -1.111  -0.111  0.00  0.00    -0.040 Br
ATOM     30  C   LIG    1        7.586   1.607  -0.062  0.00  0.00    -0.090 A 
ENDBRANCH  21  30
ENDBRANCH  20  21
ENDBRANCH   1  20
TORSDOF 6
