REMARK  Name = ZINCpk00000jRgHH.1
REMARK                            x       y       z     vdW  Elec       q    Type
REMARK                         _______ _______ _______ _____ _____    ______ ____
ROOT
ATOM      1  C   LIG    1        5.788  -2.330   0.548  0.00  0.00    +0.250 C 
ATOM      2  C   LIG    1        4.561  -3.083  -0.030  0.00  0.00    +0.030 C 
ATOM      3  C   LIG    1        3.463  -1.999  -0.041  0.00  0.00    +0.270 C 
ATOM      4  N   LIG    1        4.139  -0.694  -0.040  0.00  0.00    -0.610 N 
ATOM      5  C   LIG    1        3.527   0.507  -0.028  0.00  0.00    +0.620 C 
ATOM      6  O   LIG    1        4.189   1.527  -0.029  0.00  0.00    -0.520 OA
ATOM      7  C   LIG    1        5.596  -0.915  -0.060  0.00  0.00    +0.260 C 
ENDROOT
BRANCH   5   8
ATOM      8  C   LIG    1        2.052   0.585  -0.014  0.00  0.00    -0.010 A 
ATOM      9  N   LIG    1        1.213  -0.432  -0.012  0.00  0.00    -0.260 NA
ATOM     10  N   LIG    1        0.002  -0.004   0.002  0.00  0.00    -0.380 N 
ATOM     11  H   LIG    1       -0.786  -0.570   0.007  0.00  0.00    +0.440 HD
ATOM     12  C   LIG    1       -0.016   1.346   0.009  0.00  0.00    +0.030 A 
ATOM     13  C   LIG    1        1.271   1.765  -0.001  0.00  0.00    -0.010 A 
BRANCH  12  14
ATOM     14  C   LIG    1       -1.241   2.224   0.020  0.00  0.00    +0.070 C 
ATOM     15  C   LIG    1       -1.722   2.411   1.461  0.00  0.00    +0.030 C 
ATOM     16  C   LIG    1       -2.348   1.564  -0.805  0.00  0.00    +0.030 C 
ENDBRANCH  12  14
ENDBRANCH   5   8
BRANCH   1  18
ATOM     17  C   LIG    1        8.166  -2.792   0.814  0.00  0.00    +0.600 C 
ATOM     18  N   LIG    1        7.041  -2.932   0.085  0.00  0.00    -0.720 N 
ATOM     19  H   LIG    1        7.060  -3.432  -0.746  0.00  0.00    +0.400 HD
ATOM     20  O   LIG    1        8.141  -2.166   1.856  0.00  0.00    -0.510 OA
BRANCH  17  25
ATOM     21  C   LIG    1       11.525  -4.060   0.155  0.00  0.00    +0.030 A 
ATOM     22  N   LIG    1       10.839  -4.492  -0.873  0.00  0.00    -0.260 NA
ATOM     23  N   LIG    1        9.611  -4.124  -0.792  0.00  0.00    -0.380 N 
ATOM     24  H   LIG    1        8.922  -4.332  -1.443  0.00  0.00    +0.440 HD
ATOM     25  C   LIG    1        9.424  -3.397   0.349  0.00  0.00    -0.040 A 
ATOM     26  C   LIG    1       10.656  -3.338   0.977  0.00  0.00    +0.030 A 
BRANCH  21  28
ATOM     27  C   LIG    1       13.282  -5.795   0.374  0.00  0.00    +0.020 C 
ATOM     28  C   LIG    1       12.993  -4.293   0.404  0.00  0.00    +0.120 C 
ENDBRANCH  21  28
ENDBRANCH  17  25
ENDBRANCH   1  18
TORSDOF 5
