REMARK  Name = ZINCpk00000jRgHH.0
REMARK                            x       y       z     vdW  Elec       q    Type
REMARK                         _______ _______ _______ _____ _____    ______ ____
ROOT
ATOM      1  C   LIG    1       -1.412  -4.514  -0.621  0.00  0.00    +0.250 C 
ATOM      2  C   LIG    1        0.028  -4.445  -0.048  0.00  0.00    +0.050 C 
ATOM      3  C   LIG    1        0.315  -2.929  -0.016  0.00  0.00    +0.240 C 
ATOM      4  N   LIG    1       -0.983  -2.239  -0.001  0.00  0.00    -0.620 N 
ATOM      5  C   LIG    1       -1.163  -0.903   0.008  0.00  0.00    +0.610 C 
ATOM      6  O   LIG    1       -2.288  -0.441   0.020  0.00  0.00    -0.510 OA
ATOM      7  C   LIG    1       -2.056  -3.250   0.009  0.00  0.00    +0.270 C 
ENDROOT
BRANCH   5   8
ATOM      8  C   LIG    1        0.002  -0.004   0.002  0.00  0.00    -0.040 A 
ATOM      9  C   LIG    1       -0.017   1.380   0.010  0.00  0.00    +0.030 A 
ATOM     10  C   LIG    1        1.325   1.768  -0.001  0.00  0.00    +0.040 A 
ATOM     11  N   LIG    1        2.057   0.683  -0.014  0.00  0.00    -0.270 NA
ATOM     12  N   LIG    1        1.319  -0.368  -0.013  0.00  0.00    -0.380 N 
ATOM     13  H   LIG    1        1.646  -1.281  -0.021  0.00  0.00    +0.440 HD
BRANCH  10  14
ATOM     14  C   LIG    1        1.839   3.185   0.001  0.00  0.00    +0.080 C 
ATOM     15  C   LIG    1        0.910   4.063   0.842  0.00  0.00    +0.040 C 
ATOM     16  C   LIG    1        1.881   3.714  -1.434  0.00  0.00    +0.040 C 
ENDBRANCH  10  14
ENDBRANCH   5   8
BRANCH   1  18
ATOM     17  C   LIG    1       -3.107  -6.242  -0.904  0.00  0.00    +0.600 C 
ATOM     18  N   LIG    1       -2.098  -5.728  -0.172  0.00  0.00    -0.720 N 
ATOM     19  H   LIG    1       -1.827  -6.163   0.651  0.00  0.00    +0.400 HD
ATOM     20  O   LIG    1       -3.447  -5.697  -1.937  0.00  0.00    -0.510 OA
BRANCH  17  25
ATOM     21  C   LIG    1       -5.146  -9.204  -0.280  0.00  0.00    +0.030 A 
ATOM     22  N   LIG    1       -4.332  -9.185   0.745  0.00  0.00    -0.260 NA
ATOM     23  N   LIG    1       -3.531  -8.183   0.675  0.00  0.00    -0.380 N 
ATOM     24  H   LIG    1       -2.843  -7.972   1.325  0.00  0.00    +0.440 HD
ATOM     25  C   LIG    1       -3.796  -7.462  -0.454  0.00  0.00    -0.050 A 
ATOM     26  C   LIG    1       -4.845  -8.105  -1.087  0.00  0.00    +0.030 A 
BRANCH  21  28
ATOM     27  C   LIG    1       -5.606 -11.628  -0.532  0.00  0.00    +0.020 C 
ATOM     28  C   LIG    1       -6.222 -10.227  -0.539  0.00  0.00    +0.120 C 
ENDBRANCH  21  28
ENDBRANCH  17  25
ENDBRANCH   1  18
TORSDOF 5
