REMARK  Name = ZINCpe000000Yqmf.1
REMARK                            x       y       z     vdW  Elec       q    Type
REMARK                         _______ _______ _______ _____ _____    ______ ____
ROOT
ATOM      1  N   LIG    1       -2.264   5.430   0.054  0.00  0.00    -0.650 NA
ATOM      2  H   LIG    1       -1.679   5.699   0.831  0.00  0.00    +0.370 HD
ENDROOT
BRANCH   1   3
ATOM      3  C   LIG    1       -2.499   3.980   0.048  0.00  0.00    +0.280 C 
BRANCH   3  13
ATOM      4  C   LIG    1        2.790   5.279   0.003  0.00  0.00    +0.370 C 
ATOM      5  N   LIG    1        2.402   3.866  -0.001  0.00  0.00    -0.350 N 
ATOM      6  N   LIG    1        3.280   2.775  -0.015  0.00  0.00    -0.270 NA
ATOM      7  C   LIG    1        2.595   1.665  -0.014  0.00  0.00    +0.330 A 
ATOM      8  C   LIG    1        1.226   1.990   0.001  0.00  0.00    -0.350 A 
ATOM      9  C   LIG    1       -0.014   1.214   0.009  0.00  0.00    +0.580 A 
ATOM     10  O   LIG    1        0.002  -0.004   0.002  0.00  0.00    -0.520 OA
ATOM     11  N   LIG    1       -1.181   1.901   0.018  0.00  0.00    -0.650 N 
ATOM     12  H   LIG    1       -2.024   1.420   0.019  0.00  0.00    +0.420 HD
ATOM     13  C   LIG    1       -1.177   3.257   0.031  0.00  0.00    +0.430 A 
ATOM     14  N   LIG    1       -0.084   3.963   0.024  0.00  0.00    -0.500 NA
ATOM     15  C   LIG    1        1.130   3.390   0.009  0.00  0.00    +0.340 A 
ENDBRANCH   3  13
ENDBRANCH   1   3
BRANCH   1  16
ATOM     16  CA  LIG    1       -3.534   6.169   0.071  0.00  0.00    +0.190 C 
BRANCH  16  17
ATOM     17  C   LIG    1       -3.323   7.559  -0.533  0.00  0.00    +0.060 C 
ATOM     18  C   LIG    1       -4.660   8.327  -0.589  0.00  0.00    +0.040 C 
ATOM     19  C   LIG    1       -5.178   7.988  -2.003  0.00  0.00    +0.070 C 
ATOM     20  C   LIG    1       -3.938   7.689  -2.818  0.00  0.00    -0.100 A 
ATOM     21  C   LIG    1       -3.757   7.638  -4.190  0.00  0.00    +0.000 A 
ATOM     22  C   LIG    1       -2.514   7.340  -4.716  0.00  0.00    +0.000 A 
ATOM     23  C   LIG    1       -1.449   7.093  -3.872  0.00  0.00    -0.010 A 
ATOM     24  C   LIG    1       -1.627   7.145  -2.503  0.00  0.00    +0.040 A 
ATOM     25  C   LIG    1       -2.872   7.443  -1.973  0.00  0.00    -0.070 A 
ENDBRANCH  16  17
BRANCH  16  26
ATOM     26  C   LIG    1       -4.024   6.309   1.513  0.00  0.00    +0.140 C 
BRANCH  26  27
ATOM     27  O   LIG    1       -3.106   7.117   2.252  0.00  0.00    -0.570 OA
ATOM     28  H   LIG    1       -3.354   7.249   3.177  0.00  0.00    +0.380 HD
ENDBRANCH  26  27
ENDBRANCH  16  26
ENDBRANCH   1  16
TORSDOF 6
