REMARK  Name = ZINCrH000004rLvk.0
REMARK                            x       y       z     vdW  Elec       q    Type
REMARK                         _______ _______ _______ _____ _____    ______ ____
ROOT
ATOM      1  C   LIG    1        2.064   1.549  -0.351  0.00  0.00    +0.220 C 
ENDROOT
BRANCH   1   4
ATOM      2  N   LIG    1       -0.362   1.089  -0.213  0.00  0.00    -0.680 N 
ATOM      3  H   LIG    1       -0.158   0.344   0.373  0.00  0.00    +0.410 HD
ATOM      4  C   LIG    1        0.636   1.819  -0.749  0.00  0.00    +0.510 C 
ATOM      5  O   LIG    1        0.386   2.692  -1.553  0.00  0.00    -0.490 OA
BRANCH   2  12
ATOM      6  C   LIG    1       -1.226   3.773   0.178  0.00  0.00    +0.090 C 
ATOM      7  C   LIG    1       -2.157   2.702  -0.330  0.00  0.00    -0.070 A 
ATOM      8  C   LIG    1       -3.470   3.011  -0.624  0.00  0.00    +0.010 A 
ATOM      9  C   LIG    1       -4.327   2.027  -1.085  0.00  0.00    +0.000 A 
ATOM     10  C   LIG    1       -3.870   0.734  -1.256  0.00  0.00    +0.010 A 
ATOM     11  C   LIG    1       -2.557   0.419  -0.968  0.00  0.00    -0.080 A 
ATOM     12  C   LIG    1       -1.694   1.404  -0.506  0.00  0.00    +0.140 A 
BRANCH  11  13
ATOM     13  C   LIG    1       -2.060  -0.991  -1.154  0.00  0.00    +0.020 C 
ATOM     14  C   LIG    1       -2.224  -1.400  -2.619  0.00  0.00    +0.030 C 
ATOM     15  C   LIG    1       -2.870  -1.938  -0.267  0.00  0.00    +0.030 C 
ENDBRANCH  11  13
ENDBRANCH   2  12
ENDBRANCH   1   4
BRANCH   1  16
ATOM     16  N   LIG    1        2.955   2.469  -1.069  0.00  0.00    -0.510 NA
ATOM     17  C   LIG    1        2.938   2.199  -2.513  0.00  0.00    +0.210 C 
BRANCH  16  18
ATOM     18  C   LIG    1        4.323   2.401  -0.537  0.00  0.00    +0.220 C 
BRANCH  18  19
ATOM     19  C   LIG    1        5.146   3.520  -1.121  0.00  0.00    +0.510 C 
ATOM     20  N   LIG    1        6.441   3.657  -0.773  0.00  0.00    -0.680 N 
ATOM     21  H   LIG    1        6.860   2.999  -0.197  0.00  0.00    +0.410 HD
ATOM     22  O   LIG    1        4.643   4.298  -1.903  0.00  0.00    -0.490 OA
BRANCH  20  23
ATOM     23  C   LIG    1        7.181   4.748  -1.244  0.00  0.00    +0.140 A 
ATOM     24  C   LIG    1        8.536   4.606  -1.512  0.00  0.00    +0.020 A 
ATOM     25  C   LIG    1        9.263   5.682  -1.982  0.00  0.00    +0.010 A 
ATOM     26  C   LIG    1        8.644   6.906  -2.175  0.00  0.00    +0.080 A 
ATOM     27  C   LIG    1        7.294   7.051  -1.903  0.00  0.00    +0.010 A 
ATOM     28  F   LIG    1        9.358   7.959  -2.628  0.00  0.00    -0.140 F 
ATOM     29  C   LIG    1        6.562   5.976  -1.439  0.00  0.00    +0.060 A 
ENDBRANCH  20  23
ENDBRANCH  18  19
ENDBRANCH  16  18
ENDBRANCH   1  16
TORSDOF 7
