REMARK  Name = ZINCvU00000004A4.0
REMARK                            x       y       z     vdW  Elec       q    Type
REMARK                         _______ _______ _______ _____ _____    ______ ____
ROOT
ATOM      1  C   LIG    1       -0.615   4.566   1.139  0.00  0.00    -0.000 A 
ATOM      2  N   LIG    1       -0.136   5.360   0.233  0.00  0.00    -0.260 NA
ATOM      3  N   LIG    1       -0.321   6.706   0.463  0.00  0.00    -0.340 NA
ATOM      4  C   LIG    1       -0.943   7.007   1.559  0.00  0.00    +0.300 A 
ATOM      5  S   LIG    1       -1.361   5.525   2.413  0.00  0.00    +0.110 S 
ENDROOT
BRANCH   4   6
ATOM      6  N   LIG    1       -1.233   8.295   1.993  0.00  0.00    -0.620 N 
ATOM      7  H   LIG    1       -1.644   8.434   2.861  0.00  0.00    +0.430 HD
BRANCH   6   8
ATOM      8  C   LIG    1       -0.933   9.392   1.177  0.00  0.00    +0.140 A 
ATOM      9  C   LIG    1        0.193   9.367   0.365  0.00  0.00    +0.070 A 
ATOM     10  C   LIG    1        0.486  10.448  -0.442  0.00  0.00    -0.020 A 
ATOM     11  C   LIG    1       -0.339  11.563  -0.435  0.00  0.00    +0.090 A 
ATOM     12  C   LIG    1       -1.461  11.591   0.379  0.00  0.00    +0.050 A 
ATOM     13  C   LIG    1       -1.759  10.509   1.184  0.00  0.00    +0.030 A 
BRANCH  11  14
ATOM     14  O   LIG    1       -0.046  12.630  -1.227  0.00  0.00    -0.310 OA
BRANCH  14  15
ATOM     15  C   LIG    1        1.125  12.533  -2.039  0.00  0.00    +0.600 C 
ATOM     16  F   LIG    1        2.246  12.353  -1.222  0.00  0.00    -0.160 F 
ATOM     17  F   LIG    1        1.274  13.707  -2.784  0.00  0.00    -0.130 F 
ATOM     18  F   LIG    1        1.001  11.443  -2.908  0.00  0.00    -0.160 F 
ENDBRANCH  14  15
ENDBRANCH  11  14
ENDBRANCH   6   8
ENDBRANCH   4   6
BRANCH   1  19
ATOM     19  S   LIG    1       -0.528   2.806   1.103  0.00  0.00    +0.110 S 
BRANCH  19  20
ATOM     20  C   LIG    1        0.349   2.472  -0.449  0.00  0.00    +0.100 C 
BRANCH  20  23
ATOM     21  N   LIG    1        1.131   0.498  -1.718  0.00  0.00    -0.670 N 
ATOM     22  H   LIG    1        1.426   1.102  -2.417  0.00  0.00    +0.420 HD
ATOM     23  C   LIG    1        0.505   0.984  -0.627  0.00  0.00    +0.530 C 
ATOM     24  O   LIG    1        0.069   0.224   0.210  0.00  0.00    -0.500 OA
BRANCH  21  29
ATOM     25  C   LIG    1        0.647  -3.151  -1.482  0.00  0.00    -0.150 A 
ATOM     26  C   LIG    1        1.817  -3.606  -2.099  0.00  0.00    +0.060 A 
ATOM     27  C   LIG    1        2.740  -2.700  -2.579  0.00  0.00    +0.030 A 
ATOM     28  C   LIG    1        2.511  -1.342  -2.458  0.00  0.00    +0.020 A 
ATOM     29  C   LIG    1        1.354  -0.878  -1.842  0.00  0.00    +0.130 A 
ATOM     30  C   LIG    1        0.419  -1.777  -1.356  0.00  0.00    +0.090 A 
BRANCH  25  32
ATOM     31  C   LIG    1       -0.091  -5.594  -1.106  0.00  0.00    +0.070 C 
ATOM     32  C   LIG    1       -0.340  -4.114  -0.968  0.00  0.00    +0.390 C 
ATOM     33  O   LIG    1       -1.353  -3.717  -0.434  0.00  0.00    -0.450 OA
ENDBRANCH  25  32
ENDBRANCH  21  29
ENDBRANCH  20  23
ENDBRANCH  19  20
ENDBRANCH   1  19
TORSDOF 9
