REMARK  Name = ZINCnE000001TxeJ.1
REMARK                            x       y       z     vdW  Elec       q    Type
REMARK                         _______ _______ _______ _____ _____    ______ ____
ROOT
ATOM      1  C   LIG    1       -0.018   1.503   0.010  0.00  0.00    +0.230 C 
ATOM      2  C   LIG    1       -0.690   2.011   1.303  0.00  0.00    +0.050 C 
ATOM      3  C   LIG    1        0.519   2.320   2.225  0.00  0.00    +0.020 C 
ATOM      4  C   LIG    1        1.561   2.845   1.206  0.00  0.00    +0.230 C 
ATOM      5  N   LIG    1        1.357   2.022   0.000  0.00  0.00    -0.610 N 
ATOM      6  C   LIG    1        2.279   1.785  -0.954  0.00  0.00    +0.530 C 
ATOM      7  O   LIG    1        1.999   1.089  -1.908  0.00  0.00    -0.520 OA
ENDROOT
BRANCH   1   9
ATOM      8  O   LIG    1        1.060  -0.596  -0.011  0.00  0.00    -0.580 OA
ATOM      9  C   LIG    1        0.002  -0.004   0.002  0.00  0.00    +0.450 C 
ATOM     10  N   LIG    1       -1.156  -0.694   0.009  0.00  0.00    -0.670 NA
BRANCH  10  11
ATOM     11  C   LIG    1       -1.137  -2.084   0.002  0.00  0.00    +0.350 A 
ATOM     12  N   LIG    1       -2.189  -2.841   0.008  0.00  0.00    -0.570 NA
ATOM     13  C   LIG    1       -1.987  -4.145  -0.001  0.00  0.00    +0.210 A 
ATOM     14  C   LIG    1       -0.703  -4.507  -0.015  0.00  0.00    -0.250 A 
ATOM     15  S   LIG    1        0.278  -3.044  -0.024  0.00  0.00    +0.020 S 
ENDBRANCH  10  11
ENDBRANCH   1   9
BRANCH   6  16
ATOM     16  C   LIG    1        3.657   2.383  -0.837  0.00  0.00    +0.050 C 
BRANCH  16  17
ATOM     17  C   LIG    1        4.501   1.962  -2.041  0.00  0.00    +0.040 C 
BRANCH  17  18
ATOM     18  C   LIG    1        5.900   2.570  -1.921  0.00  0.00    -0.020 C 
ATOM     19  C   LIG    1        5.802   4.095  -2.008  0.00  0.00    +0.000 C 
ATOM     20  C   LIG    1        7.201   4.703  -1.889  0.00  0.00    +0.000 C 
ATOM     21  C   LIG    1        8.083   4.182  -3.026  0.00  0.00    +0.000 C 
ATOM     22  C   LIG    1        8.180   2.658  -2.939  0.00  0.00    +0.000 C 
ATOM     23  C   LIG    1        6.781   2.050  -3.059  0.00  0.00    +0.000 C 
ENDBRANCH  17  18
ENDBRANCH  16  17
ENDBRANCH   6  16
TORSDOF 5
