REMARK  Name = ZINCrD00000l8hNe.0
REMARK                            x       y       z     vdW  Elec       q    Type
REMARK                         _______ _______ _______ _____ _____    ______ ____
ROOT
ATOM      1  N   LIG    1       -0.080   3.837  -0.008  0.00  0.00    -0.480 N 
ATOM      2  C   LIG    1       -1.234   3.127  -0.032  0.00  0.00    +0.340 A 
ATOM      3  C   LIG    1       -1.225   1.770  -0.061  0.00  0.00    -0.080 A 
ATOM      4  C   LIG    1       -0.014   1.077  -0.057  0.00  0.00    +0.220 A 
ATOM      5  C   LIG    1        1.177   1.801  -0.033  0.00  0.00    -0.280 A 
ATOM      6  C   LIG    1        1.116   3.218  -0.009  0.00  0.00    +0.540 A 
ATOM      7  O   LIG    1        2.143   3.874   0.012  0.00  0.00    -0.550 OA
ENDROOT
BRANCH   5   8
ATOM      8  C   LIG    1        2.473   1.107  -0.033  0.00  0.00    +0.580 C 
ATOM      9  N   LIG    1        3.616   1.815  -0.123  0.00  0.00    -0.660 N 
ATOM     10  H   LIG    1        3.589   2.785  -0.105  0.00  0.00    +0.420 HD
ATOM     11  O   LIG    1        2.514  -0.106   0.048  0.00  0.00    -0.520 OA
BRANCH   9  12
ATOM     12  C   LIG    1        4.838   1.155  -0.243  0.00  0.00    +0.220 A 
ATOM     13  C   LIG    1        4.929  -0.021  -0.931  0.00  0.00    -0.040 A 
ATOM     14  C   LIG    1        6.141  -0.696  -1.066  0.00  0.00    +0.080 A 
ATOM     15  C   LIG    1        7.295  -0.239  -0.522  0.00  0.00    +0.000 A 
ATOM     16  C   LIG    1        7.306   0.966   0.214  0.00  0.00    +0.120 A 
ATOM     17  N   LIG    1        8.233   1.659   0.850  0.00  0.00    -0.300 NA
ATOM     18  N   LIG    1        7.643   2.800   1.408  0.00  0.00    -0.430 N 
ATOM     19  H   LIG    1        8.113   3.472   1.926  0.00  0.00    +0.440 HD
ATOM     20  C   LIG    1        6.335   2.825   1.121  0.00  0.00    +0.280 A 
ATOM     21  C   LIG    1        6.043   1.704   0.371  0.00  0.00    -0.220 A 
ENDBRANCH   9  12
ENDBRANCH   5   8
BRANCH   1  22
ATOM     22  C   LIG    1       -0.135   5.300   0.017  0.00  0.00    +0.350 C 
BRANCH  22  28
ATOM     23  C   LIG    1        2.348   6.909  -4.020  0.00  0.00    +0.090 C 
ATOM     24  C   LIG    1        1.047   6.597  -3.326  0.00  0.00    -0.090 A 
ATOM     25  C   LIG    1       -0.152   6.794  -3.986  0.00  0.00    +0.010 A 
ATOM     26  C   LIG    1       -1.346   6.507  -3.349  0.00  0.00    +0.010 A 
ATOM     27  C   LIG    1       -1.340   6.024  -2.054  0.00  0.00    +0.010 A 
ATOM     28  C   LIG    1       -0.141   5.827  -1.395  0.00  0.00    -0.120 A 
ATOM     29  C   LIG    1        1.052   6.118  -2.029  0.00  0.00    +0.040 A 
ENDBRANCH  22  28
ENDBRANCH   1  22
TORSDOF 4
