REMARK  Name = ZINCtV000002Izva.0
REMARK                            x       y       z     vdW  Elec       q    Type
REMARK                         _______ _______ _______ _____ _____    ______ ____
ROOT
ATOM      1  C   LIG    1        3.035  -3.072   1.231  0.00  0.00    +0.210 C 
ENDROOT
BRANCH   1   2
ATOM      2  C   LIG    1        4.336  -3.803   1.017  0.00  0.00    +0.430 C 
ATOM      3  O   LIG    1        4.730  -4.024  -0.109  0.00  0.00    -0.440 OA
BRANCH   2   7
ATOM      4  C   LIG    1        5.897  -4.681   5.787  0.00  0.00    +0.140 C 
ATOM      5  C   LIG    1        5.800  -4.626   4.285  0.00  0.00    +0.020 A 
ATOM      6  C   LIG    1        4.797  -4.063   3.589  0.00  0.00    +0.000 A 
ATOM      7  C   LIG    1        5.125  -4.246   2.169  0.00  0.00    -0.250 A 
ATOM      8  C   LIG    1        6.327  -4.927   2.143  0.00  0.00    +0.120 A 
ATOM      9  C   LIG    1        7.074  -5.355   0.906  0.00  0.00    +0.150 C 
ATOM     10  N   LIG    1        6.716  -5.139   3.413  0.00  0.00    -0.440 N 
BRANCH  10  11
ATOM     11  C   LIG    1        7.947  -5.830   3.805  0.00  0.00    +0.340 C 
BRANCH  11  12
ATOM     12  C   LIG    1        7.670  -7.328   3.941  0.00  0.00    +0.440 C 
ATOM     13  F   LIG    1        6.689  -7.535   4.917  0.00  0.00    -0.170 F 
ATOM     14  F   LIG    1        8.846  -7.988   4.316  0.00  0.00    -0.170 F 
ATOM     15  F   LIG    1        7.223  -7.833   2.716  0.00  0.00    -0.170 F 
ENDBRANCH  11  12
ENDBRANCH  10  11
ENDBRANCH   2   7
ENDBRANCH   1   2
BRANCH   1  16
ATOM     16  O   LIG    1        2.458  -2.748  -0.036  0.00  0.00    -0.290 OA
BRANCH  16  17
ATOM     17  C   LIG    1        1.273  -2.083  -0.021  0.00  0.00    +0.140 A 
ATOM     18  C   LIG    1        1.251  -0.673  -0.013  0.00  0.00    +0.140 A 
ATOM     19  N   LIG    1        2.385   0.034  -0.020  0.00  0.00    -0.460 NA
ATOM     20  C   LIG    1        2.371   1.345  -0.013  0.00  0.00    +0.170 A 
ATOM     21  C   LIG    1        1.178   2.064   0.002  0.00  0.00    -0.010 A 
ATOM     22  C   LIG    1       -0.017   1.403   0.010  0.00  0.00    +0.100 A 
ATOM     23  C   LIG    1        3.679   2.092  -0.021  0.00  0.00    +0.140 C 
ATOM     24  C   LIG    1        0.002  -0.004   0.002  0.00  0.00    -0.090 A 
ATOM     25  C   LIG    1       -1.188  -0.750   0.010  0.00  0.00    -0.010 A 
ATOM     26  C   LIG    1       -1.135  -2.112   0.002  0.00  0.00    +0.070 A 
ATOM     27 CL   LIG    1       -2.723   0.061   0.030  0.00  0.00    -0.040 Cl
ATOM     28  C   LIG    1        0.086  -2.781  -0.014  0.00  0.00    -0.040 A 
ATOM     29 CL   LIG    1        0.113  -4.516  -0.024  0.00  0.00    -0.030 Cl
ENDBRANCH  16  17
ENDBRANCH   1  16
TORSDOF 6
