REMARK  Name = ZINCvU00000005NF.0
REMARK                            x       y       z     vdW  Elec       q    Type
REMARK                         _______ _______ _______ _____ _____    ______ ____
ROOT
ATOM      1  C   LIG    1       -2.210  -1.262  -3.474  0.00  0.00    +0.530 C 
ATOM      2  N   LIG    1       -1.485  -0.848  -2.416  0.00  0.00    -0.620 N 
ATOM      3  H   LIG    1       -0.661  -0.355  -2.556  0.00  0.00    +0.420 HD
ATOM      4  O   LIG    1       -3.240  -1.879  -3.299  0.00  0.00    -0.480 OA
ENDROOT
BRANCH   2   5
ATOM      5  C   LIG    1       -1.916  -1.127  -1.129  0.00  0.00    +0.040 A 
ATOM      6  C   LIG    1       -1.256  -0.753   0.010  0.00  0.00    -0.180 A 
ATOM      7  C   LIG    1       -1.930  -1.168   1.227  0.00  0.00    -0.040 A 
ATOM      8  C   LIG    1       -3.061  -1.839   0.981  0.00  0.00    -0.240 A 
ATOM      9  C   LIG    1       -3.976  -2.395   2.055  0.00  0.00    +0.120 C 
ATOM     10  C   LIG    1       -3.636  -1.724   3.388  0.00  0.00    -0.010 C 
ATOM     11  C   LIG    1       -2.124  -1.805   3.617  0.00  0.00    +0.030 C 
ATOM     12  C   LIG    1       -4.367  -2.442   4.524  0.00  0.00    +0.030 C 
ATOM     13  C   LIG    1       -1.415  -0.877   2.628  0.00  0.00    +0.100 C 
ATOM     14  S   LIG    1       -3.337  -1.983  -0.747  0.00  0.00    +0.310 S 
BRANCH   6  15
ATOM     15  C   LIG    1        0.002  -0.004   0.002  0.00  0.00    +0.540 C 
ATOM     16  O   LIG    1        1.064  -0.598  -0.011  0.00  0.00    -0.490 OA
BRANCH  15  17
ATOM     17  O   LIG    1       -0.016   1.345   0.009  0.00  0.00    -0.340 OA
BRANCH  17  18
ATOM     18  C   LIG    1        1.268   2.021   0.001  0.00  0.00    +0.170 C 
ATOM     19  C   LIG    1        1.733   2.251   1.440  0.00  0.00    +0.040 C 
ATOM     20  C   LIG    1        1.131   3.368  -0.712  0.00  0.00    +0.060 C 
ENDBRANCH  17  18
ENDBRANCH  15  17
ENDBRANCH   6  15
ENDBRANCH   2   5
BRANCH   1  21
ATOM     21  C   LIG    1       -1.742  -0.960  -4.874  0.00  0.00    +0.140 C 
BRANCH  21  22
ATOM     22  S   LIG    1       -2.921  -1.642  -6.065  0.00  0.00    +0.090 S 
BRANCH  22  30
ATOM     23  C   LIG    1        1.512   1.098 -11.693  0.00  0.00    +0.100 C 
ATOM     24  C   LIG    1        0.371   0.405 -10.994  0.00  0.00    -0.090 A 
ATOM     25  C   LIG    1       -0.638  -0.183 -11.741  0.00  0.00    +0.030 A 
ATOM     26  C   LIG    1       -1.690  -0.821 -11.116  0.00  0.00    +0.020 A 
ATOM     27  C   LIG    1       -1.740  -0.875  -9.732  0.00  0.00    +0.050 A 
ATOM     28  N   LIG    1       -2.631  -1.422  -8.823  0.00  0.00    -0.580 N 
ATOM     29  H   LIG    1       -3.446  -1.903  -9.035  0.00  0.00    +0.430 HD
ATOM     30  C   LIG    1       -2.149  -1.156  -7.573  0.00  0.00    +0.250 A 
ATOM     31  N   LIG    1       -1.029  -0.481  -7.662  0.00  0.00    -0.490 NA
ATOM     32  C   LIG    1       -0.720  -0.281  -8.970  0.00  0.00    +0.060 A 
ATOM     33  C   LIG    1        0.338   0.361  -9.618  0.00  0.00    +0.060 A 
ENDBRANCH  22  30
ENDBRANCH  21  22
ENDBRANCH   1  21
TORSDOF 7
