REMARK  Name = ZINCqH0000001AL1.0
REMARK                            x       y       z     vdW  Elec       q    Type
REMARK                         _______ _______ _______ _____ _____    ______ ____
ROOT
ATOM      1  N   LIG    1        1.137   2.064   0.006  0.00  0.00    -0.740 N 
ATOM      2  H   LIG    1        1.104   3.033   0.002  0.00  0.00    +0.390 HD
ATOM      3  C   LIG    1       -0.006   1.350   0.018  0.00  0.00    +0.710 C 
ATOM      4  N   LIG    1       -1.196   1.983   0.021  0.00  0.00    -0.750 N 
ATOM      5  H   LIG    1       -1.229   2.953   0.017  0.00  0.00    +0.400 HD
ATOM      6  O   LIG    1        0.036   0.135   0.023  0.00  0.00    -0.580 OA
ENDROOT
BRANCH   1   7
ATOM      7  C   LIG    1        2.430   1.376  -0.003  0.00  0.00    +0.310 C 
BRANCH   7   8
ATOM      8  C   LIG    1        3.474   2.274  -0.616  0.00  0.00    -0.100 A 
ATOM      9  C   LIG    1        3.473   3.627  -0.333  0.00  0.00    +0.040 A 
ATOM     10  C   LIG    1        4.432   4.451  -0.891  0.00  0.00    -0.010 A 
ATOM     11  C   LIG    1        5.387   3.922  -1.742  0.00  0.00    +0.100 A 
ATOM     12  C   LIG    1        5.384   2.568  -2.029  0.00  0.00    -0.010 A 
ATOM     13  F   LIG    1        6.322   4.728  -2.292  0.00  0.00    -0.140 F 
ATOM     14  C   LIG    1        4.427   1.745  -1.466  0.00  0.00    +0.060 A 
ENDBRANCH   7   8
BRANCH   7  16
ATOM     15  C   LIG    1        1.775   0.119   2.055  0.00  0.00    +0.020 C 
ATOM     16  C   LIG    1        2.834   1.031   1.432  0.00  0.00    -0.030 C 
ATOM     17  C   LIG    1        4.185   0.313   1.424  0.00  0.00    +0.030 C 
ENDBRANCH   7  16
ENDBRANCH   1   7
BRANCH   4  18
ATOM     18  C   LIG    1       -2.438   1.207   0.029  0.00  0.00    +0.290 C 
BRANCH  18  19
ATOM     19  C   LIG    1       -3.635   2.161   0.029  0.00  0.00    -0.010 C 
ATOM     20  C   LIG    1       -3.698   2.959   1.352  0.00  0.00    +0.030 C 
ATOM     21  C   LIG    1       -5.194   3.026   1.710  0.00  0.00    +0.180 C 
ATOM     22  N   LIG    1       -5.930   2.332   0.632  0.00  0.00    -0.510 NA
ATOM     23  C   LIG    1       -4.967   1.369   0.039  0.00  0.00    +0.190 C 
BRANCH  22  24
ATOM     24  C   LIG    1       -7.110   1.636   1.163  0.00  0.00    +0.200 C 
BRANCH  24  25
ATOM     25  C   LIG    1       -7.791   0.855   0.038  0.00  0.00    +0.460 C 
ATOM     26  F   LIG    1       -8.063   1.716  -1.030  0.00  0.00    -0.170 F 
ATOM     27  F   LIG    1       -8.988   0.305   0.510  0.00  0.00    -0.180 F 
ATOM     28  F   LIG    1       -6.945  -0.172  -0.395  0.00  0.00    -0.180 F 
ENDBRANCH  24  25
ENDBRANCH  22  24
ENDBRANCH  18  19
ENDBRANCH   4  18
TORSDOF 7
