REMARK  Name = ZINCpk00000xJjkj.0
REMARK                            x       y       z     vdW  Elec       q    Type
REMARK                         _______ _______ _______ _____ _____    ______ ____
ROOT
ATOM      1  N   LIG    1       -1.218   3.495   0.033  0.00  0.00    -0.560 N 
ATOM      2  C   LIG    1       -0.041   4.139   0.026  0.00  0.00    +0.710 A 
ATOM      3  N   LIG    1        1.140   3.497   0.010  0.00  0.00    -0.640 N 
ATOM      4  H   LIG    1        1.965   4.008   0.005  0.00  0.00    +0.440 HD
ATOM      5  C   LIG    1        1.191   2.110   0.002  0.00  0.00    +0.230 A 
ATOM      6  C   LIG    1        2.396   1.429  -0.013  0.00  0.00    -0.050 A 
ATOM      7  C   LIG    1        2.403   0.045  -0.021  0.00  0.00    +0.180 A 
ATOM      8  C   LIG    1        1.210  -0.667  -0.013  0.00  0.00    -0.040 A 
ATOM      9  C   LIG    1        0.002  -0.004   0.002  0.00  0.00    +0.180 A 
ATOM     10  F   LIG    1        3.579  -0.619  -0.035  0.00  0.00    -0.120 F 
ATOM     11  C   LIG    1       -0.017   1.389   0.010  0.00  0.00    -0.210 A 
ATOM     12  O   LIG    1       -0.042   5.355   0.033  0.00  0.00    -0.530 OA
ATOM     13  C   LIG    1       -1.280   2.146   0.032  0.00  0.00    +0.560 A 
ATOM     14  O   LIG    1       -2.352   1.571   0.044  0.00  0.00    -0.470 OA
ENDROOT
BRANCH   1  15
ATOM     15  C   LIG    1       -2.461   4.271   0.049  0.00  0.00    +0.340 C 
BRANCH  15  17
ATOM     16  C   LIG    1       -1.812   5.309  -2.140  0.00  0.00    +0.080 C 
ATOM     17  C   LIG    1       -2.907   4.549  -1.388  0.00  0.00    +0.190 C 
ATOM     18  N   LIG    1       -3.210   3.289  -2.075  0.00  0.00    -0.710 N 
ATOM     19  H   LIG    1       -2.582   2.566  -2.232  0.00  0.00    +0.420 HD
ATOM     20  C   LIG    1       -4.500   3.301  -2.451  0.00  0.00    +0.570 C 
ATOM     21  C   LIG    1       -5.141   4.565  -2.041  0.00  0.00    -0.150 A 
ATOM     22  C   LIG    1       -6.439   5.054  -2.194  0.00  0.00    +0.080 A 
ATOM     23  C   LIG    1       -6.766   6.301  -1.701  0.00  0.00    +0.020 A 
ATOM     24  C   LIG    1       -5.813   7.068  -1.055  0.00  0.00    +0.050 A 
ATOM     25  C   LIG    1       -4.522   6.589  -0.899  0.00  0.00    +0.030 A 
ATOM     26  O   LIG    1       -5.059   2.399  -3.044  0.00  0.00    -0.520 OA
ATOM     27  C   LIG    1       -4.186   5.348  -1.388  0.00  0.00    -0.070 A 
ENDBRANCH  15  17
ENDBRANCH   1  15
TORSDOF 2
