REMARK  Name = ZINCpe000000SWsY.0
REMARK                            x       y       z     vdW  Elec       q    Type
REMARK                         _______ _______ _______ _____ _____    ______ ____
ROOT
ATOM      1  C   LIG    1        4.450  -0.663  -2.654  0.00  0.00    +0.140 C 
ATOM      2  C   LIG    1        5.627  -1.642  -2.671  0.00  0.00    +0.050 C 
ATOM      3  C   LIG    1        5.985  -1.987  -4.119  0.00  0.00    +0.030 C 
ATOM      4  C   LIG    1        6.407  -0.711  -4.854  0.00  0.00    +0.270 C 
ATOM      5  N   LIG    1        5.338   0.289  -4.718  0.00  0.00    -0.590 N 
ATOM      6  C   LIG    1        4.811   0.883  -5.807  0.00  0.00    +0.660 C 
ATOM      7  O   LIG    1        3.928   1.708  -5.681  0.00  0.00    -0.560 OA
ATOM      8  C   LIG    1        4.855   0.628  -3.372  0.00  0.00    +0.290 C 
ENDROOT
BRANCH   1   9
ATOM      9  O   LIG    1        3.332  -1.251  -3.321  0.00  0.00    -0.550 OA
ATOM     10  H   LIG    1        2.548  -0.685  -3.349  0.00  0.00    +0.390 HD
ENDBRANCH   1   9
BRANCH   1  11
ATOM     11  C   LIG    1        4.072  -0.345  -1.206  0.00  0.00    +0.050 C 
BRANCH  11  13
ATOM     12  N   LIG    1        2.407   1.043  -0.015  0.00  0.00    -0.590 N 
ATOM     13  C   LIG    1        2.913   0.618  -1.190  0.00  0.00    +0.520 C 
ATOM     14  O   LIG    1        2.437   1.012  -2.233  0.00  0.00    -0.530 OA
BRANCH  12  16
ATOM     15  C   LIG    1        3.504   1.760   2.049  0.00  0.00    +0.020 C 
ATOM     16  C   LIG    1        2.982   0.568   1.245  0.00  0.00    +0.230 C 
ATOM     17  C   LIG    1        1.907  -0.161   2.054  0.00  0.00    +0.030 C 
ENDBRANCH  12  16
BRANCH  12  18
ATOM     18  C   LIG    1        1.280   1.980   0.001  0.00  0.00    +0.320 C 
BRANCH  18  19
ATOM     19  C   LIG    1       -0.014   1.209   0.009  0.00  0.00    +0.500 C 
ATOM     20  O   LIG    1        0.002  -0.004   0.002  0.00  0.00    -0.530 OA
ATOM     21  N   LIG    1       -1.191   1.867   0.018  0.00  0.00    -0.860 N 
ATOM     22  H   LIG    1       -1.204   2.837   0.023  0.00  0.00    +0.400 HD
ATOM     23  H   LIG    1       -2.024   1.370   0.019  0.00  0.00    +0.400 HD
ENDBRANCH  18  19
ENDBRANCH  12  18
ENDBRANCH  11  13
ENDBRANCH   1  11
BRANCH   6  24
ATOM     24  O   LIG    1        5.264   0.563  -7.034  0.00  0.00    -0.360 OA
BRANCH  24  25
ATOM     25  C   LIG    1        4.651   1.243  -8.161  0.00  0.00    +0.140 C 
ATOM     26  C   LIG    1        3.151   0.941  -8.184  0.00  0.00    +0.040 C 
ATOM     27  C   LIG    1        5.290   0.753  -9.461  0.00  0.00    +0.080 C 
ATOM     28  C   LIG    1        4.865   2.752  -8.024  0.00  0.00    +0.040 C 
ENDBRANCH  24  25
ENDBRANCH   6  24
TORSDOF 8
