REMARK  Name = ZINCqH0000034nn3.0
REMARK                            x       y       z     vdW  Elec       q    Type
REMARK                         _______ _______ _______ _____ _____    ______ ____
ROOT
ATOM      1  C   LIG    1       -3.318   5.333   1.157  0.00  0.00    +0.590 C 
ATOM      2  N   LIG    1       -4.551   5.339   0.611  0.00  0.00    -0.610 N 
ATOM      3  C   LIG    1       -5.438   4.173   0.736  0.00  0.00    +0.270 C 
ATOM      4  C   LIG    1       -5.953   3.795  -0.652  0.00  0.00    +0.170 C 
ATOM      5  N   LIG    1       -6.561   4.973  -1.284  0.00  0.00    -0.540 NA
ATOM      6  C   LIG    1       -5.570   6.038  -1.491  0.00  0.00    +0.180 C 
ATOM      7  C   LIG    1       -7.217   4.613  -2.548  0.00  0.00    +0.190 C 
ATOM      8  C   LIG    1       -5.042   6.510  -0.132  0.00  0.00    +0.280 C 
ATOM      9  O   LIG    1       -2.637   6.341   1.133  0.00  0.00    -0.500 OA
ENDROOT
BRANCH   1  12
ATOM     10  N   LIG    1       -2.699   2.155   2.837  0.00  0.00    -0.470 N 
ATOM     11  C   LIG    1       -3.527   3.122   2.375  0.00  0.00    +0.280 A 
ATOM     12  C   LIG    1       -2.798   4.109   1.781  0.00  0.00    -0.220 A 
ATOM     13  C   LIG    1       -1.383   3.708   1.891  0.00  0.00    -0.060 A 
ATOM     14  C   LIG    1       -0.181   4.281   1.486  0.00  0.00    +0.070 A 
ATOM     15  C   LIG    1        1.006   3.632   1.747  0.00  0.00    -0.010 A 
ATOM     16  C   LIG    1        1.006   2.413   2.409  0.00  0.00    +0.030 A 
ATOM     17  C   LIG    1       -0.176   1.834   2.816  0.00  0.00    -0.010 A 
ATOM     18  C   LIG    1       -1.385   2.472   2.557  0.00  0.00    +0.090 A 
BRANCH  10  20
ATOM     19  C   LIG    1       -3.072   1.165   5.042  0.00  0.00    +0.030 C 
ATOM     20  C   LIG    1       -3.136   0.941   3.530  0.00  0.00    +0.280 C 
ENDBRANCH  10  20
ENDBRANCH   1  12
BRANCH   8  21
ATOM     21  C   LIG    1       -3.913   7.487  -0.339  0.00  0.00    -0.050 A 
ATOM     22  C   LIG    1       -2.912   7.205  -1.249  0.00  0.00    +0.010 A 
ATOM     23  C   LIG    1       -1.880   8.103  -1.442  0.00  0.00    +0.000 A 
ATOM     24  C   LIG    1       -1.844   9.281  -0.719  0.00  0.00    +0.000 A 
ATOM     25  C   LIG    1       -2.842   9.561   0.195  0.00  0.00    +0.010 A 
ATOM     26  C   LIG    1       -3.877   8.665   0.385  0.00  0.00    +0.010 A 
ENDBRANCH   8  21
TORSDOF 3
