REMARK  Name = ZINCrD00000hQ5gS.0
REMARK                            x       y       z     vdW  Elec       q    Type
REMARK                         _______ _______ _______ _____ _____    ______ ____
ROOT
ATOM      1  N   LIG    1        0.741   5.422  -0.199  0.00  0.00    -1.100 NA
ATOM      2  H   LIG    1        0.603   5.820   0.675  0.00  0.00    +0.430 HD
ENDROOT
BRANCH   1   7
ATOM      3  C   LIG    1        1.276  -0.429  -0.011  0.00  0.00    +0.020 A 
ATOM      4  C   LIG    1        2.078   0.655  -0.012  0.00  0.00    +0.120 A 
ATOM      5  N   LIG    1        1.262   1.747  -0.001  0.00  0.00    -0.450 N 
ATOM      6  C   LIG    1        1.651   3.159   0.000  0.00  0.00    +0.290 C 
ATOM      7  C   LIG    1        0.442   4.005  -0.414  0.00  0.00    +0.240 C 
ATOM      8  C   LIG    1       -0.773   3.606   0.429  0.00  0.00    +0.040 C 
ATOM      9  C   LIG    1       -1.228   2.197   0.031  0.00  0.00    +0.160 C 
ATOM     10  C   LIG    1       -0.016   1.297   0.009  0.00  0.00    +0.200 A 
ATOM     11  N   LIG    1        0.002  -0.004   0.002  0.00  0.00    -0.470 NA
BRANCH   3  13
ATOM     12  C   LIG    1        2.251  -2.247   1.366  0.00  0.00    +0.030 C 
ATOM     13  C   LIG    1        1.730  -1.866  -0.022  0.00  0.00    +0.020 C 
ATOM     14  C   LIG    1        2.848  -2.040  -1.052  0.00  0.00    +0.030 C 
ATOM     15  C   LIG    1        0.552  -2.770  -0.390  0.00  0.00    +0.030 C 
ENDBRANCH   3  13
ENDBRANCH   1   7
BRANCH   1  16
ATOM     16  S   LIG    1        1.315   6.346  -1.447  0.00  0.00    +2.720 S 
ATOM     17  O   LIG    1        2.380   5.610  -2.035  0.00  0.00    -0.920 OA
ATOM     18  O   LIG    1        1.471   7.662  -0.935  0.00  0.00    -0.920 OA
BRANCH  16  19
ATOM     19  C   LIG    1        0.041   6.432  -2.661  0.00  0.00    -0.530 A 
ATOM     20  C   LIG    1       -0.916   7.369  -2.703  0.00  0.00    +0.120 A 
ATOM     21  C   LIG    1       -1.747   7.053  -3.871  0.00  0.00    -0.130 A 
ATOM     22  C   LIG    1       -2.875   7.633  -4.450  0.00  0.00    +0.060 A 
ATOM     23  C   LIG    1       -3.430   7.065  -5.577  0.00  0.00    +0.080 A 
ATOM     24  C   LIG    1       -2.870   5.922  -6.133  0.00  0.00    +0.060 A 
ATOM     25  C   LIG    1       -1.755   5.340  -5.569  0.00  0.00    +0.070 A 
ATOM     26  F   LIG    1       -4.523   7.622  -6.143  0.00  0.00    -0.130 F 
ATOM     27  C   LIG    1       -1.180   5.897  -4.434  0.00  0.00    +0.070 A 
ATOM     28  O   LIG    1       -0.115   5.564  -3.676  0.00  0.00    -0.140 OA
ENDBRANCH  16  19
ENDBRANCH   1  16
TORSDOF 4
