REMARK  Name = ZINCrg00000xBn1N.0
REMARK                            x       y       z     vdW  Elec       q    Type
REMARK                         _______ _______ _______ _____ _____    ______ ____
ROOT
ATOM      1  C   LIG    1       -4.874   1.200  -0.578  0.00  0.00    +0.240 C 
ATOM      2  C   LIG    1       -5.241   0.823   0.859  0.00  0.00    +0.000 C 
ATOM      3  C   LIG    1       -4.131  -0.043   1.458  0.00  0.00    +0.020 C 
ATOM      4  C   LIG    1       -2.816   0.740   1.456  0.00  0.00    +0.010 C 
ATOM      5  C   LIG    1       -2.449   1.117   0.020  0.00  0.00    +0.240 C 
ATOM      6  C   LIG    1       -3.559   1.982  -0.580  0.00  0.00    +0.030 C 
ENDROOT
BRANCH   1   8
ATOM      7  C   LIG    1       -7.014   1.447  -1.717  0.00  0.00    +0.510 C 
ATOM      8  N   LIG    1       -5.937   2.028  -1.152  0.00  0.00    -0.730 N 
ATOM      9  H   LIG    1       -5.865   2.995  -1.126  0.00  0.00    +0.400 HD
ATOM     10  O   LIG    1       -7.103   0.238  -1.750  0.00  0.00    -0.520 OA
BRANCH   7  11
ATOM     11  C   LIG    1       -8.107   2.300  -2.307  0.00  0.00    +0.050 C 
BRANCH  11  13
ATOM     12  C   LIG    1       -9.780   0.510  -1.774  0.00  0.00    +0.030 C 
ATOM     13  C   LIG    1       -9.204   1.399  -2.879  0.00  0.00    -0.050 C 
ATOM     14  C   LIG    1       -8.632   0.526  -4.015  0.00  0.00    +0.030 C 
ATOM     15  C   LIG    1       -9.782   0.451  -5.051  0.00  0.00    +0.000 C 
ATOM     16  C   LIG    1      -10.387   1.875  -4.994  0.00  0.00    -0.010 C 
ATOM     17  C   LIG    1      -10.319   2.256  -3.501  0.00  0.00    +0.010 C 
ENDBRANCH  11  13
ENDBRANCH   7  11
ENDBRANCH   1   8
BRANCH   5  18
ATOM     18  N   LIG    1       -1.191   1.867   0.018  0.00  0.00    -0.720 N 
ATOM     19  H   LIG    1       -1.204   2.837   0.023  0.00  0.00    +0.400 HD
ATOM     20  C   LIG    1       -0.014   1.209   0.009  0.00  0.00    +0.490 C 
ATOM     21  O   LIG    1        0.002  -0.004   0.002  0.00  0.00    -0.520 OA
BRANCH  20  22
ATOM     22  C   LIG    1        1.280   1.980   0.001  0.00  0.00    +0.370 C 
BRANCH  22  23
ATOM     23  N   LIG    1        2.407   1.043  -0.015  0.00  0.00    -0.610 N 
ATOM     24  C   LIG    1        3.098   0.478   1.156  0.00  0.00    +0.320 C 
ATOM     25  C   LIG    1        4.162  -0.414   0.547  0.00  0.00    +0.530 C 
ATOM     26  N   LIG    1        4.015  -0.295  -0.788  0.00  0.00    -0.680 N 
ATOM     27  H   LIG    1        4.567  -0.756  -1.439  0.00  0.00    +0.430 HD
ATOM     28  O   LIG    1        4.977  -1.089   1.137  0.00  0.00    -0.470 OA
ATOM     29  C   LIG    1        3.014   0.535  -1.103  0.00  0.00    +0.710 C 
ATOM     30  O   LIG    1        2.691   0.801  -2.244  0.00  0.00    -0.540 OA
ENDBRANCH  22  23
ENDBRANCH  20  22
ENDBRANCH   5  18
TORSDOF 6
