REMARK  Name = ZINCpe000000T8GI.0
REMARK                            x       y       z     vdW  Elec       q    Type
REMARK                         _______ _______ _______ _____ _____    ______ ____
ROOT
ATOM      1  N   LIG    1        0.006  -0.004   0.004  0.00  0.00    -0.750 N 
ATOM      2  H   LIG    1       -0.397  -0.498   0.735  0.00  0.00    +0.390 HD
ATOM      3  C   LIG    1        0.585  -0.664  -1.018  0.00  0.00    +0.710 C 
ATOM      4  N   LIG    1        0.693  -2.007  -0.977  0.00  0.00    -0.630 N 
ATOM      5  C   LIG    1        0.089  -2.774   0.121  0.00  0.00    +0.260 C 
ATOM      6  C   LIG    1       -0.815  -3.861  -0.480  0.00  0.00    +0.020 C 
ATOM      7  C   LIG    1       -0.002  -4.706  -1.463  0.00  0.00    +0.040 C 
ATOM      8  C   LIG    1        0.507  -3.819  -2.602  0.00  0.00    -0.020 C 
ATOM      9  C   LIG    1        1.422  -2.732  -2.027  0.00  0.00    +0.290 C 
ATOM     10  O   LIG    1        1.010  -0.049  -1.977  0.00  0.00    -0.580 OA
ENDROOT
BRANCH   1  11
ATOM     11  C   LIG    1       -0.014   1.461   0.012  0.00  0.00    +0.280 C 
BRANCH  11  12
ATOM     12  C   LIG    1       -0.725   1.955   1.273  0.00  0.00    +0.170 C 
BRANCH  12  16
ATOM     13  C   LIG    1       -2.534   6.002   3.411  0.00  0.00    +0.060 C 
ATOM     14  C   LIG    1       -1.565   5.463   2.357  0.00  0.00    +0.110 C 
ATOM     15  C   LIG    1       -1.620   3.933   2.346  0.00  0.00    +0.160 C 
ATOM     16  N   LIG    1       -0.745   3.424   1.281  0.00  0.00    -0.530 NA
ATOM     17  C   LIG    1       -1.157   3.952  -0.028  0.00  0.00    +0.150 C 
ATOM     18  C   LIG    1       -1.106   5.482   0.006  0.00  0.00    +0.220 C 
ATOM     19  C   LIG    1       -0.143   5.921   2.688  0.00  0.00    +0.020 C 
ATOM     20  O   LIG    1       -1.938   5.957   1.067  0.00  0.00    -0.380 OA
ENDBRANCH  12  16
ENDBRANCH  11  12
ENDBRANCH   1  11
BRANCH   8  21
ATOM     21  C   LIG    1        1.292  -4.670  -3.601  0.00  0.00    +0.340 C 
BRANCH  21  22
ATOM     22  N   LIG    1        1.680  -3.845  -4.748  0.00  0.00    -0.290 N 
ATOM     23  C   LIG    1        2.940  -3.673  -5.211  0.00  0.00    +0.140 A 
ATOM     24  C   LIG    1        2.841  -2.843  -6.275  0.00  0.00    +0.140 A 
ATOM     25  N   LIG    1        1.543  -2.545  -6.404  0.00  0.00    -0.270 NA
ATOM     26  N   LIG    1        0.882  -3.154  -5.484  0.00  0.00    -0.080 NA
ENDBRANCH  21  22
ENDBRANCH   8  21
TORSDOF 5
