REMARK  Name = ZINCvU0000000Jme.0
REMARK                            x       y       z     vdW  Elec       q    Type
REMARK                         _______ _______ _______ _____ _____    ______ ____
ROOT
ATOM      1  C   LIG    1        1.697  -2.488  -1.293  0.00  0.00    +0.010 C 
ATOM      2  C   LIG    1        3.075  -2.981  -1.797  0.00  0.00    +0.050 C 
ATOM      3  C   LIG    1        3.389  -4.133  -0.808  0.00  0.00    +0.200 C 
ATOM      4  O   LIG    1        2.101  -4.744  -0.584  0.00  0.00    -0.360 OA
ATOM      5  C   LIG    1        1.141  -3.678  -0.488  0.00  0.00    +0.270 C 
ENDROOT
BRANCH   5   6
ATOM      6  C   LIG    1       -0.176  -4.120  -1.071  0.00  0.00    -0.230 A 
ATOM      7  C   LIG    1       -1.403  -3.735  -0.648  0.00  0.00    +0.250 A 
ATOM      8  N   LIG    1       -2.319  -4.350  -1.430  0.00  0.00    -0.320 N 
ATOM      9  N   LIG    1       -1.631  -5.144  -2.356  0.00  0.00    -0.270 NA
ATOM     10  C   LIG    1       -0.347  -5.007  -2.140  0.00  0.00    +0.270 A 
BRANCH   8  11
ATOM     11  C   LIG    1       -3.712  -4.219  -1.329  0.00  0.00    +0.130 A 
ATOM     12  C   LIG    1       -4.264  -3.398  -0.357  0.00  0.00    +0.020 A 
ATOM     13  C   LIG    1       -5.636  -3.266  -0.263  0.00  0.00    +0.040 A 
ATOM     14  C   LIG    1       -6.461  -3.961  -1.128  0.00  0.00    +0.040 A 
ATOM     15  C   LIG    1       -5.915  -4.785  -2.096  0.00  0.00    +0.020 A 
ATOM     16  C   LIG    1       -4.543  -4.916  -2.199  0.00  0.00    +0.100 A 
ATOM     17  F   LIG    1       -4.009  -5.721  -3.144  0.00  0.00    -0.110 F 
ENDBRANCH   8  11
ENDBRANCH   5   6
BRANCH   1  18
ATOM     18  C   LIG    1        1.861  -1.281  -0.405  0.00  0.00    +0.470 C 
ATOM     19  O   LIG    1        1.566  -1.347   0.765  0.00  0.00    -0.500 OA
BRANCH  18  20
ATOM     20  O   LIG    1        2.334  -0.133  -0.914  0.00  0.00    -0.340 OA
BRANCH  20  29
ATOM     21  C   LIG    1       -2.513   0.969   0.019  0.00  0.00    +0.090 C 
ATOM     22  C   LIG    1       -1.220   1.744   0.017  0.00  0.00    -0.090 A 
ATOM     23  C   LIG    1       -1.240   3.126   0.031  0.00  0.00    +0.010 A 
ATOM     24  C   LIG    1       -0.052   3.828   0.020  0.00  0.00    +0.010 A 
ATOM     25  C   LIG    1        1.164   3.158   0.002  0.00  0.00    -0.070 A 
ATOM     26  C   LIG    1        2.421   3.986  -0.023  0.00  0.00    +0.070 C 
ATOM     27  C   LIG    1        3.626   3.147   0.397  0.00  0.00    +0.030 C 
ATOM     28  C   LIG    1        3.637   1.863  -0.442  0.00  0.00    +0.040 C 
ATOM     29  C   LIG    1        2.465   0.989  -0.001  0.00  0.00    +0.230 C 
ATOM     30  C   LIG    1        1.184   1.781   0.000  0.00  0.00    -0.100 A 
ATOM     31  C   LIG    1       -0.013   1.076   0.008  0.00  0.00    +0.010 A 
ENDBRANCH  20  29
ENDBRANCH  18  20
ENDBRANCH   1  18
TORSDOF 5
