REMARK  Name = ZINCpk000000mZ9v.1
REMARK                            x       y       z     vdW  Elec       q    Type
REMARK                         _______ _______ _______ _____ _____    ______ ____
ROOT
ATOM      1  S   LIG    1        3.685   3.579   0.701  0.00  0.00    +2.690 S 
ATOM      2  O   LIG    1        2.513   4.283   0.315  0.00  0.00    -0.950 OA
ATOM      3  O   LIG    1        4.998   4.063   0.453  0.00  0.00    -0.940 OA
ENDROOT
BRANCH   1   7
ATOM      4  C   LIG    1        3.380   2.942   5.174  0.00  0.00    +0.210 A 
ATOM      5  C   LIG    1        4.622   2.934   4.553  0.00  0.00    +0.010 A 
ATOM      6  C   LIG    1        4.712   3.128   3.189  0.00  0.00    +0.160 A 
ATOM      7  C   LIG    1        3.566   3.331   2.441  0.00  0.00    -0.700 A 
ATOM      8  C   LIG    1        2.328   3.345   3.057  0.00  0.00    +0.150 A 
ATOM      9  C   LIG    1        2.231   3.146   4.420  0.00  0.00    -0.030 A 
BRANCH   4  12
ATOM     10  C   LIG    1        4.090   3.109   8.867  0.00  0.00    +0.120 C 
ATOM     11  C   LIG    1        4.241   3.232   7.373  0.00  0.00    +0.510 C 
ATOM     12  N   LIG    1        3.285   2.746   6.556  0.00  0.00    -0.680 N 
ATOM     13  H   LIG    1        2.531   2.261   6.927  0.00  0.00    +0.420 HD
ATOM     14  O   LIG    1        5.224   3.767   6.905  0.00  0.00    -0.520 OA
ENDBRANCH   4  12
ENDBRANCH   1   7
BRANCH   1  15
ATOM     15  N   LIG    1        3.593   2.088  -0.014  0.00  0.00    -1.050 N 
ATOM     16  H   LIG    1        4.328   1.766  -0.559  0.00  0.00    +0.440 HD
BRANCH  15  17
ATOM     17  C   LIG    1        2.457   1.296   0.167  0.00  0.00    +0.180 A 
ATOM     18  C   LIG    1        1.203   1.885   0.247  0.00  0.00    +0.020 A 
ATOM     19  C   LIG    1        0.081   1.099   0.427  0.00  0.00    +0.070 A 
ATOM     20  C   LIG    1        0.203  -0.275   0.527  0.00  0.00    +0.030 A 
ATOM     21  C   LIG    1        1.448  -0.871   0.447  0.00  0.00    +0.040 A 
ATOM     22  C   LIG    1        2.579  -0.090   0.267  0.00  0.00    +0.100 A 
BRANCH  22  23
ATOM     23  N   LIG    1        3.844  -0.693   0.186  0.00  0.00    -0.320 N 
ATOM     24  C   LIG    1        4.132  -2.010   0.265  0.00  0.00    +0.470 A 
ATOM     25  N   LIG    1        5.428  -2.132   0.141  0.00  0.00    -0.320 NA
ATOM     26  N   LIG    1        5.979  -0.982  -0.010  0.00  0.00    -0.020 NA
ATOM     27  N   LIG    1        5.083  -0.054   0.001  0.00  0.00    -0.090 NA
ENDBRANCH  22  23
ENDBRANCH  15  17
ENDBRANCH   1  15
TORSDOF 5
