REMARK  Name = ZINCpk00000xQ1Vt.0
REMARK                            x       y       z     vdW  Elec       q    Type
REMARK                         _______ _______ _______ _____ _____    ______ ____
ROOT
ATOM      1  C   LIG    1       -3.860   6.112   0.285  0.00  0.00    +0.320 C 
ATOM      2  C   LIG    1       -3.522   6.804   1.610  0.00  0.00    +0.180 C 
ATOM      3  N   LIG    1       -2.316   7.624   1.437  0.00  0.00    -0.690 NA
ATOM      4  H   LIG    1       -2.137   8.183   2.258  0.00  0.00    +0.350 HD
ATOM      5  C   LIG    1       -1.151   6.794   1.101  0.00  0.00    +0.170 C 
ATOM      6  C   LIG    1       -1.390   6.100  -0.239  0.00  0.00    +0.280 C 
ATOM      7  N   LIG    1       -2.671   5.380  -0.176  0.00  0.00    -0.600 N 
ATOM      8  C   LIG    1       -2.752   4.081  -0.527  0.00  0.00    +0.560 C 
ATOM      9  O   LIG    1       -3.830   3.521  -0.539  0.00  0.00    -0.490 OA
ENDROOT
BRANCH   8  10
ATOM     10  C   LIG    1       -1.524   3.335  -0.898  0.00  0.00    -0.020 A 
ATOM     11  C   LIG    1       -0.697   2.830   0.063  0.00  0.00    -0.010 A 
ATOM     12  C   LIG    1        0.508   2.105  -0.335  0.00  0.00    +0.540 A 
ATOM     13  N   LIG    1        0.808   1.919  -1.632  0.00  0.00    -0.630 N 
ATOM     14  H   LIG    1        1.612   1.431  -1.869  0.00  0.00    +0.420 HD
ATOM     15  C   LIG    1       -0.004   2.409  -2.632  0.00  0.00    +0.190 A 
ATOM     16  C   LIG    1        0.324   2.205  -3.970  0.00  0.00    -0.020 A 
ATOM     17  C   LIG    1       -0.497   2.699  -4.960  0.00  0.00    +0.080 A 
ATOM     18  C   LIG    1       -1.652   3.399  -4.638  0.00  0.00    -0.010 A 
ATOM     19  C   LIG    1       -1.993   3.611  -3.332  0.00  0.00    +0.080 A 
ATOM     20  O   LIG    1        1.250   1.658   0.523  0.00  0.00    -0.520 OA
ATOM     21  C   LIG    1       -1.175   3.119  -2.311  0.00  0.00    -0.110 A 
ENDBRANCH   8  10
BRANCH   1  25
ATOM     22  C   LIG    1       -8.305   3.824  -0.075  0.00  0.00    +0.340 C 
ATOM     23  N   LIG    1       -6.937   4.157   0.332  0.00  0.00    -0.380 N 
ATOM     24  C   LIG    1       -6.202   5.192  -0.125  0.00  0.00    +0.240 A 
ATOM     25  C   LIG    1       -5.000   5.148   0.493  0.00  0.00    -0.220 A 
ATOM     26  C   LIG    1       -5.003   4.054   1.364  0.00  0.00    +0.260 A 
ATOM     27  N   LIG    1       -6.164   3.459   1.269  0.00  0.00    -0.290 NA
ENDBRANCH   1  25
TORSDOF 2
