REMARK  Name = ZINCtV000002MxbV.0
REMARK                            x       y       z     vdW  Elec       q    Type
REMARK                         _______ _______ _______ _____ _____    ______ ____
ROOT
ATOM      1  O   LIG    1       -0.658  -2.364  -1.030  0.00  0.00    -0.500 OA
ATOM      2  C   LIG    1        0.286  -2.909  -0.498  0.00  0.00    +0.520 C 
ATOM      3  N   LIG    1        1.302  -2.170  -0.007  0.00  0.00    -0.660 N 
ATOM      4  H   LIG    1        2.093  -2.607   0.345  0.00  0.00    +0.420 HD
ENDROOT
BRANCH   3   5
ATOM      5  C   LIG    1        1.215  -0.777  -0.008  0.00  0.00    +0.210 A 
ATOM      6  C   LIG    1       -0.026  -0.156  -0.004  0.00  0.00    +0.020 A 
ATOM      7  C   LIG    1       -0.110   1.223  -0.005  0.00  0.00    +0.060 A 
ATOM      8  C   LIG    1        1.040   1.994  -0.010  0.00  0.00    -0.010 A 
ATOM      9  C   LIG    1        2.282   1.393  -0.013  0.00  0.00    +0.060 A 
ATOM     10  C   LIG    1        2.381   0.001  -0.013  0.00  0.00    -0.080 A 
BRANCH  10  11
ATOM     11  C   LIG    1        3.708  -0.649  -0.017  0.00  0.00    +0.170 A 
ATOM     12  N   LIG    1        3.905  -1.921  -0.105  0.00  0.00    -0.480 NA
ATOM     13  C   LIG    1        5.174  -2.364  -0.100  0.00  0.00    +0.090 A 
ATOM     14  C   LIG    1        5.649  -3.691  -0.189  0.00  0.00    +0.070 A 
ATOM     15  C   LIG    1        6.985  -3.951  -0.161  0.00  0.00    +0.040 A 
ATOM     16  C   LIG    1        7.907  -2.920  -0.045  0.00  0.00    +0.040 A 
ATOM     17  C   LIG    1        7.474  -1.616   0.042  0.00  0.00    +0.060 A 
ATOM     18  C   LIG    1        6.111  -1.330   0.016  0.00  0.00    -0.180 A 
ATOM     19  S   LIG    1        5.242   0.200   0.106  0.00  0.00    +0.080 S 
ENDBRANCH  10  11
ENDBRANCH   3   5
BRANCH   2  20
ATOM     20  C   LIG    1        0.324  -4.411  -0.385  0.00  0.00    +0.170 C 
BRANCH  20  21
ATOM     21  C   LIG    1       -0.920  -4.993  -1.005  0.00  0.00    +0.090 A 
ATOM     22  C   LIG    1       -0.866  -5.912  -1.974  0.00  0.00    -0.060 A 
ATOM     23  S   LIG    1       -2.516  -6.336  -2.425  0.00  0.00    +0.120 S 
ATOM     24  C   LIG    1       -3.131  -5.192  -1.235  0.00  0.00    +0.140 A 
ATOM     25  N   LIG    1       -2.124  -4.624  -0.631  0.00  0.00    -0.440 NA
BRANCH  24  26
ATOM     26  C   LIG    1       -4.552  -4.922  -0.965  0.00  0.00    -0.140 A 
ATOM     27  C   LIG    1       -5.592  -5.509  -1.597  0.00  0.00    +0.030 A 
ATOM     28  C   LIG    1       -6.834  -5.094  -1.168  0.00  0.00    +0.010 A 
ATOM     29  C   LIG    1       -6.821  -4.170  -0.202  0.00  0.00    -0.040 A 
ATOM     30  S   LIG    1       -5.160  -3.778   0.225  0.00  0.00    +0.190 S 
ENDBRANCH  24  26
ENDBRANCH  20  21
ENDBRANCH   2  20
TORSDOF 5
