REMARK  Name = ZINCpe00000MJIMs.0
REMARK                            x       y       z     vdW  Elec       q    Type
REMARK                         _______ _______ _______ _____ _____    ______ ____
ROOT
ATOM      1  C   LIG    1       -3.322   5.877   5.656  0.00  0.00    +0.210 C 
ATOM      2  C   LIG    1       -3.434   4.436   5.118  0.00  0.00    +0.140 C 
ATOM      3  C   LIG    1       -2.870   4.524   3.718  0.00  0.00    +0.020 C 
ATOM      4  N   LIG    1       -2.500   5.741   3.478  0.00  0.00    -0.160 NA
ATOM      5  N   LIG    1       -2.722   6.620   4.537  0.00  0.00    -0.440 N 
ENDROOT
BRANCH   3   6
ATOM      6  C   LIG    1       -2.754   3.406   2.782  0.00  0.00    +0.590 C 
ATOM      7  N   LIG    1       -2.130   3.578   1.600  0.00  0.00    -0.580 N 
ATOM      8  C   LIG    1       -1.963   2.409   0.750  0.00  0.00    +0.260 C 
ATOM      9  C   LIG    1       -0.738   2.581  -0.151  0.00  0.00    +0.220 C 
ATOM     10  O   LIG    1       -0.818   3.873  -0.765  0.00  0.00    -0.360 OA
ATOM     11  C   LIG    1       -0.631   4.943   0.154  0.00  0.00    +0.150 C 
ATOM     12  C   LIG    1       -0.845   6.288  -0.567  0.00  0.00    +0.050 C 
ATOM     13  C   LIG    1       -2.334   6.625  -0.389  0.00  0.00    +0.020 C 
ATOM     14  C   LIG    1       -2.862   5.763   0.768  0.00  0.00    +0.020 C 
ATOM     15  C   LIG    1       -1.677   4.914   1.270  0.00  0.00    +0.220 C 
ATOM     16  O   LIG    1       -3.221   2.320   3.071  0.00  0.00    -0.520 OA
ENDBRANCH   3   6
BRANCH   5  17
ATOM     17  C   LIG    1       -2.418   7.982   4.538  0.00  0.00    +0.220 A 
ATOM     18  C   LIG    1       -2.688   8.755   5.661  0.00  0.00    -0.050 A 
ATOM     19  C   LIG    1       -2.380  10.101   5.660  0.00  0.00    +0.050 A 
ATOM     20  C   LIG    1       -1.815  10.683   4.540  0.00  0.00    -0.030 A 
ATOM     21  C   LIG    1       -1.551   9.918   3.418  0.00  0.00    +0.050 A 
ATOM     22  C   LIG    1       -1.850   8.570   3.414  0.00  0.00    -0.020 A 
ENDBRANCH   5  17
BRANCH   1  26
ATOM     23  N   LIG    1       -2.907   5.560   8.073  0.00  0.00    -0.850 N 
ATOM     24  H   LIG    1       -2.331   5.589   8.853  0.00  0.00    +0.410 HD
ATOM     25  H   LIG    1       -3.829   5.269   8.162  0.00  0.00    +0.400 HD
ATOM     26  C   LIG    1       -2.427   5.922   6.867  0.00  0.00    +0.510 C 
ATOM     27  O   LIG    1       -1.275   6.285   6.757  0.00  0.00    -0.510 OA
ENDBRANCH   1  26
TORSDOF 3
