REMARK  Name = ZINC670000002usX.0
REMARK                            x       y       z     vdW  Elec       q    Type
REMARK                         _______ _______ _______ _____ _____    ______ ____
ROOT
ATOM      1  S   LIG    1       -0.862   1.671   1.500  0.00  0.00    +2.490 S 
ATOM      2  O   LIG    1       -1.065   3.076   1.440  0.00  0.00    -0.940 OA
ATOM      3  O   LIG    1       -0.312   1.059   2.659  0.00  0.00    -0.950 OA
ATOM      4  C   LIG    1       -0.013   1.086   0.008  0.00  0.00    -0.260 C 
ENDROOT
BRANCH   1   6
ATOM      5  C   LIG    1       -2.891   0.108   2.256  0.00  0.00    +0.220 C 
ATOM      6  C   LIG    1       -2.483   0.992   1.379  0.00  0.00    -0.570 C 
ENDBRANCH   1   6
TORSDOF 1
