REMARK  Name = ZINCrH00000No539.0
REMARK                            x       y       z     vdW  Elec       q    Type
REMARK                         _______ _______ _______ _____ _____    ______ ____
ROOT
ATOM      1  N   LIG    1       -4.647   1.689   2.231  0.00  0.00    -0.680 N 
ATOM      2  H   LIG    1       -5.403   1.549   1.639  0.00  0.00    +0.410 HD
ATOM      3  C   LIG    1       -3.628   2.482   1.845  0.00  0.00    +0.720 C 
ATOM      4  N   LIG    1       -3.615   3.008   0.604  0.00  0.00    -0.630 N 
ATOM      5  C   LIG    1       -4.646   2.800  -0.433  0.00  0.00    +0.230 C 
ATOM      6  C   LIG    1       -4.525   4.031  -1.366  0.00  0.00    +0.040 C 
ATOM      7  C   LIG    1       -2.990   4.260  -1.381  0.00  0.00    +0.050 C 
ATOM      8  C   LIG    1       -2.570   3.885   0.056  0.00  0.00    +0.300 C 
ATOM      9  O   LIG    1       -2.719   2.723   2.617  0.00  0.00    -0.550 OA
ENDROOT
BRANCH   1  14
ATOM     10  C   LIG    1       -4.008   1.097   5.809  0.00  0.00    +0.140 A 
ATOM     11  C   LIG    1       -4.553  -0.168   5.969  0.00  0.00    -0.080 A 
ATOM     12  C   LIG    1       -5.128  -0.817   4.891  0.00  0.00    +0.060 A 
ATOM     13  C   LIG    1       -5.166  -0.202   3.651  0.00  0.00    +0.040 A 
ATOM     14  C   LIG    1       -4.614   1.067   3.486  0.00  0.00    +0.180 A 
ATOM     15  C   LIG    1       -4.038   1.715   4.568  0.00  0.00    +0.010 A 
BRANCH  10  17
ATOM     16  C   LIG    1       -3.446   1.037   8.119  0.00  0.00    +0.250 C 
ATOM     17  O   LIG    1       -3.443   1.732   6.870  0.00  0.00    -0.310 OA
ENDBRANCH  10  17
BRANCH  13  18
ATOM     18  O   LIG    1       -5.737  -0.838   2.593  0.00  0.00    -0.490 OA
ATOM     19  H   LIG    1       -5.124  -1.387   2.086  0.00  0.00    +0.380 HD
ENDBRANCH  13  18
ENDBRANCH   1  14
BRANCH   8  20
ATOM     20  C   LIG    1       -1.251   3.156   0.031  0.00  0.00    -0.150 A 
ATOM     21  C   LIG    1       -1.226   1.775   0.008  0.00  0.00    +0.100 A 
ATOM     22  C   LIG    1       -0.017   1.105  -0.010  0.00  0.00    -0.110 A 
ATOM     23  C   LIG    1        1.173   1.817  -0.015  0.00  0.00    +0.170 A 
ATOM     24  C   LIG    1        1.150   3.204   0.002  0.00  0.00    -0.100 A 
ATOM     25  C   LIG    1       -0.063   3.874   0.025  0.00  0.00    +0.180 A 
BRANCH  23  26
ATOM     26  O   LIG    1        2.361   1.157  -0.038  0.00  0.00    -0.320 OA
ATOM     27  C   LIG    1        2.309  -0.271  -0.056  0.00  0.00    +0.250 C 
ENDBRANCH  23  26
BRANCH  25  28
ATOM     28  O   LIG    1       -0.089   5.232   0.043  0.00  0.00    -0.310 OA
ATOM     29  C   LIG    1        1.171   5.906   0.036  0.00  0.00    +0.250 C 
ENDBRANCH  25  28
ENDBRANCH   8  20
TORSDOF 6
