REMARK  Name = ZINCqH00000o4nXA.0
REMARK                            x       y       z     vdW  Elec       q    Type
REMARK                         _______ _______ _______ _____ _____    ______ ____
ROOT
ATOM      1  C   LIG    1        5.452   0.799  -1.681  0.00  0.00    +0.230 A 
ATOM      2  C   LIG    1        6.364   0.814  -0.632  0.00  0.00    -0.080 A 
ATOM      3  C   LIG    1        7.717   0.832  -0.895  0.00  0.00    +0.080 A 
ATOM      4  C   LIG    1        8.170   0.845  -2.213  0.00  0.00    -0.080 A 
ATOM      5  C   LIG    1        7.254   0.835  -3.263  0.00  0.00    +0.080 A 
ATOM      6  C   LIG    1        5.901   0.812  -2.996  0.00  0.00    -0.080 A 
ENDROOT
BRANCH   4   7
ATOM      7  C   LIG    1        9.627   0.869  -2.498  0.00  0.00    +0.150 A 
ATOM      8  N   LIG    1       10.228   0.273  -3.504  0.00  0.00    -0.280 NA
ATOM      9  N   LIG    1       11.598   0.541  -3.413  0.00  0.00    -0.460 N 
ATOM     10  H   LIG    1       12.282   0.226  -4.026  0.00  0.00    +0.440 HD
ATOM     11  C   LIG    1       11.805   1.316  -2.323  0.00  0.00    +0.050 A 
ATOM     12  C   LIG    1       12.906   2.010  -1.550  0.00  0.00    +0.120 C 
ATOM     13  C   LIG    1       12.286   2.328  -0.171  0.00  0.00    +0.040 C 
ATOM     14  C   LIG    1       10.780   2.401  -0.507  0.00  0.00    +0.100 C 
ATOM     15  C   LIG    1       10.610   1.540  -1.740  0.00  0.00    -0.240 A 
ENDBRANCH   4   7
BRANCH   1  16
ATOM     16  N   LIG    1        4.082   0.776  -1.413  0.00  0.00    -0.740 N 
ATOM     17  H   LIG    1        3.444   0.769  -2.144  0.00  0.00    +0.400 HD
BRANCH  16  18
ATOM     18  C   LIG    1        3.607   0.762  -0.027  0.00  0.00    +0.360 C 
BRANCH  18  22
ATOM     19  C   LIG    1       -1.212   2.186   0.020  0.00  0.00    +0.360 C 
ATOM     20  N   LIG    1       -0.016   1.339   0.009  0.00  0.00    -0.360 N 
ATOM     21  N   LIG    1        1.313   1.786  -0.001  0.00  0.00    -0.280 NA
ATOM     22  C   LIG    1        2.100   0.738  -0.013  0.00  0.00    +0.060 A 
ATOM     23  C   LIG    1        1.300  -0.402  -0.011  0.00  0.00    -0.220 A 
ATOM     24  C   LIG    1        1.742  -1.845  -0.018  0.00  0.00    +0.100 C 
ATOM     25  C   LIG    1        0.553  -2.717   0.404  0.00  0.00    +0.010 C 
ATOM     26  C   LIG    1       -0.679  -2.337  -0.422  0.00  0.00    +0.030 C 
ATOM     27  C   LIG    1       -1.173  -0.949   0.005  0.00  0.00    +0.110 C 
ATOM     28  C   LIG    1        0.002  -0.004   0.002  0.00  0.00    +0.080 A 
ENDBRANCH  18  22
ENDBRANCH  16  18
ENDBRANCH   1  16
TORSDOF 4
