REMARK  Name = ZINC9p00000000v2.0
REMARK                            x       y       z     vdW  Elec       q    Type
REMARK                         _______ _______ _______ _____ _____    ______ ____
ROOT
ATOM      1  N   LIG    1       -2.696   3.124   1.601  0.00  0.00    -0.500 N 
ATOM      2  H   LIG    1       -3.221   2.274   1.740  0.00  0.00    +0.430 HD
ATOM      3  H   LIG    1       -3.282   3.812   1.154  0.00  0.00    +0.430 HD
ENDROOT
BRANCH   1   4
ATOM      4  C   LIG    1       -1.531   2.845   0.750  0.00  0.00    +0.160 C 
ATOM      5  C   LIG    1       -0.763   1.597   1.255  0.00  0.00    +0.040 C 
ATOM      6  C   LIG    1       -0.013   1.086   0.008  0.00  0.00    +0.030 C 
ATOM      7  C   LIG    1       -0.784   1.609  -1.216  0.00  0.00    +0.030 C 
ATOM      8  C   LIG    1       -1.978   2.421  -0.670  0.00  0.00    +0.050 C 
ENDBRANCH   1   4
BRANCH   1   9
ATOM      9  C   LIG    1       -2.241   3.637   2.900  0.00  0.00    +0.250 C 
BRANCH   9  11
ATOM     10  C   LIG    1       -2.982   4.462   5.139  0.00  0.00    +0.060 C 
ATOM     11  C   LIG    1       -3.455   3.928   3.786  0.00  0.00    +0.030 C 
ENDBRANCH   9  11
ENDBRANCH   1   9
TORSDOF 3
