REMARK  Name = ZINCrD000000fcWX.0
REMARK                            x       y       z     vdW  Elec       q    Type
REMARK                         _______ _______ _______ _____ _____    ______ ____
ROOT
ATOM      1  C   LIG    1        5.234  -5.079   2.323  0.00  0.00    +0.030 A 
ATOM      2  C   LIG    1        4.014  -4.468   2.601  0.00  0.00    +0.050 A 
ATOM      3  C   LIG    1        3.873  -3.116   2.513  0.00  0.00    +0.050 A 
ATOM      4  C   LIG    1        4.970  -2.323   2.139  0.00  0.00    +0.100 A 
ATOM      5  N   LIG    1        4.856  -0.989   2.051  0.00  0.00    -0.450 NA
ATOM      6  C   LIG    1        5.897  -0.267   1.693  0.00  0.00    +0.320 A 
ATOM      7  C   LIG    1        7.138  -0.888   1.411  0.00  0.00    +0.290 A 
ATOM      8  N   LIG    1        7.264  -2.196   1.498  0.00  0.00    -0.440 NA
ATOM      9  C   LIG    1        6.210  -2.944   1.856  0.00  0.00    +0.070 A 
ATOM     10  C   LIG    1        6.319  -4.340   1.957  0.00  0.00    +0.060 A 
ENDROOT
BRANCH   7  11
ATOM     11  N   LIG    1        8.227  -0.114   1.040  0.00  0.00    -0.470 N 
ATOM     12  C   LIG    1        8.745  -0.527  -0.272  0.00  0.00    +0.160 C 
ATOM     13  C   LIG    1        9.906   0.390  -0.668  0.00  0.00    +0.230 C 
ATOM     14  O   LIG    1       10.911   0.344   0.348  0.00  0.00    -0.380 OA
ATOM     15  C   LIG    1       10.441   0.741   1.640  0.00  0.00    +0.240 C 
ATOM     16  C   LIG    1        9.286  -0.172   2.059  0.00  0.00    +0.180 C 
ENDBRANCH   7  11
BRANCH   6  17
ATOM     17  N   LIG    1        5.779   1.112   1.598  0.00  0.00    -0.450 N 
ATOM     18  C   LIG    1        5.803   1.547   0.192  0.00  0.00    +0.260 C 
ATOM     19  C   LIG    1        4.725   0.776  -0.575  0.00  0.00    +0.040 C 
ATOM     20  C   LIG    1        3.423   0.842   0.175  0.00  0.00    -0.010 C 
ATOM     21  C   LIG    1        3.349   1.205   1.441  0.00  0.00    -0.050 C 
ATOM     22  C   LIG    1        4.553   1.581   2.256  0.00  0.00    +0.290 C 
BRANCH  21  23
ATOM     23  C   LIG    1        2.028   1.236   2.086  0.00  0.00    +0.020 A 
ATOM     24  C   LIG    1        1.224   0.160   2.314  0.00  0.00    -0.050 A 
ATOM     25  C   LIG    1        0.065   0.648   2.949  0.00  0.00    -0.060 A 
ATOM     26  C   LIG    1        0.216   1.981   3.077  0.00  0.00    +0.160 A 
ATOM     27  O   LIG    1        1.402   2.333   2.555  0.00  0.00    -0.170 OA
ENDBRANCH  21  23
ENDBRANCH   6  17
TORSDOF 3
