REMARK  Name = ZINCqH0000000klY.0
REMARK                            x       y       z     vdW  Elec       q    Type
REMARK                         _______ _______ _______ _____ _____    ______ ____
ROOT
ATOM      1  N   LIG    1       -1.085   2.673   1.264  0.00  0.00    -0.450 N 
ATOM      2  C   LIG    1       -0.511   3.838   0.842  0.00  0.00    +0.140 A 
ATOM      3  N   LIG    1        0.712   3.867   1.324  0.00  0.00    -0.260 NA
ATOM      4  N   LIG    1        0.937   2.809   2.018  0.00  0.00    -0.260 NA
ATOM      5  C   LIG    1       -0.127   2.041   2.023  0.00  0.00    +0.230 A 
ENDROOT
BRANCH   5   6
ATOM      6  C   LIG    1       -0.267   0.738   2.708  0.00  0.00    -0.030 A 
ATOM      7  C   LIG    1       -1.535   0.214   2.965  0.00  0.00    +0.020 A 
ATOM      8  C   LIG    1       -1.659  -1.004   3.600  0.00  0.00    +0.010 A 
ATOM      9  C   LIG    1       -0.530  -1.702   3.991  0.00  0.00    -0.070 A 
ATOM     10  C   LIG    1        0.730  -1.186   3.744  0.00  0.00    +0.010 A 
ATOM     11  C   LIG    1       -0.673  -3.030   4.689  0.00  0.00    +0.100 C 
ATOM     12  C   LIG    1        0.868   0.029   3.105  0.00  0.00    +0.070 A 
ENDBRANCH   5   6
BRANCH   1  13
ATOM     13  C   LIG    1       -2.440   2.197   0.973  0.00  0.00    +0.340 C 
BRANCH  13  15
ATOM     14  C   LIG    1       -4.452   3.411   1.637  0.00  0.00    +0.080 C 
ATOM     15  C   LIG    1       -3.394   2.733   2.009  0.00  0.00    -0.080 C 
ENDBRANCH  13  15
ENDBRANCH   1  13
BRANCH   2  16
ATOM     16  S   LIG    1       -1.266   5.069  -0.168  0.00  0.00    +0.050 S 
BRANCH  16  17
ATOM     17  C   LIG    1        0.096   6.255  -0.287  0.00  0.00    +0.080 C 
BRANCH  17  18
ATOM     18  C   LIG    1       -0.288   7.368  -1.229  0.00  0.00    -0.080 A 
ATOM     19  C   LIG    1       -1.507   8.004  -1.086  0.00  0.00    +0.020 A 
ATOM     20  C   LIG    1       -1.858   9.027  -1.947  0.00  0.00    +0.020 A 
ATOM     21  C   LIG    1       -0.993   9.408  -2.957  0.00  0.00    +0.020 A 
ATOM     22  C   LIG    1        0.223   8.768  -3.103  0.00  0.00    +0.020 A 
ATOM     23  C   LIG    1        0.576   7.748  -2.239  0.00  0.00    +0.040 A 
ENDBRANCH  17  18
BRANCH  17  24
ATOM     24  C   LIG    1        0.384   6.829   1.076  0.00  0.00    +0.530 C 
ATOM     25  O   LIG    1        1.464   6.642   1.597  0.00  0.00    -0.500 OA
ATOM     26  N   LIG    1       -0.557   7.549   1.717  0.00  0.00    -0.850 N 
ATOM     27  H   LIG    1       -0.400   7.856   2.624  0.00  0.00    +0.410 HD
ATOM     28  H   LIG    1       -1.393   7.761   1.272  0.00  0.00    +0.400 HD
ENDBRANCH  17  24
ENDBRANCH  16  17
ENDBRANCH   2  16
TORSDOF 7
