REMARK  Name = ZINCvU000000078G.0
REMARK                            x       y       z     vdW  Elec       q    Type
REMARK                         _______ _______ _______ _____ _____    ______ ____
ROOT
ATOM      1  O   LIG    1        2.319   3.863  -0.000  0.00  0.00    -0.250 OA
ENDROOT
BRANCH   1   5
ATOM      2  C   LIG    1       -1.226   1.750  -0.051  0.00  0.00    -0.130 A 
ATOM      3  C   LIG    1       -0.452   1.792   1.112  0.00  0.00    +0.120 A 
ATOM      4  C   LIG    1        0.731   2.496   1.124  0.00  0.00    +0.020 A 
ATOM      5  C   LIG    1        1.153   3.170  -0.016  0.00  0.00    +0.120 A 
ATOM      6  C   LIG    1        0.383   3.135  -1.173  0.00  0.00    -0.010 A 
ATOM      7  C   LIG    1       -0.801   2.434  -1.194  0.00  0.00    +0.110 A 
BRANCH   2   8
ATOM      8  C   LIG    1       -2.491   0.992  -0.070  0.00  0.00    +0.510 C 
ATOM      9  O   LIG    1       -2.861   0.403   0.926  0.00  0.00    -0.500 OA
BRANCH   8  10
ATOM     10  O   LIG    1       -3.236   0.953  -1.192  0.00  0.00    -0.350 OA
BRANCH  10  11
ATOM     11  C   LIG    1       -4.469   0.188  -1.138  0.00  0.00    +0.210 C 
BRANCH  11  12
ATOM     12  C   LIG    1       -5.173   0.260  -2.495  0.00  0.00    +0.040 C 
BRANCH  12  13
ATOM     13  C   LIG    1       -6.472  -0.547  -2.438  0.00  0.00    +0.040 C 
BRANCH  13  14
ATOM     14  C   LIG    1       -7.177  -0.475  -3.795  0.00  0.00    +0.200 C 
BRANCH  14  16
ATOM     15  N   LIG    1       -9.391  -1.849  -3.698  0.00  0.00    -0.430 NA
ATOM     16  C   LIG    1       -8.427  -1.251  -3.740  0.00  0.00    +0.200 C 
ENDBRANCH  14  16
ENDBRANCH  13  14
ENDBRANCH  12  13
ENDBRANCH  11  12
ENDBRANCH  10  11
ENDBRANCH   8  10
ENDBRANCH   2   8
ENDBRANCH   1   5
BRANCH   1  17
ATOM     17  C   LIG    1        2.258   5.215  -0.098  0.00  0.00    +0.160 A 
ATOM     18  C   LIG    1        1.024   5.856  -0.087  0.00  0.00    -0.070 A 
ATOM     19  C   LIG    1        0.958   7.228  -0.181  0.00  0.00    +0.120 A 
ATOM     20  C   LIG    1        2.133   7.976  -0.298  0.00  0.00    -0.160 A 
ATOM     21  C   LIG    1        3.372   7.327  -0.314  0.00  0.00    +0.140 A 
ATOM     22  C   LIG    1        3.429   5.955  -0.214  0.00  0.00    +0.000 A 
BRANCH  20  23
ATOM     23  C   LIG    1        2.067   9.445  -0.406  0.00  0.00    +0.510 C 
ATOM     24  O   LIG    1        3.089  10.094  -0.508  0.00  0.00    -0.510 OA
BRANCH  23  25
ATOM     25  O   LIG    1        0.872  10.069  -0.390  0.00  0.00    -0.350 OA
BRANCH  25  26
ATOM     26  C   LIG    1        0.882  11.516  -0.500  0.00  0.00    +0.210 C 
BRANCH  26  27
ATOM     27  C   LIG    1       -0.554  12.041  -0.465  0.00  0.00    +0.040 C 
BRANCH  27  28
ATOM     28  C   LIG    1       -0.543  13.566  -0.581  0.00  0.00    +0.040 C 
BRANCH  28  29
ATOM     29  C   LIG    1       -1.980  14.091  -0.545  0.00  0.00    +0.200 C 
BRANCH  29  30
ATOM     30  C   LIG    1       -1.970  15.559  -0.656  0.00  0.00    +0.200 C 
ATOM     31  N   LIG    1       -1.962  16.691  -0.742  0.00  0.00    -0.430 NA
ENDBRANCH  29  30
ENDBRANCH  28  29
ENDBRANCH  27  28
ENDBRANCH  26  27
ENDBRANCH  25  26
ENDBRANCH  23  25
ENDBRANCH  20  23
ENDBRANCH   1  17
TORSDOF 16
