REMARK  Name = ZINCqH0000031EwB.0
REMARK                            x       y       z     vdW  Elec       q    Type
REMARK                         _______ _______ _______ _____ _____    ______ ____
ROOT
ATOM      1  N   LIG    1        0.155  -8.244   5.150  0.00  0.00    -0.670 N 
ATOM      2  H   LIG    1        0.198  -8.822   4.372  0.00  0.00    +0.410 HD
ATOM      3  C   LIG    1       -0.025  -6.917   4.994  0.00  0.00    +0.510 C 
ATOM      4  O   LIG    1       -0.172  -6.207   5.966  0.00  0.00    -0.520 OA
ENDROOT
BRANCH   1  12
ATOM      5  C   LIG    1        0.591 -11.617  12.357  0.00  0.00    +0.110 C 
ATOM      6  C   LIG    1        0.401 -11.395  10.879  0.00  0.00    +0.520 C 
ATOM      7  N   LIG    1        0.755 -10.219  10.323  0.00  0.00    -0.560 N 
ATOM      8  C   LIG    1        1.429  -9.126  11.028  0.00  0.00    +0.280 C 
ATOM      9  C   LIG    1        1.613  -8.020   9.976  0.00  0.00    +0.100 C 
ATOM     10  C   LIG    1        1.009  -8.591   8.713  0.00  0.00    -0.120 A 
ATOM     11  C   LIG    1        0.891  -8.056   7.445  0.00  0.00    +0.060 A 
ATOM     12  C   LIG    1        0.281  -8.787   6.435  0.00  0.00    +0.120 A 
ATOM     13  C   LIG    1       -0.198 -10.063   6.702  0.00  0.00    +0.010 A 
ATOM     14  C   LIG    1       -0.073 -10.598   7.966  0.00  0.00    +0.030 A 
ATOM     15  C   LIG    1        0.534  -9.864   8.987  0.00  0.00    +0.130 A 
ATOM     16  O   LIG    1       -0.071 -12.274  10.189  0.00  0.00    -0.520 OA
ENDBRANCH   1  12
BRANCH   3  17
ATOM     17  C   LIG    1       -0.045  -6.316   3.612  0.00  0.00    +0.060 C 
BRANCH  17  18
ATOM     18  C   LIG    1       -0.264  -4.806   3.716  0.00  0.00    +0.050 C 
BRANCH  18  19
ATOM     19  C   LIG    1       -0.285  -4.196   2.313  0.00  0.00    +0.180 C 
BRANCH  19  20
ATOM     20  O   LIG    1       -0.489  -2.785   2.410  0.00  0.00    -0.310 OA
BRANCH  20  21
ATOM     21  C   LIG    1       -0.533  -2.087   1.245  0.00  0.00    +0.130 A 
ATOM     22  C   LIG    1       -0.383  -2.745   0.034  0.00  0.00    -0.090 A 
ATOM     23  C   LIG    1       -0.429  -2.033  -1.149  0.00  0.00    +0.050 A 
ATOM     24  C   LIG    1       -0.629  -0.665  -1.127  0.00  0.00    -0.040 A 
ATOM     25  C   LIG    1       -0.774  -0.005   0.080  0.00  0.00    -0.050 A 
ATOM     26  C   LIG    1       -0.986   1.486   0.101  0.00  0.00    +0.090 C 
ATOM     27  C   LIG    1       -0.729  -0.713   1.265  0.00  0.00    -0.020 A 
ENDBRANCH  20  21
ENDBRANCH  19  20
ENDBRANCH  18  19
ENDBRANCH  17  18
ENDBRANCH   3  17
TORSDOF 6
