REMARK  Name = ZINCrD00000hQ70V.0
REMARK                            x       y       z     vdW  Elec       q    Type
REMARK                         _______ _______ _______ _____ _____    ______ ____
ROOT
ATOM      1  C   LIG    1       -4.046   3.421   2.254  0.00  0.00    -0.680 A 
ATOM      2  C   LIG    1       -3.488   2.597   3.214  0.00  0.00    +0.160 A 
ATOM      3  C   LIG    1       -3.648   2.884   4.559  0.00  0.00    +0.000 A 
ATOM      4  C   LIG    1       -4.375   3.989   4.949  0.00  0.00    +0.110 A 
ATOM      5  C   LIG    1       -4.945   4.822   3.985  0.00  0.00    -0.150 A 
ATOM      6  C   LIG    1       -4.775   4.530   2.631  0.00  0.00    +0.200 A 
ENDROOT
BRANCH   5   7
ATOM      7  C   LIG    1       -5.726   6.008   4.397  0.00  0.00    +0.560 C 
ATOM      8  N   LIG    1       -5.888   6.287   5.705  0.00  0.00    -0.720 N 
ATOM      9  H   LIG    1       -5.492   5.710   6.377  0.00  0.00    +0.400 HD
ATOM     10  O   LIG    1       -6.222   6.731   3.555  0.00  0.00    -0.520 OA
BRANCH   8  11
ATOM     11  C   LIG    1       -6.662   7.463   6.113  0.00  0.00    +0.390 C 
BRANCH  11  12
ATOM     12  C   LIG    1       -6.691   7.548   7.617  0.00  0.00    -0.050 A 
ATOM     13  C   LIG    1       -5.795   8.191   8.387  0.00  0.00    -0.030 A 
ATOM     14  C   LIG    1       -6.206   8.016   9.728  0.00  0.00    -0.070 A 
ATOM     15  C   LIG    1       -7.324   7.269   9.699  0.00  0.00    +0.190 A 
ATOM     16  O   LIG    1       -7.613   6.988   8.418  0.00  0.00    -0.170 OA
ENDBRANCH  11  12
ENDBRANCH   8  11
ENDBRANCH   5   7
BRANCH   1  17
ATOM     17  S   LIG    1       -3.831   3.051   0.545  0.00  0.00    +2.690 S 
ATOM     18  O   LIG    1       -3.561   1.658   0.467  0.00  0.00    -0.940 OA
ATOM     19  O   LIG    1       -4.910   3.672  -0.140  0.00  0.00    -0.940 OA
BRANCH  17  20
ATOM     20  N   LIG    1       -2.454   3.822   0.045  0.00  0.00    -0.950 N 
ATOM     21  C   LIG    1       -2.510   5.227  -0.368  0.00  0.00    +0.320 C 
BRANCH  20  27
ATOM     22  C   LIG    1        2.193   3.382   1.585  0.00  0.00    +0.090 C 
ATOM     23  C   LIG    1        1.032   2.898   0.755  0.00  0.00    -0.080 A 
ATOM     24  C   LIG    1        1.169   1.772  -0.035  0.00  0.00    +0.010 A 
ATOM     25  C   LIG    1        0.106   1.325  -0.798  0.00  0.00    +0.030 A 
ATOM     26  C   LIG    1       -1.095   2.005  -0.778  0.00  0.00    +0.020 A 
ATOM     27  C   LIG    1       -1.238   3.135   0.018  0.00  0.00    +0.140 A 
ATOM     28  C   LIG    1       -0.169   3.581   0.784  0.00  0.00    +0.010 A 
ENDBRANCH  20  27
ENDBRANCH  17  20
ENDBRANCH   1  17
TORSDOF 6
