REMARK  Name = ZINCpe000000PsDV.0
REMARK                            x       y       z     vdW  Elec       q    Type
REMARK                         _______ _______ _______ _____ _____    ______ ____
ROOT
ATOM      1  N   LIG    1        0.840   0.503  -2.547  0.00  0.00    -0.740 N 
ATOM      2  H   LIG    1        1.168   0.281  -3.432  0.00  0.00    +0.400 HD
ATOM      3  C   LIG    1       -0.268   1.258  -2.409  0.00  0.00    +0.710 C 
ATOM      4  N   LIG    1       -0.862   1.788  -3.497  0.00  0.00    -0.630 N 
ATOM      5  C   LIG    1       -2.005   2.701  -3.356  0.00  0.00    +0.300 C 
ATOM      6  C   LIG    1       -3.164   2.182  -4.204  0.00  0.00    +0.020 C 
ATOM      7  C   LIG    1       -2.690   1.986  -5.646  0.00  0.00    +0.020 C 
ATOM      8  C   LIG    1       -1.564   0.950  -5.678  0.00  0.00    +0.280 C 
ATOM      9  C   LIG    1       -0.383   1.460  -4.846  0.00  0.00    +0.260 C 
ATOM     10  O   LIG    1       -0.732   1.462  -1.304  0.00  0.00    -0.580 OA
ENDROOT
BRANCH   8  11
ATOM     11  N   LIG    1       -1.132   0.739  -7.062  0.00  0.00    -0.980 NA
ATOM     12  C   LIG    1       -0.589   1.759  -7.961  0.00  0.00    +0.240 C 
ATOM     13  C   LIG    1       -0.189   1.218  -9.337  0.00  0.00    +0.090 C 
ATOM     14  C   LIG    1       -1.095  -0.019  -9.598  0.00  0.00    -0.310 C 
ATOM     15  S   LIG    1       -1.165  -0.712  -7.894  0.00  0.00    +2.560 S 
ATOM     16  O   LIG    1       -2.438  -1.278  -7.615  0.00  0.00    -0.950 OA
ATOM     17  O   LIG    1        0.045  -1.372  -7.549  0.00  0.00    -0.950 OA
ENDBRANCH   8  11
BRANCH   1  18
ATOM     18  C   LIG    1        1.548   0.018  -1.360  0.00  0.00    +0.370 C 
BRANCH  18  23
ATOM     19  C   LIG    1        3.611  -2.830  -2.443  0.00  0.00    +0.320 A 
ATOM     20  C   LIG    1        4.886  -2.289  -2.556  0.00  0.00    -0.040 A 
ATOM     21  C   LIG    1        5.077  -0.949  -2.268  0.00  0.00    +0.110 A 
ATOM     22  C   LIG    1        3.981  -0.194  -1.875  0.00  0.00    -0.050 A 
ATOM     23  C   LIG    1        2.742  -0.797  -1.785  0.00  0.00    +0.140 A 
ATOM     24  N   LIG    1        2.592  -2.078  -2.062  0.00  0.00    -0.530 NA
BRANCH  19  26
ATOM     25  C   LIG    1        2.077  -4.637  -2.589  0.00  0.00    +0.260 C 
ATOM     26  O   LIG    1        3.411  -4.142  -2.723  0.00  0.00    -0.310 OA
ENDBRANCH  19  26
ENDBRANCH  18  23
ENDBRANCH   1  18
TORSDOF 4
