REMARK  Name = ZINCpe00000bFABq.0
REMARK                            x       y       z     vdW  Elec       q    Type
REMARK                         _______ _______ _______ _____ _____    ______ ____
ROOT
ATOM      1  C   LIG    1        0.665   4.190   1.394  0.00  0.00    +0.140 C 
ATOM      2  C   LIG    1        1.653   3.049   1.660  0.00  0.00    +0.290 C 
ATOM      3  N   LIG    1        2.507   3.431   2.796  0.00  0.00    -0.610 N 
ATOM      4  C   LIG    1        3.161   4.748   2.758  0.00  0.00    +0.260 C 
ATOM      5  C   LIG    1        2.099   5.806   2.438  0.00  0.00    +0.220 C 
ATOM      6  C   LIG    1        2.684   2.598   3.841  0.00  0.00    +0.510 C 
ATOM      7  O   LIG    1        2.074   1.551   3.893  0.00  0.00    -0.510 OA
ATOM      8  O   LIG    1        1.386   5.417   1.262  0.00  0.00    -0.370 OA
ENDROOT
BRANCH   6   9
ATOM      9  C   LIG    1        3.641   2.968   4.946  0.00  0.00    +0.240 C 
ATOM     10  C   LIG    1        5.079   2.820   4.446  0.00  0.00    +0.070 C 
BRANCH   9  11
ATOM     11  N   LIG    1        3.428   2.082   6.093  0.00  0.00    -0.440 N 
ATOM     12  C   LIG    1        3.553   0.724   6.081  0.00  0.00    +0.180 A 
ATOM     13  C   LIG    1        3.283   0.266   7.320  0.00  0.00    -0.070 A 
ATOM     14  C   LIG    1        2.971   1.380   8.123  0.00  0.00    -0.050 A 
ATOM     15  C   LIG    1        3.068   2.478   7.346  0.00  0.00    +0.130 A 
ENDBRANCH   9  11
ENDBRANCH   6   9
BRANCH   1  16
ATOM     16  C   LIG    1       -0.105   3.908   0.102  0.00  0.00    +0.300 C 
BRANCH  16  18
ATOM     17  C   LIG    1       -1.841   4.965  -1.243  0.00  0.00    +0.560 C 
ATOM     18  N   LIG    1       -1.049   4.999  -0.152  0.00  0.00    -0.720 N 
ATOM     19  H   LIG    1       -1.105   5.745   0.465  0.00  0.00    +0.400 HD
ATOM     20  O   LIG    1       -1.709   4.079  -2.060  0.00  0.00    -0.530 OA
BRANCH  17  21
ATOM     21  C   LIG    1       -2.888   6.029  -1.446  0.00  0.00    -0.170 C 
ATOM     22  C   LIG    1       -3.400   6.253  -2.871  0.00  0.00    +0.090 C 
ATOM     23  C   LIG    1       -2.479   7.286  -2.217  0.00  0.00    +0.070 C 
BRANCH  21  24
ATOM     24  C   LIG    1       -3.889   6.197  -0.302  0.00  0.00    +0.210 C 
BRANCH  24  26
ATOM     25  C   LIG    1       -5.578   5.028   0.933  0.00  0.00    +0.200 C 
ATOM     26  O   LIG    1       -4.612   4.978  -0.118  0.00  0.00    -0.380 OA
ENDBRANCH  24  26
ENDBRANCH  21  24
ENDBRANCH  17  21
ENDBRANCH  16  18
ENDBRANCH   1  16
TORSDOF 7
