REMARK  Name = ZINCrH000004prfk.0
REMARK                            x       y       z     vdW  Elec       q    Type
REMARK                         _______ _______ _______ _____ _____    ______ ____
ROOT
ATOM      1  C   LIG    1       -2.458   0.867   0.018  0.00  0.00    -0.150 A 
ATOM      2  C   LIG    1       -2.442  -0.528   0.011  0.00  0.00    +0.100 A 
ATOM      3  C   LIG    1       -3.631  -1.228   0.013  0.00  0.00    +0.000 A 
ATOM      4  C   LIG    1       -4.837  -0.550   0.022  0.00  0.00    +0.150 A 
ATOM      5  C   LIG    1       -4.859   0.834   0.030  0.00  0.00    -0.680 A 
ATOM      6  C   LIG    1       -3.678   1.546   0.034  0.00  0.00    +0.190 A 
ENDROOT
BRANCH   1   9
ATOM      7  N   LIG    1       -0.011   0.966   0.007  0.00  0.00    -0.720 N 
ATOM      8  H   LIG    1        0.002  -0.004   0.002  0.00  0.00    +0.400 HD
ATOM      9  C   LIG    1       -1.187   1.624   0.017  0.00  0.00    +0.560 C 
ATOM     10  O   LIG    1       -1.204   2.839   0.023  0.00  0.00    -0.530 OA
BRANCH   7  12
ATOM     11  C   LIG    1        1.635   2.077   1.435  0.00  0.00    +0.040 C 
ATOM     12  C   LIG    1        1.248   1.716  -0.001  0.00  0.00    +0.280 C 
BRANCH  12  13
ATOM     13  C   LIG    1        2.332   0.870  -0.616  0.00  0.00    -0.090 A 
ATOM     14  C   LIG    1        2.404  -0.480  -0.327  0.00  0.00    +0.000 A 
ATOM     15  C   LIG    1        3.397  -1.257  -0.894  0.00  0.00    +0.010 A 
ATOM     16  C   LIG    1        4.322  -0.682  -1.745  0.00  0.00    +0.000 A 
ATOM     17  C   LIG    1        4.254   0.668  -2.030  0.00  0.00    +0.020 A 
ATOM     18  C   LIG    1        3.259   1.444  -1.466  0.00  0.00    +0.020 A 
ENDBRANCH  12  13
ENDBRANCH   7  12
ENDBRANCH   1   9
BRANCH   5  19
ATOM     19  S   LIG    1       -6.400   1.688   0.043  0.00  0.00    +2.680 S 
ATOM     20  O   LIG    1       -7.360   0.793  -0.502  0.00  0.00    -0.950 OA
ATOM     21  O   LIG    1       -6.148   2.979  -0.496  0.00  0.00    -0.950 OA
BRANCH  19  22
ATOM     22  N   LIG    1       -6.821   1.917   1.628  0.00  0.00    -0.990 NA
ATOM     23  C   LIG    1       -7.617   0.906   2.287  0.00  0.00    +0.280 C 
ATOM     24  C   LIG    1       -9.117   1.207   2.088  0.00  0.00    +0.010 C 
ATOM     25  C   LIG    1       -9.511   2.382   2.881  0.00  0.00    +0.000 C 
ATOM     26  C   LIG    1       -8.808   3.675   2.480  0.00  0.00    +0.010 C 
ATOM     27  C   LIG    1       -7.478   3.761   3.186  0.00  0.00    +0.030 C 
ATOM     28  C   LIG    1       -6.372   3.148   2.308  0.00  0.00    +0.280 C 
ENDBRANCH  19  22
ENDBRANCH   5  19
TORSDOF 5
