REMARK  Name = ZINCqH0000033Mx4.0
REMARK                            x       y       z     vdW  Elec       q    Type
REMARK                         _______ _______ _______ _____ _____    ______ ____
ROOT
ATOM      1  C   LIG    1        4.957  -2.734   0.154  0.00  0.00    -0.030 C 
ATOM      2  C   LIG    1        5.841  -2.344  -1.034  0.00  0.00    +0.030 C 
ATOM      3  C   LIG    1        5.167  -2.796  -2.333  0.00  0.00    +0.210 C 
ATOM      4  O   LIG    1        4.943  -4.206  -2.285  0.00  0.00    -0.380 OA
ATOM      5  C   LIG    1        4.085  -4.625  -1.222  0.00  0.00    +0.220 C 
ATOM      6  C   LIG    1        4.716  -4.247   0.120  0.00  0.00    +0.050 C 
ENDROOT
BRANCH   1   7
ATOM      7  C   LIG    1        5.647  -2.362   1.441  0.00  0.00    -0.120 A 
ATOM      8  C   LIG    1        5.850  -3.321   2.417  0.00  0.00    +0.060 A 
ATOM      9  C   LIG    1        6.486  -2.983   3.596  0.00  0.00    -0.070 A 
ATOM     10  C   LIG    1        6.912  -1.679   3.804  0.00  0.00    +0.130 A 
ATOM     11  C   LIG    1        6.702  -0.719   2.826  0.00  0.00    -0.020 A 
ATOM     12  C   LIG    1        6.070  -1.062   1.647  0.00  0.00    +0.050 A 
BRANCH  10  13
ATOM     13  O   LIG    1        7.534  -1.344   4.965  0.00  0.00    -0.320 OA
ATOM     14  C   LIG    1        7.716  -2.385   5.928  0.00  0.00    +0.250 C 
ENDBRANCH  10  13
ENDBRANCH   1   7
BRANCH   1  17
ATOM     15  N   LIG    1        3.613  -0.667  -0.041  0.00  0.00    -0.660 N 
ATOM     16  H   LIG    1        4.442  -0.172  -0.138  0.00  0.00    +0.410 HD
ATOM     17  C   LIG    1        3.639  -2.011   0.060  0.00  0.00    +0.530 C 
ATOM     18  O   LIG    1        2.600  -2.638   0.077  0.00  0.00    -0.510 OA
BRANCH  15  24
ATOM     19  C   LIG    1        2.271   1.269  -0.602  0.00  0.00    +0.100 A 
ATOM     20  C   LIG    1        1.059   1.938  -0.565  0.00  0.00    -0.060 A 
ATOM     21  C   LIG    1       -0.030   1.362   0.063  0.00  0.00    +0.030 A 
ATOM     22  C   LIG    1        0.086   0.118   0.654  0.00  0.00    +0.000 A 
ATOM     23  C   LIG    1        1.293  -0.556   0.622  0.00  0.00    +0.060 A 
ATOM     24  C   LIG    1        2.389   0.015  -0.006  0.00  0.00    +0.120 A 
BRANCH  19  25
ATOM     25  O   LIG    1        3.343   1.834  -1.219  0.00  0.00    -0.320 OA
BRANCH  25  27
ATOM     26  C   LIG    1        4.456   3.591  -2.450  0.00  0.00    +0.070 C 
ATOM     27  C   LIG    1        3.149   3.121  -1.808  0.00  0.00    +0.180 C 
ENDBRANCH  25  27
ENDBRANCH  19  25
ENDBRANCH  15  24
ENDBRANCH   1  17
TORSDOF 6
