REMARK  Name = ZINCqH0000007NkV.0
REMARK                            x       y       z     vdW  Elec       q    Type
REMARK                         _______ _______ _______ _____ _____    ______ ____
ROOT
ATOM      1  C   LIG    1        0.577  -4.219  -0.033  0.00  0.00    +0.190 A 
ATOM      2  N   LIG    1        0.101  -3.005  -0.195  0.00  0.00    -0.260 NA
ATOM      3  N   LIG    1        1.153  -2.088  -0.125  0.00  0.00    -0.310 N 
ATOM      4  C   LIG    1        2.307  -2.740   0.095  0.00  0.00    +0.280 A 
ATOM      5  C   LIG    1        2.025  -4.089   0.165  0.00  0.00    -0.270 A 
ENDROOT
BRANCH   5   6
ATOM      6  C   LIG    1        2.986  -5.181   0.393  0.00  0.00    +0.610 C 
ATOM      7  N   LIG    1        4.306  -4.917   0.446  0.00  0.00    -0.620 N 
ATOM      8  C   LIG    1        4.922  -3.591   0.286  0.00  0.00    +0.230 C 
ATOM      9  C   LIG    1        6.449  -3.779   0.397  0.00  0.00    +0.040 C 
ATOM     10  C   LIG    1        6.640  -5.276   0.040  0.00  0.00    +0.040 C 
ATOM     11  C   LIG    1        5.373  -5.910   0.667  0.00  0.00    +0.260 C 
ATOM     12  O   LIG    1        2.588  -6.322   0.535  0.00  0.00    -0.530 OA
ENDBRANCH   5   6
BRANCH   1  18
ATOM     13  C   LIG    1       -1.361  -5.595   0.732  0.00  0.00    +0.160 A 
ATOM     14  C   LIG    1       -2.083  -6.777   0.718  0.00  0.00    -0.090 A 
ATOM     15  C   LIG    1       -1.657  -7.839  -0.058  0.00  0.00    +0.070 A 
ATOM     16  C   LIG    1       -0.510  -7.729  -0.824  0.00  0.00    -0.030 A 
ATOM     17  C   LIG    1        0.216  -6.555  -0.824  0.00  0.00    +0.110 A 
ATOM     18  C   LIG    1       -0.201  -5.480  -0.041  0.00  0.00    -0.060 A 
BRANCH  13  20
ATOM     19  C   LIG    1       -2.972  -4.741   2.257  0.00  0.00    +0.250 C 
ATOM     20  O   LIG    1       -1.779  -4.551   1.494  0.00  0.00    -0.310 OA
ENDBRANCH  13  20
ENDBRANCH   1  18
BRANCH   3  21
ATOM     21  C   LIG    1        1.023  -0.699  -0.259  0.00  0.00    +0.150 A 
ATOM     22  C   LIG    1       -0.226  -0.136  -0.485  0.00  0.00    +0.030 A 
ATOM     23  C   LIG    1       -0.350   1.234  -0.615  0.00  0.00    +0.040 A 
ATOM     24  C   LIG    1        0.767   2.043  -0.521  0.00  0.00    +0.000 A 
ATOM     25  C   LIG    1        2.012   1.485  -0.295  0.00  0.00    +0.050 A 
ATOM     26  C   LIG    1        2.143   0.117  -0.164  0.00  0.00    -0.010 A 
ENDBRANCH   3  21
TORSDOF 4
