REMARK  Name = ZINCrD00000F5LqI.0
REMARK                            x       y       z     vdW  Elec       q    Type
REMARK                         _______ _______ _______ _____ _____    ______ ____
ROOT
ATOM      1  C   LIG    1        2.474   1.416  -0.014  0.00  0.00    +0.190 A 
ATOM      2  C   LIG    1        3.214   2.585  -0.015  0.00  0.00    +0.110 A 
ATOM      3  N   LIG    1        2.359   3.619  -0.001  0.00  0.00    -0.420 NA
ATOM      4  C   LIG    1        1.120   3.160   0.008  0.00  0.00    +0.150 A 
ATOM      5  C   LIG    1       -0.138   3.796   0.023  0.00  0.00    +0.410 A 
ATOM      6  N   LIG    1       -1.232   3.073   0.029  0.00  0.00    -0.470 NA
ATOM      7  C   LIG    1       -1.187   1.737   0.017  0.00  0.00    +0.080 A 
ATOM      8  C   LIG    1       -0.013   1.076   0.008  0.00  0.00    +0.150 A 
ATOM      9  C   LIG    1       -2.475   0.955   0.019  0.00  0.00    +0.150 C 
ATOM     10  N   LIG    1        1.164   1.781   0.001  0.00  0.00    -0.370 N 
ENDROOT
BRANCH   2  11
ATOM     11  C   LIG    1        4.694   2.679  -0.029  0.00  0.00    +0.150 A 
ATOM     12  N   LIG    1        5.535   1.666  -0.043  0.00  0.00    -0.270 NA
ATOM     13  N   LIG    1        6.837   2.181  -0.053  0.00  0.00    -0.370 N 
ATOM     14  C   LIG    1        6.757   3.529  -0.044  0.00  0.00    +0.230 A 
ATOM     15  C   LIG    1        8.073   1.394  -0.070  0.00  0.00    +0.350 C 
ATOM     16  C   LIG    1        5.449   3.869  -0.035  0.00  0.00    -0.200 A 
ATOM     17  C   LIG    1        4.897   5.271  -0.030  0.00  0.00    +0.130 C 
ENDBRANCH   2  11
BRANCH   1  18
ATOM     18  N   LIG    1        2.975   0.116  -0.025  0.00  0.00    -0.560 N 
ATOM     19  H   LIG    1        3.589  -0.028  -0.813  0.00  0.00    +0.370 HD
BRANCH  18  20
ATOM     20  C   LIG    1        1.884  -0.868  -0.021  0.00  0.00    +0.220 C 
BRANCH  20  24
ATOM     21  C   LIG    1        3.525  -4.814  -0.058  0.00  0.00    +0.140 A 
ATOM     22  C   LIG    1        3.269  -4.179   1.149  0.00  0.00    -0.020 A 
ATOM     23  C   LIG    1        2.739  -2.903   1.158  0.00  0.00    +0.080 A 
ATOM     24  C   LIG    1        2.463  -2.259  -0.034  0.00  0.00    -0.130 A 
ATOM     25  C   LIG    1        2.712  -2.892  -1.238  0.00  0.00    +0.050 A 
ATOM     26  C   LIG    1        3.248  -4.165  -1.253  0.00  0.00    -0.080 A 
BRANCH  21  28
ATOM     27  C   LIG    1        4.284  -6.661  -1.349  0.00  0.00    +0.250 C 
ATOM     28  O   LIG    1        4.046  -6.069  -0.070  0.00  0.00    -0.320 OA
ENDBRANCH  21  28
ENDBRANCH  20  24
ENDBRANCH  18  20
ENDBRANCH   1  18
TORSDOF 5
