REMARK  Name = ZINCqH0000008vX0.0
REMARK                            x       y       z     vdW  Elec       q    Type
REMARK                         _______ _______ _______ _____ _____    ______ ____
ROOT
ATOM      1  C   LIG    1       -3.219   7.479  -0.286  0.00  0.00    +0.150 A 
ATOM      2  C   LIG    1       -4.457   7.176   0.269  0.00  0.00    +0.020 A 
ATOM      3  C   LIG    1       -5.532   8.022   0.072  0.00  0.00    +0.040 A 
ATOM      4  C   LIG    1       -5.386   9.166  -0.685  0.00  0.00    +0.030 A 
ATOM      5  C   LIG    1       -4.149   9.476  -1.251  0.00  0.00    -0.020 A 
ATOM      6  C   LIG    1       -3.063   8.626  -1.048  0.00  0.00    +0.090 A 
ENDROOT
BRANCH   5   7
ATOM      7  C   LIG    1       -3.990  10.703  -2.063  0.00  0.00    +0.290 A 
ATOM      8  N   LIG    1       -2.855  11.291  -2.379  0.00  0.00    -0.310 NA
ATOM      9  N   LIG    1       -3.073  12.335  -3.094  0.00  0.00    -0.040 NA
ATOM     10  N   LIG    1       -4.338  12.491  -3.287  0.00  0.00    -0.080 NA
ATOM     11  N   LIG    1       -4.985  11.431  -2.628  0.00  0.00    -0.350 N 
BRANCH  11  12
ATOM     12  C   LIG    1       -6.425  11.170  -2.562  0.00  0.00    +0.210 C 
ATOM     13  C   LIG    1       -7.352  12.135  -3.304  0.00  0.00    +0.090 C 
ATOM     14  C   LIG    1       -7.287  12.160  -1.775  0.00  0.00    +0.060 C 
ENDBRANCH  11  12
ENDBRANCH   5   7
BRANCH   1  16
ATOM     15  C   LIG    1       -0.891   7.129   0.060  0.00  0.00    +0.530 C 
ATOM     16  N   LIG    1       -2.132   6.622  -0.080  0.00  0.00    -0.670 N 
ATOM     17  H   LIG    1       -2.271   5.663  -0.038  0.00  0.00    +0.420 HD
ATOM     18  O   LIG    1       -0.703   8.319  -0.082  0.00  0.00    -0.490 OA
BRANCH  15  20
ATOM     19  C   LIG    1        0.817   5.606  -0.895  0.00  0.00    +0.080 C 
ATOM     20  C   LIG    1        0.262   6.218   0.393  0.00  0.00    +0.000 C 
BRANCH  20  21
ATOM     21  S   LIG    1        1.566   7.171   1.219  0.00  0.00    -0.070 S 
BRANCH  21  22
ATOM     22  C   LIG    1        2.686   5.923   1.761  0.00  0.00    -0.140 A 
ATOM     23  C   LIG    1        2.566   5.387   3.038  0.00  0.00    +0.060 A 
ATOM     24  C   LIG    1        3.450   4.414   3.461  0.00  0.00    +0.000 A 
ATOM     25  C   LIG    1        4.452   3.972   2.616  0.00  0.00    +0.040 A 
ATOM     26  C   LIG    1        4.574   4.504   1.345  0.00  0.00    +0.000 A 
ATOM     27  C   LIG    1        3.694   5.478   0.915  0.00  0.00    +0.060 A 
ENDBRANCH  21  22
ENDBRANCH  20  21
ENDBRANCH  15  20
ENDBRANCH   1  16
TORSDOF 6
