REMARK  Name = ZINCrD00000bGMOu.0
REMARK                            x       y       z     vdW  Elec       q    Type
REMARK                         _______ _______ _______ _____ _____    ______ ____
ROOT
ATOM      1  C   LIG    1        1.176   1.711   0.010  0.00  0.00    +0.080 A 
ATOM      2  C   LIG    1        1.127   3.095  -0.092  0.00  0.00    +0.070 A 
ATOM      3  C   LIG    1        2.296   3.829  -0.085  0.00  0.00    -0.050 A 
ATOM      4  C   LIG    1        3.521   3.183   0.014  0.00  0.00    +0.210 A 
ATOM      5  C   LIG    1        3.570   1.799   0.111  0.00  0.00    -0.060 A 
ATOM      6  C   LIG    1        2.401   1.065   0.110  0.00  0.00    +0.030 A 
ENDROOT
BRANCH   1   8
ATOM      7  C   LIG    1       -1.118   1.460   0.596  0.00  0.00    +0.520 C 
ATOM      8  N   LIG    1       -0.011   0.966   0.007  0.00  0.00    -0.670 N 
ATOM      9  H   LIG    1       -0.037   0.096  -0.422  0.00  0.00    +0.410 HD
ATOM     10  O   LIG    1       -1.110   2.581   1.059  0.00  0.00    -0.520 OA
BRANCH   7  11
ATOM     11  C   LIG    1       -2.366   0.619   0.680  0.00  0.00    +0.050 C 
BRANCH  11  12
ATOM     12  C   LIG    1       -3.467   1.409   1.390  0.00  0.00    +0.130 C 
BRANCH  12  13
ATOM     13  C   LIG    1       -4.734   0.556   1.475  0.00  0.00    +0.040 C 
ATOM     14  N   LIG    1       -4.595  -0.902   1.527  0.00  0.00    -0.120 NA
ATOM     15  N   LIG    1       -4.974  -0.448   0.435  0.00  0.00    -0.120 NA
BRANCH  13  16
ATOM     16  C   LIG    1       -5.939   1.202   2.161  0.00  0.00    +0.120 C 
BRANCH  16  17
ATOM     17  C   LIG    1       -7.113   0.220   2.160  0.00  0.00    +0.160 C 
BRANCH  17  19
ATOM     18  C   LIG    1       -9.197   1.337   3.347  0.00  0.00    +0.030 C 
ATOM     19  C   LIG    1       -8.273   0.842   2.821  0.00  0.00    -0.190 C 
ENDBRANCH  17  19
ENDBRANCH  16  17
ENDBRANCH  13  16
ENDBRANCH  12  13
ENDBRANCH  11  12
ENDBRANCH   7  11
ENDBRANCH   1   8
BRANCH   4  20
ATOM     20  N   LIG    1        4.706   3.927   0.017  0.00  0.00    -0.630 N 
ATOM     21  C   LIG    1        5.999   3.245   0.121  0.00  0.00    +0.270 C 
BRANCH  20  22
ATOM     22  C   LIG    1        4.654   5.388  -0.086  0.00  0.00    +0.360 C 
BRANCH  22  23
ATOM     23  C   LIG    1        4.573   5.985   1.295  0.00  0.00    -0.260 A 
ATOM     24  C   LIG    1        5.622   6.343   2.071  0.00  0.00    +0.240 A 
ATOM     25  N   LIG    1        5.130   6.835   3.227  0.00  0.00    -0.380 N 
ATOM     26  N   LIG    1        3.732   6.778   3.160  0.00  0.00    -0.300 NA
ATOM     27  C   LIG    1        5.919   7.340   4.354  0.00  0.00    +0.360 C 
ATOM     28  C   LIG    1        3.399   6.274   1.999  0.00  0.00    +0.240 A 
ENDBRANCH  22  23
ENDBRANCH  20  22
ENDBRANCH   4  20
TORSDOF 10
