REMARK  Name = ZINCrg000000tJDn.0
REMARK                            x       y       z     vdW  Elec       q    Type
REMARK                         _______ _______ _______ _____ _____    ______ ____
ROOT
ATOM      1  S   LIG    1       -0.315   3.997   2.435  0.00  0.00    +2.700 S 
ATOM      2  O   LIG    1       -0.061   5.278   1.874  0.00  0.00    -0.940 OA
ATOM      3  O   LIG    1        0.673   3.241   3.122  0.00  0.00    -0.940 OA
ENDROOT
BRANCH   1   4
ATOM      4  C   LIG    1       -1.655   4.204   3.561  0.00  0.00    -0.680 A 
ATOM      5  C   LIG    1       -1.827   3.308   4.599  0.00  0.00    +0.160 A 
ATOM      6  C   LIG    1       -2.877   3.466   5.484  0.00  0.00    +0.040 A 
ATOM      7  C   LIG    1       -3.760   4.526   5.330  0.00  0.00    +0.200 A 
ATOM      8  C   LIG    1       -3.584   5.426   4.284  0.00  0.00    +0.060 A 
ATOM      9  F   LIG    1       -4.441   6.459   4.130  0.00  0.00    -0.120 F 
ATOM     10  C   LIG    1       -2.528   5.265   3.406  0.00  0.00    +0.140 A 
BRANCH   7  11
ATOM     11  N   LIG    1       -4.826   4.689   6.226  0.00  0.00    -0.340 N 
ATOM     12  C   LIG    1       -5.753   5.672   6.190  0.00  0.00    +0.240 A 
ATOM     13  C   LIG    1       -6.604   5.474   7.223  0.00  0.00    -0.090 A 
ATOM     14  C   LIG    1       -6.184   4.332   7.914  0.00  0.00    +0.270 A 
ATOM     15  N   LIG    1       -5.122   3.858   7.315  0.00  0.00    -0.290 NA
ENDBRANCH   7  11
ENDBRANCH   1   4
BRANCH   1  20
ATOM     16  C   LIG    1       -0.747   3.124  -1.240  0.00  0.00    -0.030 C 
ATOM     17  C   LIG    1       -0.754   1.593  -1.231  0.00  0.00    +0.020 C 
ATOM     18  C   LIG    1       -0.013   1.086   0.008  0.00  0.00    +0.040 C 
ATOM     19  C   LIG    1       -0.731   1.581   1.267  0.00  0.00    +0.290 C 
ATOM     20  N   LIG    1       -0.858   3.043   1.196  0.00  0.00    -1.000 NA
ATOM     21  C   LIG    1       -1.474   3.642   0.004  0.00  0.00    +0.300 C 
BRANCH  16  22
ATOM     22  C   LIG    1       -1.460   3.630  -2.496  0.00  0.00    +0.250 C 
BRANCH  22  23
ATOM     23  N   LIG    1       -0.698   3.231  -3.686  0.00  0.00    -0.480 N 
ATOM     24  H   LIG    1       -0.630   2.225  -3.721  0.00  0.00    +0.430 HD
ATOM     25  H   LIG    1        0.229   3.629  -3.642  0.00  0.00    +0.430 HD
BRANCH  23  26
ATOM     26  C   LIG    1       -1.382   3.717  -4.892  0.00  0.00    +0.180 C 
BRANCH  26  28
ATOM     27  O   LIG    1        0.432   2.669  -5.991  0.00  0.00    -0.680 OA
ATOM     28  C   LIG    1       -0.600   3.307  -6.113  0.00  0.00    +0.480 C 
ATOM     29  O   LIG    1       -0.999   3.614  -7.224  0.00  0.00    -0.640 OA
ENDBRANCH  26  28
ENDBRANCH  23  26
ENDBRANCH  22  23
ENDBRANCH  16  22
ENDBRANCH   1  20
TORSDOF 7
