REMARK  Name = ZINCqH0000001Eex.0
REMARK                            x       y       z     vdW  Elec       q    Type
REMARK                         _______ _______ _______ _____ _____    ______ ____
ROOT
ATOM      1  C   LIG    1       -1.166  -0.705   0.118  0.00  0.00    +0.360 A 
ATOM      2  N   LIG    1       -1.191  -2.012   0.109  0.00  0.00    -0.520 NA
ATOM      3  C   LIG    1       -0.049  -2.748  -0.005  0.00  0.00    +0.180 A 
ATOM      4  C   LIG    1        1.163  -2.075  -0.119  0.00  0.00    -0.340 A 
ATOM      5  C   LIG    1        1.173  -0.663  -0.115  0.00  0.00    +0.580 A 
ATOM      6  O   LIG    1        2.223  -0.049  -0.213  0.00  0.00    -0.510 OA
ATOM      7  S   LIG    1        2.474  -3.241  -0.252  0.00  0.00    +0.230 S 
ATOM      8  C   LIG    1        1.347  -4.584  -0.148  0.00  0.00    +0.010 A 
ATOM      9  C   LIG    1        0.103  -4.140  -0.025  0.00  0.00    +0.030 A 
ATOM     10  N   LIG    1        0.002  -0.004   0.002  0.00  0.00    -0.470 N 
ENDROOT
BRANCH  10  11
ATOM     11  C   LIG    1       -0.017   1.397   0.010  0.00  0.00    +0.090 A 
ATOM     12  C   LIG    1       -0.143   2.097  -1.182  0.00  0.00    +0.040 A 
ATOM     13  C   LIG    1       -0.167   3.478  -1.171  0.00  0.00    +0.030 A 
ATOM     14  C   LIG    1       -0.054   4.163   0.025  0.00  0.00    +0.030 A 
ATOM     15  C   LIG    1        0.078   3.468   1.213  0.00  0.00    +0.030 A 
ATOM     16  C   LIG    1        0.096   2.087   1.209  0.00  0.00    +0.040 A 
ENDBRANCH  10  11
BRANCH   1  17
ATOM     17  S   LIG    1       -2.683   0.178   0.277  0.00  0.00    +0.100 S 
BRANCH  17  18
ATOM     18  C   LIG    1       -3.843  -1.207   0.389  0.00  0.00    +0.100 C 
BRANCH  18  21
ATOM     19  N   LIG    1       -6.282  -1.531   0.637  0.00  0.00    -0.720 N 
ATOM     20  H   LIG    1       -6.126  -2.488   0.617  0.00  0.00    +0.400 HD
ATOM     21  C   LIG    1       -5.246  -0.676   0.535  0.00  0.00    +0.530 C 
ATOM     22  O   LIG    1       -5.442   0.521   0.560  0.00  0.00    -0.520 OA
BRANCH  19  23
ATOM     23  C   LIG    1       -7.646  -1.015   0.779  0.00  0.00    +0.240 C 
ATOM     24  C   LIG    1       -8.223  -0.711  -0.606  0.00  0.00    +0.020 C 
BRANCH  23  26
ATOM     25  C   LIG    1       -9.942  -1.523   1.624  0.00  0.00    +0.030 C 
ATOM     26  C   LIG    1       -8.518  -2.062   1.476  0.00  0.00    -0.020 C 
ATOM     27  C   LIG    1       -8.541  -3.344   0.641  0.00  0.00    +0.020 C 
ENDBRANCH  23  26
ENDBRANCH  19  23
ENDBRANCH  18  21
ENDBRANCH  17  18
ENDBRANCH   1  17
TORSDOF 6
