REMARK  Name = ZINCpk00000ebHtK.0
REMARK                            x       y       z     vdW  Elec       q    Type
REMARK                         _______ _______ _______ _____ _____    ______ ____
ROOT
ATOM      1  C   LIG    1       -6.569   0.620   0.913  0.00  0.00    -0.110 A 
ATOM      2  C   LIG    1       -5.988   0.945   2.141  0.00  0.00    +0.080 A 
ATOM      3  C   LIG    1       -6.490   0.404   3.307  0.00  0.00    +0.030 A 
ATOM      4  C   LIG    1       -7.568  -0.460   3.265  0.00  0.00    +0.020 A 
ATOM      5  C   LIG    1       -8.154  -0.790   2.048  0.00  0.00    +0.130 A 
ATOM      6  C   LIG    1       -7.660  -0.248   0.872  0.00  0.00    +0.090 A 
ENDROOT
BRANCH   5   7
ATOM      7  N   LIG    1       -9.245  -1.666   2.012  0.00  0.00    -0.670 N 
ATOM      8  H   LIG    1       -9.885  -1.674   2.740  0.00  0.00    +0.410 HD
ATOM      9  C   LIG    1       -9.405  -2.499   0.964  0.00  0.00    +0.510 C 
ATOM     10  O   LIG    1       -8.555  -2.558   0.101  0.00  0.00    -0.490 OA
BRANCH   9  11
ATOM     11  C   LIG    1      -10.640  -3.357   0.866  0.00  0.00    +0.170 C 
ATOM     12  C   LIG    1      -11.890  -2.474   0.621  0.00  0.00    +0.040 C 
ATOM     13  C   LIG    1      -12.839  -3.492  -0.069  0.00  0.00    +0.020 C 
ATOM     14  C   LIG    1      -11.853  -4.364  -0.876  0.00  0.00    +0.210 C 
ATOM     15  O   LIG    1      -10.559  -4.219  -0.280  0.00  0.00    -0.350 OA
ENDBRANCH   9  11
ENDBRANCH   5   7
BRANCH   1  17
ATOM     16  O   LIG    1       -6.540   0.913  -1.403  0.00  0.00    -0.500 OA
ATOM     17  C   LIG    1       -6.033   1.198  -0.337  0.00  0.00    +0.510 C 
BRANCH  17  18
ATOM     18  O   LIG    1       -4.983   2.040  -0.293  0.00  0.00    -0.340 OA
BRANCH  18  19
ATOM     19  C   LIG    1       -4.510   2.570  -1.560  0.00  0.00    +0.210 C 
BRANCH  19  20
ATOM     20  C   LIG    1       -3.321   3.500  -1.312  0.00  0.00    +0.360 C 
BRANCH  20  21
ATOM     21  N   LIG    1       -2.200   2.727  -0.772  0.00  0.00    -0.630 N 
ATOM     22  C   LIG    1       -1.153   2.069  -1.569  0.00  0.00    +0.240 C 
ATOM     23  C   LIG    1       -0.246   1.412  -0.510  0.00  0.00    +0.260 C 
ATOM     24  O   LIG    1       -0.868   1.764   0.759  0.00  0.00    -0.330 OA
ATOM     25  C   LIG    1       -1.962   2.502   0.527  0.00  0.00    +0.640 C 
ATOM     26  O   LIG    1       -2.673   2.930   1.415  0.00  0.00    -0.510 OA
ENDBRANCH  20  21
ENDBRANCH  19  20
ENDBRANCH  18  19
ENDBRANCH  17  18
ENDBRANCH   1  17
TORSDOF 7
