REMARK  Name = ZINCpe000000Yntr.1
REMARK                            x       y       z     vdW  Elec       q    Type
REMARK                         _______ _______ _______ _____ _____    ______ ____
ROOT
ATOM      1  N   LIG    1        0.559   5.362  -3.040  0.00  0.00    -0.450 N 
ATOM      2  C   LIG    1       -0.226   4.360  -3.772  0.00  0.00    +0.230 C 
ATOM      3  C   LIG    1       -1.258   3.735  -2.828  0.00  0.00    +0.310 C 
ATOM      4  N   LIG    1       -0.557   3.228  -1.639  0.00  0.00    -0.620 N 
ATOM      5  C   LIG    1        0.352   4.138  -0.926  0.00  0.00    +0.300 C 
ATOM      6  C   LIG    1       -0.747   1.964  -1.211  0.00  0.00    +0.530 C 
ATOM      7  O   LIG    1       -1.504   1.228  -1.808  0.00  0.00    -0.520 OA
ATOM      8  C   LIG    1        1.325   4.745  -1.949  0.00  0.00    +0.180 C 
ENDROOT
BRANCH   1  14
ATOM      9  C   LIG    1        2.479   7.616  -2.213  0.00  0.00    +0.340 C 
ATOM     10  N   LIG    1        2.251   7.067  -3.552  0.00  0.00    -0.490 N 
ATOM     11  C   LIG    1        2.857   7.452  -4.716  0.00  0.00    +0.370 A 
ATOM     12  N   LIG    1        2.366   6.714  -5.671  0.00  0.00    -0.280 NA
ATOM     13  N   LIG    1        1.500   5.893  -5.193  0.00  0.00    -0.320 NA
ATOM     14  C   LIG    1        1.393   6.064  -3.897  0.00  0.00    +0.360 A 
ENDBRANCH   1  14
BRANCH   6  15
ATOM     15  C   LIG    1       -0.018   1.465   0.010  0.00  0.00    +0.190 C 
BRANCH  15  16
ATOM     16  N   LIG    1        0.002  -0.004   0.002  0.00  0.00    -0.830 NA
ATOM     17  H   LIG    1       -0.935  -0.378   0.009  0.00  0.00    +0.360 HD
ATOM     18  H   LIG    1        0.540  -0.363   0.776  0.00  0.00    +0.350 HD
ENDBRANCH  15  16
BRANCH  15  19
ATOM     19  C   LIG    1       -0.734   1.958   1.269  0.00  0.00    +0.070 C 
BRANCH  19  20
ATOM     20  C   LIG    1        0.061   1.564   2.487  0.00  0.00    -0.110 A 
ATOM     21  C   LIG    1        0.879   2.489   3.107  0.00  0.00    +0.060 A 
ATOM     22  C   LIG    1        1.609   2.128   4.225  0.00  0.00    +0.030 A 
ATOM     23  C   LIG    1        1.521   0.841   4.723  0.00  0.00    +0.070 A 
ATOM     24  C   LIG    1        0.704  -0.087   4.104  0.00  0.00    -0.070 A 
ATOM     25 CL   LIG    1        0.594  -1.702   4.729  0.00  0.00    -0.040 Cl
ATOM     26  C   LIG    1       -0.032   0.276   2.987  0.00  0.00    +0.110 A 
ATOM     27  F   LIG    1       -0.835  -0.627   2.384  0.00  0.00    -0.120 F 
ENDBRANCH  19  20
ENDBRANCH  15  19
ENDBRANCH   6  15
TORSDOF 5
