REMARK  Name = ZINCqH00000055GV.1
REMARK                            x       y       z     vdW  Elec       q    Type
REMARK                         _______ _______ _______ _____ _____    ______ ____
ROOT
ATOM      1  N   LIG    1        4.539   0.243  -1.045  0.00  0.00    -0.740 N 
ATOM      2  H   LIG    1        4.913   0.213  -0.151  0.00  0.00    +0.410 HD
ATOM      3  C   LIG    1        5.259  -0.205  -2.092  0.00  0.00    +0.710 C 
ATOM      4  N   LIG    1        6.499  -0.696  -1.897  0.00  0.00    -0.740 N 
ATOM      5  H   LIG    1        6.873  -0.727  -1.002  0.00  0.00    +0.400 HD
ATOM      6  O   LIG    1        4.790  -0.167  -3.214  0.00  0.00    -0.590 OA
ENDROOT
BRANCH   1   7
ATOM      7  C   LIG    1        3.191   0.777  -1.258  0.00  0.00    +0.300 C 
BRANCH   7   8
ATOM      8  C   LIG    1        2.561   1.123   0.092  0.00  0.00    +0.250 C 
BRANCH   8   9
ATOM      9  C   LIG    1        1.227   1.787  -0.132  0.00  0.00    -0.220 A 
ATOM     10  C   LIG    1        0.039   1.228   0.106  0.00  0.00    +0.020 A 
ATOM     11  C   LIG    1       -1.052   2.030  -0.182  0.00  0.00    +0.000 A 
ATOM     12  C   LIG    1       -0.750   3.245  -0.643  0.00  0.00    -0.060 A 
ATOM     13  S   LIG    1        0.997   3.419  -0.746  0.00  0.00    +0.110 S 
ENDBRANCH   8   9
BRANCH   8  15
ATOM     14  C   LIG    1        3.929   3.116  -0.047  0.00  0.00    +0.200 C 
ATOM     15  N   LIG    1        3.446   2.037   0.826  0.00  0.00    -0.530 NA
ATOM     16  C   LIG    1        2.773   2.582   2.013  0.00  0.00    +0.200 C 
ENDBRANCH   8  15
ENDBRANCH   7   8
ENDBRANCH   1   7
BRANCH   4  17
ATOM     17  C   LIG    1        7.282  -1.184  -3.035  0.00  0.00    +0.350 C 
BRANCH  17  18
ATOM     18  C   LIG    1        8.621  -1.675  -2.550  0.00  0.00    -0.120 A 
ATOM     19  C   LIG    1        9.739  -0.873  -2.674  0.00  0.00    +0.080 A 
ATOM     20  C   LIG    1       10.968  -1.323  -2.228  0.00  0.00    -0.010 A 
ATOM     21  C   LIG    1       11.082  -2.578  -1.658  0.00  0.00    +0.070 A 
ATOM     22  C   LIG    1        9.967  -3.385  -1.532  0.00  0.00    -0.050 A 
ATOM     23  C   LIG    1        8.732  -2.932  -1.973  0.00  0.00    +0.120 A 
BRANCH  23  24
ATOM     24  O   LIG    1        7.633  -3.722  -1.844  0.00  0.00    -0.300 OA
BRANCH  24  25
ATOM     25  C   LIG    1        7.822  -5.003  -1.241  0.00  0.00    +0.600 C 
ATOM     26  F   LIG    1        8.732  -5.747  -2.000  0.00  0.00    -0.160 F 
ATOM     27  F   LIG    1        6.598  -5.679  -1.188  0.00  0.00    -0.130 F 
ATOM     28  F   LIG    1        8.320  -4.839   0.056  0.00  0.00    -0.160 F 
ENDBRANCH  24  25
ENDBRANCH  23  24
ENDBRANCH  17  18
ENDBRANCH   4  17
TORSDOF 8
