REMARK  Name = ZINCpk00000KfLKL.0
REMARK                            x       y       z     vdW  Elec       q    Type
REMARK                         _______ _______ _______ _____ _____    ______ ____
ROOT
ATOM      1  C   LIG    1       -1.591  -6.600  -0.682  0.00  0.00    +0.050 C 
ENDROOT
BRANCH   1   2
ATOM      2  C   LIG    1       -1.330  -8.014  -1.135  0.00  0.00    +0.520 C 
ATOM      3  N   LIG    1       -2.363  -8.848  -1.368  0.00  0.00    -0.620 N 
ATOM      4  C   LIG    1       -3.748  -8.395  -1.180  0.00  0.00    +0.270 C 
ATOM      5  C   LIG    1       -4.519  -8.631  -2.490  0.00  0.00    +0.270 C 
ATOM      6  N   LIG    1       -4.279 -10.012  -2.931  0.00  0.00    -0.620 N 
ATOM      7  C   LIG    1       -2.894 -10.467  -3.114  0.00  0.00    +0.280 C 
ATOM      8  C   LIG    1       -5.312 -10.847  -3.164  0.00  0.00    +0.520 C 
ATOM      9  O   LIG    1       -5.102 -12.010  -3.435  0.00  0.00    -0.530 OA
ATOM     10  C   LIG    1       -2.123 -10.229  -1.810  0.00  0.00    +0.280 C 
ATOM     11  O   LIG    1       -0.191  -8.401  -1.289  0.00  0.00    -0.530 OA
BRANCH   8  12
ATOM     12  C   LIG    1       -6.727 -10.334  -3.086  0.00  0.00    -0.030 C 
ATOM     13  C   LIG    1       -7.234 -10.453  -1.647  0.00  0.00    +0.050 C 
ATOM     14  C   LIG    1       -7.620 -11.162  -4.012  0.00  0.00    +0.060 C 
ENDBRANCH   8  12
ENDBRANCH   1   2
BRANCH   1  15
ATOM     15  C   LIG    1       -0.259  -5.872  -0.491  0.00  0.00    +0.290 C 
BRANCH  15  17
ATOM     16  C   LIG    1        0.520  -3.663   0.182  0.00  0.00    +0.560 C 
ATOM     17  N   LIG    1       -0.513  -4.498  -0.051  0.00  0.00    -0.730 N 
ATOM     18  H   LIG    1       -1.424  -4.188   0.072  0.00  0.00    +0.400 HD
ATOM     19  O   LIG    1        1.661  -4.051   0.028  0.00  0.00    -0.520 OA
BRANCH  16  26
ATOM     20  C   LIG    1        2.741  -1.969   0.934  0.00  0.00    +0.120 C 
ATOM     21  C   LIG    1        1.328  -1.450   0.992  0.00  0.00    -0.020 A 
ATOM     22  C   LIG    1        1.082  -0.157   1.405  0.00  0.00    +0.000 A 
ATOM     23  C   LIG    1       -0.216   0.321   1.458  0.00  0.00    +0.040 A 
ATOM     24  C   LIG    1       -1.274  -0.493   1.097  0.00  0.00    -0.010 A 
ATOM     25  C   LIG    1       -1.042  -1.788   0.682  0.00  0.00    +0.040 A 
ATOM     26  C   LIG    1        0.264  -2.277   0.626  0.00  0.00    -0.140 A 
ENDBRANCH  16  26
ENDBRANCH  15  17
ENDBRANCH   1  15
TORSDOF 5
