REMARK  Name = ZINCb80000003WkG.0
REMARK                            x       y       z     vdW  Elec       q    Type
REMARK                         _______ _______ _______ _____ _____    ______ ____
ROOT
ATOM      1  C   LIG    1        1.468   4.364   0.012  0.00  0.00    +0.360 C 
ATOM      2  N   LIG    1        0.630   3.162   0.013  0.00  0.00    -0.360 N 
ATOM      3  N   LIG    1       -0.771   3.134   0.026  0.00  0.00    -0.270 NA
ATOM      4  C   LIG    1       -1.155   1.883   0.017  0.00  0.00    +0.240 A 
ATOM      5  C   LIG    1       -0.013   1.076   0.008  0.00  0.00    -0.080 A 
ATOM      6  C   LIG    1        1.071   1.887   0.002  0.00  0.00    +0.060 A 
ENDROOT
BRANCH   6   7
ATOM      7  C   LIG    1        2.511   1.445  -0.014  0.00  0.00    -0.240 C 
BRANCH   7   8
ATOM      8  S   LIG    1        3.074   1.277  -1.730  0.00  0.00    +2.580 S 
ATOM      9  F   LIG    1        4.660   1.028  -1.611  0.00  0.00    -0.470 F 
ATOM     10  O   LIG    1        2.965   2.518  -2.414  0.00  0.00    -0.920 OA
ATOM     11  O   LIG    1        2.572   0.077  -2.304  0.00  0.00    -0.910 OA
ENDBRANCH   7   8
ENDBRANCH   6   7
TORSDOF 2
