REMARK  Name = ZINCc70000002Lr3.0
REMARK                            x       y       z     vdW  Elec       q    Type
REMARK                         _______ _______ _______ _____ _____    ______ ____
ROOT
ATOM      1  C   LIG    1       -1.157   1.881   0.017  0.00  0.00    -0.190 A 
ATOM      2  C   LIG    1       -0.756   3.173   0.025  0.00  0.00    +0.370 A 
ATOM      3  N   LIG    1        0.593   3.186   0.013  0.00  0.00    -0.350 N 
ATOM      4  N   LIG    1        1.037   1.857   0.002  0.00  0.00    -0.270 NA
ATOM      5  C   LIG    1       -0.013   1.076   0.008  0.00  0.00    +0.330 A 
ENDROOT
BRANCH   1   7
ATOM      6  O   LIG    1       -2.793   0.207   0.015  0.00  0.00    -0.160 OA
ATOM      7  N   LIG    1       -2.558   1.403   0.020  0.00  0.00    +0.070 N 
ATOM      8  O   LIG    1       -3.474   2.204   0.028  0.00  0.00    -0.170 OA
ENDBRANCH   1   7
BRANCH   3   9
ATOM      9  C   LIG    1        1.444   4.379   0.011  0.00  0.00    +0.380 C 
BRANCH   9  10
ATOM     10  C   LIG    1        2.424   4.308   1.183  0.00  0.00    +0.110 C 
ATOM     11  C   LIG    1        3.463   5.423   1.312  0.00  0.00    +0.230 C 
ATOM     12  O   LIG    1        2.336   5.322   2.187  0.00  0.00    -0.350 OA
ENDBRANCH   9  10
ENDBRANCH   3   9
TORSDOF 3
