REMARK  Name = ZINCrD0000075L46.1
REMARK                            x       y       z     vdW  Elec       q    Type
REMARK                         _______ _______ _______ _____ _____    ______ ____
ROOT
ATOM      1  C   LIG    1        0.111   1.819   0.049  0.00  0.00    +0.060 A 
ATOM      2  C   LIG    1        1.205   2.098   0.865  0.00  0.00    +0.120 A 
ATOM      3  C   LIG    1        2.284   1.233   0.838  0.00  0.00    -0.010 A 
ATOM      4  C   LIG    1        2.242   0.123   0.004  0.00  0.00    +0.300 A 
ATOM      5  N   LIG    1        1.187  -0.111  -0.758  0.00  0.00    -0.510 NA
ATOM      6  C   LIG    1        0.140   0.691  -0.758  0.00  0.00    +0.280 A 
ENDROOT
BRANCH   1   9
ATOM      7  O   LIG    1        0.254   4.445   0.465  0.00  0.00    -0.510 OA
ATOM      8  C   LIG    1       -0.848   3.991   0.222  0.00  0.00    +0.590 C 
ATOM      9  N   LIG    1       -1.006   2.664   0.047  0.00  0.00    -0.670 N 
ATOM     10  H   LIG    1       -1.894   2.294  -0.080  0.00  0.00    +0.410 HD
BRANCH   8  11
ATOM     11  C   LIG    1       -2.005   4.887   0.120  0.00  0.00    -0.060 A 
ATOM     12  C   LIG    1       -1.974   6.266   0.159  0.00  0.00    +0.060 A 
ATOM     13  C   LIG    1       -3.295   6.712   0.023  0.00  0.00    -0.050 A 
ATOM     14  C   LIG    1       -4.088   5.627  -0.085  0.00  0.00    +0.060 A 
ATOM     15  C   LIG    1       -5.589   5.592  -0.249  0.00  0.00    +0.290 C 
ATOM     16  N   LIG    1       -5.968   4.241  -0.700  0.00  0.00    -0.690 NA
ATOM     17  H   LIG    1       -6.971   4.140  -0.734  0.00  0.00    +0.360 HD
ATOM     18  C   LIG    1       -5.362   3.209   0.152  0.00  0.00    +0.190 C 
ATOM     19  C   LIG    1       -3.852   3.144  -0.107  0.00  0.00    +0.280 C 
ATOM     20  N   LIG    1       -3.313   4.508  -0.025  0.00  0.00    -0.420 N 
ENDBRANCH   8  11
ENDBRANCH   1   9
BRANCH   4  21
ATOM     21  O   LIG    1        3.296  -0.732  -0.029  0.00  0.00    -0.240 OA
BRANCH  21  22
ATOM     22  C   LIG    1        3.267  -1.747  -0.934  0.00  0.00    +0.050 A 
ATOM     23  C   LIG    1        2.827  -3.004  -0.550  0.00  0.00    +0.090 A 
ATOM     24  C   LIG    1        2.793  -4.035  -1.471  0.00  0.00    +0.000 A 
ATOM     25  C   LIG    1        3.207  -3.815  -2.774  0.00  0.00    +0.140 A 
ATOM     26  C   LIG    1        3.652  -2.561  -3.158  0.00  0.00    -0.020 A 
ATOM     27  F   LIG    1        3.178  -4.824  -3.671  0.00  0.00    -0.130 F 
ATOM     28  C   LIG    1        3.683  -1.526  -2.241  0.00  0.00    +0.130 A 
ATOM     29  F   LIG    1        4.117  -0.303  -2.615  0.00  0.00    -0.120 F 
ENDBRANCH  21  22
ENDBRANCH   4  21
TORSDOF 4
