REMARK  Name = ZINCvU0000000GYk.0
REMARK                            x       y       z     vdW  Elec       q    Type
REMARK                         _______ _______ _______ _____ _____    ______ ____
ROOT
ATOM      1  C   LIG    1        2.874   1.504  -4.636  0.00  0.00    +0.600 C 
ATOM      2  N   LIG    1        2.847   2.420  -5.625  0.00  0.00    -0.720 N 
ATOM      3  H   LIG    1        2.015   2.866  -5.849  0.00  0.00    +0.400 HD
ATOM      4  O   LIG    1        3.917   0.944  -4.355  0.00  0.00    -0.520 OA
ENDROOT
BRANCH   1  11
ATOM      5  C   LIG    1        0.783  -0.755  -5.407  0.00  0.00    +0.170 C 
ATOM      6  C   LIG    1        0.702   0.179  -4.227  0.00  0.00    +0.120 A 
ATOM      7  N   LIG    1       -0.244   0.201  -3.330  0.00  0.00    -0.270 NA
ATOM      8  N   LIG    1        0.034   1.209  -2.400  0.00  0.00    -0.340 N 
ATOM      9  C   LIG    1        1.188   1.803  -2.748  0.00  0.00    +0.170 A 
ATOM     10 CL   LIG    1        1.965   3.109  -1.909  0.00  0.00    +0.010 Cl
ATOM     11  C   LIG    1        1.642   1.182  -3.896  0.00  0.00    -0.260 A 
BRANCH   8  12
ATOM     12  C   LIG    1       -0.791   1.554  -1.240  0.00  0.00    +0.400 C 
BRANCH  12  13
ATOM     13  C   LIG    1       -1.794   2.608  -1.632  0.00  0.00    -0.120 A 
ATOM     14  C   LIG    1       -3.035   2.237  -2.113  0.00  0.00    +0.040 A 
ATOM     15  C   LIG    1       -3.953   3.204  -2.478  0.00  0.00    +0.010 A 
ATOM     16  C   LIG    1       -3.633   4.543  -2.353  0.00  0.00    +0.030 A 
ATOM     17  C   LIG    1       -2.392   4.915  -1.871  0.00  0.00    +0.010 A 
ATOM     18  C   LIG    1       -1.472   3.947  -1.511  0.00  0.00    +0.020 A 
ENDBRANCH  12  13
ENDBRANCH   8  12
ENDBRANCH   1  11
BRANCH   2  19
ATOM     19  C   LIG    1        4.072   2.740  -6.361  0.00  0.00    +0.280 C 
BRANCH  19  20
ATOM     20  C   LIG    1        3.768   3.801  -7.420  0.00  0.00    +0.070 C 
BRANCH  20  21
ATOM     21  C   LIG    1        4.998   4.042  -8.257  0.00  0.00    -0.070 A 
ATOM     22  C   LIG    1        6.204   4.332  -7.647  0.00  0.00    +0.010 A 
ATOM     23  C   LIG    1        7.333   4.548  -8.415  0.00  0.00    +0.000 A 
ATOM     24  C   LIG    1        7.253   4.484  -9.793  0.00  0.00    +0.000 A 
ATOM     25  C   LIG    1        6.046   4.200 -10.404  0.00  0.00    +0.000 A 
ATOM     26  C   LIG    1        4.918   3.979  -9.636  0.00  0.00    +0.010 A 
ENDBRANCH  20  21
BRANCH  20  27
ATOM     27  C   LIG    1        3.362   5.085  -6.743  0.00  0.00    -0.080 A 
ATOM     28  C   LIG    1        2.189   5.719  -7.110  0.00  0.00    +0.010 A 
ATOM     29  C   LIG    1        1.815   6.894  -6.486  0.00  0.00    +0.000 A 
ATOM     30  C   LIG    1        2.617   7.441  -5.502  0.00  0.00    +0.000 A 
ATOM     31  C   LIG    1        3.792   6.810  -5.139  0.00  0.00    +0.000 A 
ATOM     32  C   LIG    1        4.165   5.632  -5.760  0.00  0.00    +0.010 A 
ENDBRANCH  20  27
ENDBRANCH  19  20
ENDBRANCH   2  19
TORSDOF 7
