REMARK  Name = ZINCqH0000007v0v.0
REMARK                            x       y       z     vdW  Elec       q    Type
REMARK                         _______ _______ _______ _____ _____    ______ ____
ROOT
ATOM      1  N   LIG    1       -4.725   5.105   0.052  0.00  0.00    -0.630 N 
ATOM      2  H   LIG    1       -5.274   4.305   0.050  0.00  0.00    +0.420 HD
ATOM      3  C   LIG    1       -3.382   4.999   0.045  0.00  0.00    +0.590 C 
ATOM      4  O   LIG    1       -2.693   6.002   0.046  0.00  0.00    -0.490 OA
ENDROOT
BRANCH   1  12
ATOM      5  C   LIG    1       -9.155   6.412   0.079  0.00  0.00    +0.090 A 
ATOM      6  C   LIG    1       -9.283   7.800   0.087  0.00  0.00    +0.000 A 
ATOM      7  C   LIG    1       -8.178   8.603   0.086  0.00  0.00    +0.030 A 
ATOM      8  C   LIG    1       -6.905   8.038   0.077  0.00  0.00    +0.110 A 
ATOM      9  N   LIG    1       -5.637   8.563   0.074  0.00  0.00    -0.500 N 
ATOM     10  H   LIG    1       -5.419   9.508   0.078  0.00  0.00    +0.440 HD
ATOM     11  N   LIG    1       -4.708   7.517   0.069  0.00  0.00    -0.230 NA
ATOM     12  C   LIG    1       -5.328   6.367   0.061  0.00  0.00    +0.320 A 
ATOM     13  C   LIG    1       -6.766   6.638   0.069  0.00  0.00    -0.140 A 
ATOM     14  C   LIG    1       -7.906   5.827   0.070  0.00  0.00    +0.060 A 
BRANCH   5  16
ATOM     15  C   LIG    1      -11.530   6.299   0.090  0.00  0.00    +0.250 C 
ATOM     16  O   LIG    1      -10.268   5.630   0.081  0.00  0.00    -0.320 OA
ENDBRANCH   5  16
ENDBRANCH   1  12
BRANCH   3  17
ATOM     17  C   LIG    1       -2.747   3.669   0.035  0.00  0.00    -0.280 A 
ATOM     18  C   LIG    1       -1.391   3.408   0.027  0.00  0.00    +0.330 A 
ATOM     19  N   LIG    1       -1.239   2.071   0.019  0.00  0.00    -0.310 N 
ATOM     20  N   LIG    1       -2.508   1.481   0.016  0.00  0.00    -0.260 NA
ATOM     21  C   LIG    1       -3.412   2.422   0.031  0.00  0.00    +0.280 A 
BRANCH  19  22
ATOM     22  C   LIG    1       -0.017   1.385   0.010  0.00  0.00    +0.170 A 
ATOM     23  C   LIG    1        1.177   2.093   0.002  0.00  0.00    +0.010 A 
ATOM     24  C   LIG    1        2.381   1.414  -0.013  0.00  0.00    +0.060 A 
ATOM     25  C   LIG    1        2.397   0.032  -0.021  0.00  0.00    +0.020 A 
ATOM     26  C   LIG    1        1.209  -0.677  -0.013  0.00  0.00    +0.070 A 
ATOM     27  C   LIG    1        0.002  -0.004   0.002  0.00  0.00    -0.100 A 
ATOM     28 BR   LIG    1       -1.622  -0.973   0.012  0.00  0.00    +0.000 Br
ENDBRANCH  19  22
ENDBRANCH   3  17
TORSDOF 4
