REMARK  Name = ZINCnE000001KDKW.0
REMARK                            x       y       z     vdW  Elec       q    Type
REMARK                         _______ _______ _______ _____ _____    ______ ____
ROOT
ATOM      1  C   LIG    1        2.529   7.514  -1.013  0.00  0.00    +0.020 A 
ATOM      2  C   LIG    1        3.294   7.580  -2.178  0.00  0.00    +0.040 A 
ATOM      3  C   LIG    1        3.910   6.444  -2.661  0.00  0.00    +0.000 A 
ATOM      4  C   LIG    1        3.774   5.242  -1.990  0.00  0.00    +0.010 A 
ATOM      5  C   LIG    1        3.012   5.168  -0.837  0.00  0.00    -0.090 A 
ATOM      6  C   LIG    1        2.391   6.296  -0.343  0.00  0.00    +0.020 A 
ENDROOT
BRANCH   1   8
ATOM      7  C   LIG    1        1.933   9.969  -1.062  0.00  0.00    +0.120 A 
ATOM      8  C   LIG    1        1.867   8.727  -0.490  0.00  0.00    -0.250 A 
ATOM      9  S   LIG    1        0.871   8.791   0.957  0.00  0.00    +0.190 S 
ATOM     10  C   LIG    1        0.590  10.512   0.733  0.00  0.00    -0.160 A 
ATOM     11  C   LIG    1        1.237  10.943  -0.396  0.00  0.00    -0.040 A 
BRANCH  10  12
ATOM     12  C   LIG    1       -0.191  11.329   1.585  0.00  0.00    +0.540 C 
ATOM     13  O   LIG    1       -0.730  10.844   2.574  0.00  0.00    -0.680 OA
ATOM     14  O   LIG    1       -0.329  12.521   1.336  0.00  0.00    -0.670 OA
ENDBRANCH  10  12
BRANCH   7  16
ATOM     15  C   LIG    1        2.621  11.558  -2.693  0.00  0.00    +0.230 C 
ATOM     16  O   LIG    1        2.634  10.217  -2.202  0.00  0.00    -0.310 OA
ENDBRANCH   7  16
ENDBRANCH   1   8
BRANCH   5  17
ATOM     17  C   LIG    1        2.865   3.853  -0.116  0.00  0.00    +0.220 C 
BRANCH  17  18
ATOM     18  O   LIG    1        1.724   3.156  -0.622  0.00  0.00    -0.360 OA
BRANCH  18  19
ATOM     19  C   LIG    1        1.494   1.890  -0.002  0.00  0.00    +0.130 C 
ATOM     20  C   LIG    1       -0.019   1.540   0.011  0.00  0.00    +0.020 C 
ATOM     21  C   LIG    1        0.002  -0.004   0.002  0.00  0.00    +0.190 C 
ATOM     22  O   LIG    1        1.275  -0.417  -0.510  0.00  0.00    -0.380 OA
ATOM     23  C   LIG    1        2.056   0.734  -0.867  0.00  0.00    +0.190 C 
ENDBRANCH  18  19
ENDBRANCH  17  18
ENDBRANCH   5  17
TORSDOF 6
