REMARK  Name = ZINCnE000001TxxZ.0
REMARK                            x       y       z     vdW  Elec       q    Type
REMARK                         _______ _______ _______ _____ _____    ______ ____
ROOT
ATOM      1  C   LIG    1        0.161   7.256   0.039  0.00  0.00    +0.020 A 
ATOM      2  N   LIG    1        1.385   7.725   0.030  0.00  0.00    -0.310 NA
ATOM      3  O   LIG    1        1.401   8.934   0.036  0.00  0.00    +0.130 OA
ATOM      4  C   LIG    1        0.160   9.449   0.050  0.00  0.00    -0.060 A 
ATOM      5  C   LIG    1       -0.699   8.385   0.047  0.00  0.00    +0.030 A 
ENDROOT
BRANCH   4   6
ATOM      6  C   LIG    1       -0.205  10.882   0.060  0.00  0.00    +0.050 A 
ATOM      7  C   LIG    1       -1.134  11.375  -0.857  0.00  0.00    +0.050 A 
ATOM      8  C   LIG    1       -1.473  12.712  -0.839  0.00  0.00    +0.050 A 
ATOM      9  C   LIG    1       -0.887  13.566   0.078  0.00  0.00    +0.030 A 
ATOM     10  C   LIG    1        0.038  13.084   0.988  0.00  0.00    +0.070 A 
ATOM     11  C   LIG    1        0.382  11.748   0.984  0.00  0.00    -0.160 A 
BRANCH  11  12
ATOM     12  C   LIG    1        1.390  11.226   1.974  0.00  0.00    +0.500 C 
ATOM     13  F   LIG    1        2.479  10.678   1.287  0.00  0.00    -0.160 F 
ATOM     14  F   LIG    1        0.796  10.239   2.768  0.00  0.00    -0.170 F 
ATOM     15  F   LIG    1        1.833  12.275   2.788  0.00  0.00    -0.180 F 
ENDBRANCH  11  12
ENDBRANCH   4   6
BRANCH   1  17
ATOM     16  O   LIG    1       -1.423   5.533   0.044  0.00  0.00    -0.560 OA
ATOM     17  C   LIG    1       -0.245   5.830   0.035  0.00  0.00    +0.530 C 
ATOM     18  N   LIG    1        0.694   4.862   0.021  0.00  0.00    -0.650 NA
BRANCH  18  19
ATOM     19  C   LIG    1        0.314   3.526   0.017  0.00  0.00    +0.330 A 
ATOM     20  N   LIG    1       -0.907   3.074   0.026  0.00  0.00    -0.360 NA
ATOM     21  N   LIG    1       -1.069   1.823   0.016  0.00  0.00    -0.240 NA
ATOM     22  C   LIG    1       -0.013   1.076   0.008  0.00  0.00    +0.100 A 
ATOM     23  S   LIG    1        1.400   2.134   0.000  0.00  0.00    -0.050 S 
ENDBRANCH  18  19
ENDBRANCH   1  17
TORSDOF 4
