REMARK  Name = ZINCpk00000eba8i.0
REMARK                            x       y       z     vdW  Elec       q    Type
REMARK                         _______ _______ _______ _____ _____    ______ ____
ROOT
ATOM      1  C   LIG    1       -6.388   0.359   2.630  0.00  0.00    +0.510 C 
ATOM      2  N   LIG    1       -6.994   0.051   3.794  0.00  0.00    -0.700 N 
ATOM      3  H   LIG    1       -6.507   0.124   4.629  0.00  0.00    +0.420 HD
ATOM      4  O   LIG    1       -6.998   0.267   1.585  0.00  0.00    -0.520 OA
ENDROOT
BRANCH   1   7
ATOM      5  N   LIG    1       -4.360   1.125   1.463  0.00  0.00    -0.700 N 
ATOM      6  H   LIG    1       -4.847   1.051   0.628  0.00  0.00    +0.420 HD
ATOM      7  C   LIG    1       -4.965   0.816   2.627  0.00  0.00    +0.510 C 
ATOM      8  O   LIG    1       -4.355   0.909   3.672  0.00  0.00    -0.510 OA
BRANCH   5   9
ATOM      9  C   LIG    1       -2.965   1.573   1.460  0.00  0.00    +0.260 C 
BRANCH   9  10
ATOM     10  C   LIG    1       -2.523   1.856   0.022  0.00  0.00    +0.310 C 
BRANCH  10  14
ATOM     11  C   LIG    1        2.496   1.889  -0.011  0.00  0.00    +0.140 C 
ATOM     12  C   LIG    1        1.052   2.320   0.004  0.00  0.00    +0.000 A 
ATOM     13  C   LIG    1       -0.018   1.503   0.010  0.00  0.00    -0.030 A 
ATOM     14  N   LIG    1       -1.128   2.304   0.019  0.00  0.00    -0.460 N 
ATOM     15  C   LIG    1       -0.697   3.583   0.027  0.00  0.00    +0.400 A 
ATOM     16  C   LIG    1        0.002  -0.004   0.002  0.00  0.00    +0.130 C 
ATOM     17  N   LIG    1        0.608   3.586   0.015  0.00  0.00    -0.490 NA
ENDBRANCH  10  14
ENDBRANCH   9  10
ENDBRANCH   5   9
ENDBRANCH   1   7
BRANCH   2  18
ATOM     18  C   LIG    1       -8.389  -0.397   3.797  0.00  0.00    +0.330 C 
BRANCH  18  19
ATOM     19  C   LIG    1       -8.824  -0.676   5.213  0.00  0.00    -0.130 A 
ATOM     20  C   LIG    1       -9.196   0.372   6.048  0.00  0.00    +0.110 A 
ATOM     21  N   LIG    1       -9.271   1.737   5.881  0.00  0.00    -0.590 N 
ATOM     22  H   LIG    1       -9.049   2.211   5.064  0.00  0.00    +0.410 HD
ATOM     23  C   LIG    1       -9.704   2.324   7.038  0.00  0.00    +0.220 A 
ATOM     24  C   LIG    1       -9.920   1.386   7.974  0.00  0.00    -0.050 A 
ATOM     25  C   LIG    1       -9.599   0.093   7.367  0.00  0.00    -0.110 A 
ATOM     26  C   LIG    1       -9.623  -1.226   7.823  0.00  0.00    +0.070 A 
ATOM     27  C   LIG    1       -9.254  -2.241   6.985  0.00  0.00    -0.020 A 
ATOM     28  C   LIG    1       -8.860  -1.971   5.682  0.00  0.00    +0.060 A 
ENDBRANCH  18  19
ENDBRANCH   2  18
TORSDOF 6
