REMARK  Name = ZINCrD000000Btbf.0
REMARK                            x       y       z     vdW  Elec       q    Type
REMARK                         _______ _______ _______ _____ _____    ______ ____
ROOT
ATOM      1  O   LIG    1        1.932   6.888   2.659  0.00  0.00    -0.530 OA
ATOM      2  C   LIG    1        1.008   6.896   3.443  0.00  0.00    +0.520 C 
ATOM      3  N   LIG    1        0.515   5.734   3.915  0.00  0.00    -0.730 N 
ATOM      4  H   LIG    1       -0.225   5.739   4.543  0.00  0.00    +0.400 HD
ENDROOT
BRANCH   2   5
ATOM      5  C   LIG    1        0.410   8.205   3.891  0.00  0.00    -0.070 C 
ATOM      6  C   LIG    1       -1.070   8.248   3.506  0.00  0.00    +0.030 C 
ATOM      7  C   LIG    1       -1.677   9.576   3.960  0.00  0.00    -0.010 C 
ATOM      8  C   LIG    1       -1.542   9.707   5.478  0.00  0.00    +0.020 C 
ATOM      9  C   LIG    1       -0.062   9.664   5.864  0.00  0.00    -0.010 C 
ATOM     10  C   LIG    1        0.676  10.820   5.185  0.00  0.00    +0.010 C 
ATOM     11  C   LIG    1        0.540  10.690   3.666  0.00  0.00    -0.020 C 
ATOM     12  C   LIG    1       -0.940  10.732   3.281  0.00  0.00    +0.010 C 
ATOM     13  C   LIG    1        0.545   8.335   5.409  0.00  0.00    +0.030 C 
ATOM     14  C   LIG    1        1.147   9.361   3.212  0.00  0.00    +0.050 C 
ENDBRANCH   2   5
BRANCH   3  15
ATOM     15  C   LIG    1        1.096   4.461   3.480  0.00  0.00    +0.330 C 
BRANCH  15  16
ATOM     16  C   LIG    1        0.370   3.322   4.149  0.00  0.00    -0.090 A 
ATOM     17  C   LIG    1        0.922   2.705   5.255  0.00  0.00    +0.030 A 
ATOM     18  C   LIG    1        0.256   1.661   5.869  0.00  0.00    +0.010 A 
ATOM     19  C   LIG    1       -0.963   1.234   5.376  0.00  0.00    +0.010 A 
ATOM     20  C   LIG    1       -1.518   1.854   4.272  0.00  0.00    +0.000 A 
ATOM     21  C   LIG    1       -0.849   2.895   3.655  0.00  0.00    -0.070 A 
BRANCH  21  22
ATOM     22  C   LIG    1       -1.451   3.568   2.449  0.00  0.00    +0.220 C 
BRANCH  22  23
ATOM     23  N   LIG    1       -0.817   3.048   1.230  0.00  0.00    -0.530 NA
ATOM     24  C   LIG    1       -0.731   1.580   1.266  0.00  0.00    +0.150 C 
ATOM     25  C   LIG    1       -0.013   1.086   0.008  0.00  0.00    +0.220 C 
ATOM     26  O   LIG    1       -0.706   1.560  -1.149  0.00  0.00    -0.380 OA
ATOM     27  C   LIG    1       -0.807   2.985  -1.216  0.00  0.00    +0.220 C 
ATOM     28  C   LIG    1       -1.534   3.499   0.029  0.00  0.00    +0.150 C 
ENDBRANCH  22  23
ENDBRANCH  21  22
ENDBRANCH  15  16
ENDBRANCH   3  15
TORSDOF 5
