REMARK  Name = ZINCpk00001AZiBU.0
REMARK                            x       y       z     vdW  Elec       q    Type
REMARK                         _______ _______ _______ _____ _____    ______ ____
ROOT
ATOM      1  N   LIG    1        1.456  -1.797  -0.197  0.00  0.00    -0.600 N 
ATOM      2  C   LIG    1        1.482  -0.454  -0.093  0.00  0.00    +0.560 C 
ATOM      3  O   LIG    1        2.544   0.140  -0.137  0.00  0.00    -0.550 OA
ENDROOT
BRANCH   1   4
ATOM      4  C   LIG    1        0.193  -2.520  -0.030  0.00  0.00    +0.230 C 
ATOM      5  C   LIG    1        0.269  -3.398   1.221  0.00  0.00    +0.030 C 
ATOM      6  C   LIG    1       -0.056  -3.401  -1.256  0.00  0.00    +0.030 C 
ENDBRANCH   1   4
BRANCH   2   7
ATOM      7  C   LIG    1        0.273   0.268   0.066  0.00  0.00    -0.070 C 
ATOM      8  C   LIG    1        0.288   1.621   0.065  0.00  0.00    +0.150 C 
BRANCH   8   9
ATOM      9  C   LIG    1       -0.973   2.367   0.110  0.00  0.00    -0.250 A 
ATOM     10  C   LIG    1       -0.988   3.746  -0.007  0.00  0.00    +0.390 A 
ATOM     11  N   LIG    1       -2.177   4.403   0.040  0.00  0.00    -0.530 N 
ATOM     12  C   LIG    1       -3.337   3.746   0.197  0.00  0.00    +0.690 A 
ATOM     13  N   LIG    1       -3.390   2.408   0.317  0.00  0.00    -0.550 N 
ATOM     14  C   LIG    1       -4.686   1.745   0.486  0.00  0.00    +0.350 C 
ATOM     15  O   LIG    1       -4.373   4.381   0.233  0.00  0.00    -0.530 OA
ATOM     16  C   LIG    1       -2.194   5.863  -0.085  0.00  0.00    +0.360 C 
ATOM     17  C   LIG    1       -2.260   1.671   0.276  0.00  0.00    +0.560 A 
ATOM     18  O   LIG    1       -2.304   0.460   0.379  0.00  0.00    -0.500 OA
ENDBRANCH   8   9
ENDBRANCH   2   7
BRANCH   1  19
ATOM     19  C   LIG    1        2.691  -2.534  -0.476  0.00  0.00    +0.400 C 
BRANCH  19  24
ATOM     20  C   LIG    1        2.513  -3.901  -5.327  0.00  0.00    +0.170 C 
ATOM     21  C   LIG    1        2.863  -3.146  -4.071  0.00  0.00    -0.010 A 
ATOM     22  C   LIG    1        3.667  -2.070  -3.999  0.00  0.00    -0.070 A 
ATOM     23  C   LIG    1        3.717  -1.687  -2.639  0.00  0.00    -0.030 A 
ATOM     24  C   LIG    1        2.941  -2.552  -1.962  0.00  0.00    -0.040 A 
ATOM     25  O   LIG    1        2.431  -3.437  -2.833  0.00  0.00    -0.170 OA
ENDBRANCH  19  24
ENDBRANCH   1  19
TORSDOF 5
