REMARK  Name = ZINCrH000004ujLD.0
REMARK                            x       y       z     vdW  Elec       q    Type
REMARK                         _______ _______ _______ _____ _____    ______ ____
ROOT
ATOM      1  C   LIG    1        4.971   1.163   0.191  0.00  0.00    +0.160 A 
ATOM      2  C   LIG    1        4.968  -0.223   0.282  0.00  0.00    +0.010 A 
ATOM      3  C   LIG    1        3.773  -0.918   0.295  0.00  0.00    +0.040 A 
ATOM      4  C   LIG    1        2.574  -0.238   0.218  0.00  0.00    +0.030 A 
ATOM      5  C   LIG    1        2.567   1.155   0.126  0.00  0.00    -0.120 A 
ATOM      6  C   LIG    1        3.773   1.855   0.107  0.00  0.00    +0.100 A 
ENDROOT
BRANCH   1   9
ATOM      7  O   LIG    1        5.284   3.586   1.249  0.00  0.00    -0.560 OA
ATOM      8  C   LIG    1        6.275   3.067   0.774  0.00  0.00    +0.700 C 
ATOM      9  N   LIG    1        6.185   1.861   0.178  0.00  0.00    -0.690 N 
ATOM     10  H   LIG    1        6.960   1.477  -0.260  0.00  0.00    +0.410 HD
ATOM     11  N   LIG    1        7.464   3.697   0.843  0.00  0.00    -0.740 N 
ATOM     12  H   LIG    1        8.255   3.282   0.464  0.00  0.00    +0.400 HD
BRANCH  11  13
ATOM     13  C   LIG    1        7.563   5.007   1.490  0.00  0.00    +0.290 C 
BRANCH  13  14
ATOM     14  C   LIG    1        9.011   5.497   1.433  0.00  0.00    +0.030 C 
BRANCH  14  15
ATOM     15  C   LIG    1        9.114   6.865   2.110  0.00  0.00    +0.150 C 
ATOM     16  C   LIG    1       10.587   7.311   2.169  0.00  0.00    +0.010 C 
ATOM     17  C   LIG    1       10.608   8.656   1.402  0.00  0.00    +0.000 C 
ATOM     18  C   LIG    1        9.121   9.091   1.469  0.00  0.00    +0.190 C 
ATOM     19  O   LIG    1        8.401   7.847   1.338  0.00  0.00    -0.370 OA
ENDBRANCH  14  15
ENDBRANCH  13  14
ENDBRANCH  11  13
ENDBRANCH   1   9
BRANCH   5  20
ATOM     20  C   LIG    1        1.284   1.885   0.042  0.00  0.00    +0.560 C 
ATOM     21  N   LIG    1        0.120   1.207   0.055  0.00  0.00    -0.670 N 
ATOM     22  H   LIG    1        0.124   0.237   0.051  0.00  0.00    +0.410 HD
ATOM     23  O   LIG    1        1.280   3.099  -0.038  0.00  0.00    -0.500 OA
BRANCH  21  24
ATOM     24  C   LIG    1       -1.094   1.901   0.068  0.00  0.00    +0.180 A 
ATOM     25  C   LIG    1       -2.180   1.389   0.766  0.00  0.00    -0.030 A 
ATOM     26  C   LIG    1       -3.377   2.079   0.782  0.00  0.00    +0.070 A 
ATOM     27  C   LIG    1       -3.499   3.272   0.095  0.00  0.00    -0.030 A 
ATOM     28  C   LIG    1       -2.420   3.783  -0.607  0.00  0.00    +0.120 A 
ATOM     29  F   LIG    1       -2.541   4.950  -1.276  0.00  0.00    -0.140 F 
ATOM     30  C   LIG    1       -1.217   3.100  -0.621  0.00  0.00    -0.010 A 
ENDBRANCH  21  24
ENDBRANCH   5  20
TORSDOF 6
