REMARK  Name = ZINCpk00000y6v0m.0
REMARK                            x       y       z     vdW  Elec       q    Type
REMARK                         _______ _______ _______ _____ _____    ______ ____
ROOT
ATOM      1  C   LIG    1        0.862  -2.938  -2.038  0.00  0.00    +0.200 C 
ENDROOT
BRANCH   1   2
ATOM      2  N   LIG    1        0.631  -2.717  -0.605  0.00  0.00    -0.480 NA
ATOM      3  C   LIG    1        0.610  -3.995   0.130  0.00  0.00    +0.200 C 
ATOM      4  C   LIG    1        1.687  -3.907   1.231  0.00  0.00    +0.130 C 
ATOM      5  C   LIG    1        1.867  -2.378   1.423  0.00  0.00    +0.070 C 
ATOM      6  C   LIG    1        1.685  -1.857  -0.024  0.00  0.00    +0.230 C 
BRANCH   6   7
ATOM      7  C   LIG    1        1.240  -0.418  -0.012  0.00  0.00    +0.210 A 
ATOM      8  N   LIG    1        0.002  -0.004   0.002  0.00  0.00    -0.450 NA
ATOM      9  C   LIG    1       -0.016   1.337   0.009  0.00  0.00    +0.140 A 
ATOM     10  C   LIG    1        1.259   1.771  -0.000  0.00  0.00    +0.120 A 
ATOM     11  N   LIG    1        2.056   0.658  -0.014  0.00  0.00    -0.570 N 
ATOM     12  H   LIG    1        3.026   0.645  -0.024  0.00  0.00    +0.420 HD
ENDBRANCH   6   7
BRANCH   4  13
ATOM     13  O   LIG    1        1.227  -4.517   2.439  0.00  0.00    -0.370 OA
ATOM     14  C   LIG    1        1.561  -5.902   2.554  0.00  0.00    +0.200 C 
ENDBRANCH   4  13
ENDBRANCH   1   2
BRANCH   1  17
ATOM     15  N   LIG    1       -0.046  -4.375  -3.836  0.00  0.00    -0.720 N 
ATOM     16  H   LIG    1        0.582  -3.955  -4.445  0.00  0.00    +0.400 HD
ATOM     17  C   LIG    1       -0.078  -4.004  -2.540  0.00  0.00    +0.510 C 
ATOM     18  O   LIG    1       -0.863  -4.528  -1.778  0.00  0.00    -0.520 OA
BRANCH  15  19
ATOM     19  C   LIG    1       -0.959  -5.411  -4.323  0.00  0.00    +0.330 C 
BRANCH  19  25
ATOM     20  C   LIG    1        0.340  -6.426  -6.213  0.00  0.00    +0.140 A 
ATOM     21  C   LIG    1        0.555  -6.633  -7.568  0.00  0.00    -0.080 A 
ATOM     22  C   LIG    1       -0.289  -6.054  -8.496  0.00  0.00    +0.060 A 
ATOM     23  C   LIG    1       -1.346  -5.269  -8.076  0.00  0.00    -0.030 A 
ATOM     24  C   LIG    1       -1.566  -5.066  -6.726  0.00  0.00    +0.070 A 
ATOM     25  C   LIG    1       -0.723  -5.638  -5.794  0.00  0.00    -0.140 A 
BRANCH  20  27
ATOM     26  C   LIG    1        2.241  -7.793  -5.801  0.00  0.00    +0.250 C 
ATOM     27  O   LIG    1        1.168  -6.994  -5.298  0.00  0.00    -0.310 OA
ENDBRANCH  20  27
ENDBRANCH  19  25
ENDBRANCH  15  19
ENDBRANCH   1  17
TORSDOF 7
