REMARK  Name = ZINCrD000000ArCi.0
REMARK                            x       y       z     vdW  Elec       q    Type
REMARK                         _______ _______ _______ _____ _____    ______ ____
ROOT
ATOM      1  C   LIG    1       -4.148   2.857   6.467  0.00  0.00    +0.180 A 
ATOM      2  C   LIG    1       -4.051   2.442   7.787  0.00  0.00    -0.080 A 
ATOM      3  C   LIG    1       -3.260   1.359   8.115  0.00  0.00    +0.080 A 
ATOM      4  C   LIG    1       -2.565   0.675   7.132  0.00  0.00    -0.030 A 
ATOM      5  C   LIG    1       -2.655   1.069   5.814  0.00  0.00    +0.080 A 
ATOM      6  C   LIG    1       -3.450   2.164   5.468  0.00  0.00    -0.170 A 
ENDROOT
BRANCH   6   7
ATOM      7  C   LIG    1       -3.551   2.592   4.060  0.00  0.00    +0.550 C 
ATOM      8  N   LIG    1       -2.874   1.926   3.103  0.00  0.00    -0.730 N 
ATOM      9  H   LIG    1       -2.321   1.165   3.341  0.00  0.00    +0.400 HD
ATOM     10  O   LIG    1       -4.244   3.545   3.762  0.00  0.00    -0.510 OA
BRANCH   8  11
ATOM     11  C   LIG    1       -2.974   2.351   1.705  0.00  0.00    +0.290 C 
BRANCH  11  12
ATOM     12  C   LIG    1       -2.115   1.434   0.831  0.00  0.00    +0.140 C 
ATOM     13  C   LIG    1       -2.206   1.864  -0.650  0.00  0.00    +0.010 C 
ATOM     14  C   LIG    1       -0.778   1.634  -1.196  0.00  0.00    +0.000 C 
ATOM     15  C   LIG    1        0.005   1.093   0.020  0.00  0.00    +0.190 C 
ATOM     16  O   LIG    1       -0.717   1.577   1.173  0.00  0.00    -0.370 OA
ENDBRANCH  11  12
ENDBRANCH   8  11
ENDBRANCH   6   7
BRANCH   1  17
ATOM     17  O   LIG    1       -4.918   3.925   6.143  0.00  0.00    -0.250 OA
BRANCH  17  18
ATOM     18  C   LIG    1       -5.600   4.582   7.214  0.00  0.00    +0.240 C 
BRANCH  18  20
ATOM     19  O   LIG    1       -6.389   5.973   5.478  0.00  0.00    -0.470 OA
ATOM     20  C   LIG    1       -6.400   5.736   6.668  0.00  0.00    +0.510 C 
ATOM     21  N   LIG    1       -7.129   6.505   7.501  0.00  0.00    -0.670 N 
ATOM     22  H   LIG    1       -7.192   6.276   8.441  0.00  0.00    +0.410 HD
BRANCH  21  23
ATOM     23  C   LIG    1       -7.795   7.634   7.009  0.00  0.00    +0.160 A 
ATOM     24  C   LIG    1       -7.917   8.769   7.800  0.00  0.00    +0.000 A 
ATOM     25  C   LIG    1       -8.569   9.883   7.309  0.00  0.00    +0.070 A 
ATOM     26  C   LIG    1       -9.110   9.865   6.036  0.00  0.00    -0.110 A 
ATOM     27  C   LIG    1       -8.995   8.734   5.248  0.00  0.00    +0.070 A 
ATOM     28 BR   LIG    1      -10.010  11.390   5.372  0.00  0.00    -0.050 Br
ATOM     29  C   LIG    1       -8.339   7.619   5.731  0.00  0.00    +0.030 A 
ENDBRANCH  21  23
ENDBRANCH  18  20
ENDBRANCH  17  18
ENDBRANCH   1  17
TORSDOF 7
