REMARK  Name = ZINCrD0000072Cot.1
REMARK                            x       y       z     vdW  Elec       q    Type
REMARK                         _______ _______ _______ _____ _____    ______ ____
ROOT
ATOM      1  C   LIG    1       -6.428  -1.367   1.913  0.00  0.00    -0.090 A 
ATOM      2  C   LIG    1       -5.700  -0.943   3.009  0.00  0.00    +0.060 A 
ATOM      3  C   LIG    1       -4.524  -0.241   2.829  0.00  0.00    -0.020 A 
ATOM      4  C   LIG    1       -4.073   0.038   1.547  0.00  0.00    +0.130 A 
ATOM      5  C   LIG    1       -4.808  -0.384   0.449  0.00  0.00    -0.080 A 
ATOM      6  C   LIG    1       -5.981  -1.091   0.634  0.00  0.00    +0.050 A 
ENDROOT
BRANCH   1   9
ATOM      7  C   LIG    1       -8.993  -1.524   1.542  0.00  0.00    -0.050 C 
ATOM      8  C   LIG    1       -8.365  -2.749   0.875  0.00  0.00    +0.070 C 
ATOM      9  C   LIG    1       -7.710  -2.133   2.112  0.00  0.00    +0.060 C 
BRANCH   7  11
ATOM     10  N   LIG    1      -11.426  -1.216   1.862  0.00  0.00    -0.610 N 
ATOM     11  C   LIG    1      -10.267  -1.731   2.319  0.00  0.00    +0.550 C 
ATOM     12  O   LIG    1      -10.250  -2.360   3.356  0.00  0.00    -0.530 OA
ATOM     13  C   LIG    1      -11.447  -0.456   0.610  0.00  0.00    +0.280 C 
BRANCH  10  14
ATOM     14  C   LIG    1      -12.665  -1.417   2.618  0.00  0.00    +0.290 C 
BRANCH  14  18
ATOM     15  C   LIG    1      -13.823  -0.727   6.747  0.00  0.00    +0.170 C 
ATOM     16  N   LIG    1      -13.396   0.052   5.577  0.00  0.00    -0.490 NA
ATOM     17  C   LIG    1      -14.181  -0.319   4.379  0.00  0.00    +0.170 C 
ATOM     18  C   LIG    1      -12.845  -0.271   3.615  0.00  0.00    -0.030 C 
ATOM     19  C   LIG    1      -12.172  -0.522   4.976  0.00  0.00    +0.180 C 
ENDBRANCH  14  18
ENDBRANCH  10  14
ENDBRANCH   7  11
ENDBRANCH   1   9
BRANCH   4  20
ATOM     20  O   LIG    1       -2.917   0.728   1.367  0.00  0.00    -0.310 OA
BRANCH  20  21
ATOM     21  C   LIG    1       -2.514   0.980   0.019  0.00  0.00    +0.240 C 
BRANCH  21  22
ATOM     22  C   LIG    1       -1.219   1.751   0.017  0.00  0.00    -0.100 A 
ATOM     23  C   LIG    1       -0.013   1.076   0.008  0.00  0.00    +0.020 A 
ATOM     24  C   LIG    1        1.175   1.783   0.000  0.00  0.00    +0.010 A 
ATOM     25  C   LIG    1        1.156   3.165   0.008  0.00  0.00    +0.020 A 
ATOM     26  C   LIG    1       -0.050   3.840   0.022  0.00  0.00    +0.010 A 
ATOM     27  C   LIG    1       -1.238   3.133   0.030  0.00  0.00    +0.020 A 
ENDBRANCH  21  22
ENDBRANCH  20  21
ENDBRANCH   4  20
TORSDOF 7
