REMARK  Name = ZINCvU0000000Ait.0
REMARK                            x       y       z     vdW  Elec       q    Type
REMARK                         _______ _______ _______ _____ _____    ______ ____
ROOT
ATOM      1  C   LIG    1        5.724   4.874  -0.518  0.00  0.00    +0.130 A 
ATOM      2  C   LIG    1        6.460   3.841   0.049  0.00  0.00    +0.050 A 
ATOM      3  C   LIG    1        5.830   2.898   0.837  0.00  0.00    +0.020 A 
ATOM      4  C   LIG    1        4.469   2.984   1.066  0.00  0.00    +0.110 A 
ATOM      5  C   LIG    1        3.733   4.008   0.499  0.00  0.00    -0.660 A 
ATOM      6  C   LIG    1        4.357   4.954  -0.290  0.00  0.00    +0.130 A 
ENDROOT
BRANCH   1   9
ATOM      7  O   LIG    1        5.030   7.441  -0.569  0.00  0.00    -0.500 OA
ATOM      8  C   LIG    1        5.918   7.104  -1.323  0.00  0.00    +0.510 C 
ATOM      9  N   LIG    1        6.360   5.831  -1.317  0.00  0.00    -0.680 N 
ATOM     10  H   LIG    1        7.118   5.578  -1.867  0.00  0.00    +0.410 HD
BRANCH   8  11
ATOM     11  C   LIG    1        6.529   8.109  -2.265  0.00  0.00    +0.120 C 
BRANCH  11  12
ATOM     12  C   LIG    1        5.863   9.447  -2.073  0.00  0.00    -0.070 A 
ATOM     13  C   LIG    1        4.748   9.777  -2.821  0.00  0.00    +0.040 A 
ATOM     14  C   LIG    1        4.134  11.003  -2.642  0.00  0.00    +0.030 A 
ATOM     15  C   LIG    1        4.642  11.903  -1.722  0.00  0.00    -0.030 A 
ATOM     16  C   LIG    1        5.761  11.574  -0.978  0.00  0.00    +0.030 A 
ATOM     17 CL   LIG    1        3.876  13.445  -1.502  0.00  0.00    -0.070 Cl
ATOM     18  C   LIG    1        6.371  10.346  -1.154  0.00  0.00    +0.040 A 
ENDBRANCH  11  12
ENDBRANCH   8  11
ENDBRANCH   1   9
BRANCH   5  19
ATOM     19  S   LIG    1        1.998   4.110   0.789  0.00  0.00    +2.690 S 
ATOM     20  O   LIG    1        1.766   3.501   2.052  0.00  0.00    -0.940 OA
ATOM     21  O   LIG    1        1.618   5.446   0.489  0.00  0.00    -0.940 OA
BRANCH  19  22
ATOM     22  N   LIG    1        1.255   3.149  -0.337  0.00  0.00    -1.060 N 
ATOM     23  H   LIG    1        0.683   3.546  -1.012  0.00  0.00    +0.430 HD
BRANCH  22  24
ATOM     24  C   LIG    1        1.454   1.767  -0.316  0.00  0.00    +0.120 A 
ATOM     25  C   LIG    1        2.284   1.168  -1.254  0.00  0.00    +0.060 A 
ATOM     26  C   LIG    1        2.477  -0.200  -1.230  0.00  0.00    +0.030 A 
ATOM     27  C   LIG    1        1.845  -0.972  -0.274  0.00  0.00    +0.080 A 
ATOM     28  C   LIG    1        1.018  -0.379   0.663  0.00  0.00    -0.170 A 
ATOM     29  C   LIG    1        0.821   0.988   0.645  0.00  0.00    +0.090 A 
BRANCH  28  30
ATOM     30  C   LIG    1        0.332  -1.225   1.705  0.00  0.00    +0.510 C 
ATOM     31  F   LIG    1        0.146  -0.471   2.869  0.00  0.00    -0.170 F 
ATOM     32  F   LIG    1        1.123  -2.342   1.994  0.00  0.00    -0.170 F 
ATOM     33  F   LIG    1       -0.910  -1.647   1.219  0.00  0.00    -0.170 F 
ENDBRANCH  28  30
ENDBRANCH  22  24
ENDBRANCH  19  22
ENDBRANCH   5  19
TORSDOF 7
