REMARK  Name = ZINCrH000004ln0l.0
REMARK                            x       y       z     vdW  Elec       q    Type
REMARK                         _______ _______ _______ _____ _____    ______ ____
ROOT
ATOM      1  C   LIG    1       -1.093  -2.155   0.187  0.00  0.00    +0.140 A 
ATOM      2  C   LIG    1       -2.253  -2.904   0.283  0.00  0.00    -0.050 A 
ATOM      3  C   LIG    1       -3.485  -2.274   0.292  0.00  0.00    +0.100 A 
ATOM      4  C   LIG    1       -3.561  -0.897   0.206  0.00  0.00    -0.200 A 
ATOM      5  C   LIG    1       -2.407  -0.141   0.114  0.00  0.00    +0.130 A 
ATOM      6  C   LIG    1       -1.169  -0.767   0.099  0.00  0.00    +0.120 A 
ENDROOT
BRANCH   4   7
ATOM      7  C   LIG    1       -4.905  -0.216   0.216  0.00  0.00    +0.510 C 
ATOM      8  F   LIG    1       -5.071   0.507  -0.970  0.00  0.00    -0.180 F 
ATOM      9  F   LIG    1       -4.979   0.655   1.308  0.00  0.00    -0.170 F 
ATOM     10  F   LIG    1       -5.915  -1.179   0.320  0.00  0.00    -0.180 F 
ENDBRANCH   4   7
BRANCH   6  11
ATOM     11  N   LIG    1        0.002  -0.004   0.002  0.00  0.00    -0.660 N 
ATOM     12  H   LIG    1        0.764  -0.346  -0.490  0.00  0.00    +0.420 HD
ATOM     13  C   LIG    1        0.069   1.206   0.593  0.00  0.00    +0.570 C 
ATOM     14  O   LIG    1       -0.914   1.673   1.135  0.00  0.00    -0.510 OA
BRANCH  13  15
ATOM     15  C   LIG    1        1.334   1.966   0.576  0.00  0.00    -0.130 A 
ATOM     16  C   LIG    1        2.464   1.431  -0.047  0.00  0.00    +0.070 A 
ATOM     17  C   LIG    1        3.643   2.144  -0.066  0.00  0.00    +0.040 A 
ATOM     18  C   LIG    1        3.716   3.390   0.542  0.00  0.00    +0.070 A 
ATOM     19  O   LIG    1        4.746   4.275   0.662  0.00  0.00    -0.300 OA
ATOM     20  C   LIG    1        4.361   5.173   1.720  0.00  0.00    +0.440 C 
ATOM     21  O   LIG    1        2.922   5.149   1.683  0.00  0.00    -0.300 OA
ATOM     22  C   LIG    1        2.591   3.928   1.170  0.00  0.00    +0.030 A 
ATOM     23  C   LIG    1        1.406   3.220   1.188  0.00  0.00    +0.110 A 
ENDBRANCH  13  15
ENDBRANCH   6  11
BRANCH   1  24
ATOM     24  O   LIG    1        0.119  -2.774   0.178  0.00  0.00    -0.300 OA
BRANCH  24  25
ATOM     25  C   LIG    1        0.120  -4.199   0.272  0.00  0.00    +0.220 C 
BRANCH  25  26
ATOM     26  C   LIG    1        1.562  -4.711   0.247  0.00  0.00    +0.200 C 
BRANCH  26  28
ATOM     27  C   LIG    1        3.611  -4.680   1.489  0.00  0.00    +0.200 C 
ATOM     28  O   LIG    1        2.249  -4.255   1.414  0.00  0.00    -0.390 OA
ENDBRANCH  26  28
ENDBRANCH  25  26
ENDBRANCH  24  25
ENDBRANCH   1  24
TORSDOF 7
