REMARK  Name = ZINCqH0000002VOf.0
REMARK                            x       y       z     vdW  Elec       q    Type
REMARK                         _______ _______ _______ _____ _____    ______ ____
ROOT
ATOM      1  C   LIG    1        4.019   7.155   0.022  0.00  0.00    +0.220 C 
ENDROOT
BRANCH   1   2
ATOM      2  C   LIG    1        3.343   5.808  -0.003  0.00  0.00    +0.190 A 
ATOM      3  N   LIG    1        2.075   5.570   0.223  0.00  0.00    -0.470 NA
ATOM      4  C   LIG    1        1.929   4.232   0.093  0.00  0.00    +0.220 A 
ATOM      5  N   LIG    1        3.106   3.741  -0.197  0.00  0.00    -0.380 NA
ATOM      6  O   LIG    1        3.925   4.633  -0.260  0.00  0.00    +0.080 OA
BRANCH   4   7
ATOM      7  C   LIG    1        0.670   3.464   0.254  0.00  0.00    -0.070 A 
ATOM      8  C   LIG    1        0.670   2.080   0.089  0.00  0.00    +0.100 A 
ATOM      9  C   LIG    1       -0.501   1.369   0.240  0.00  0.00    -0.010 A 
ATOM     10  C   LIG    1       -1.682   2.030   0.551  0.00  0.00    +0.150 A 
ATOM     11  C   LIG    1       -1.684   3.409   0.722  0.00  0.00    -0.070 A 
ATOM     12  C   LIG    1       -0.515   4.125   0.572  0.00  0.00    +0.110 A 
BRANCH  10  13
ATOM     13  O   LIG    1       -2.835   1.328   0.695  0.00  0.00    -0.310 OA
ATOM     14  C   LIG    1       -4.013   2.072   1.015  0.00  0.00    +0.240 C 
ENDBRANCH  10  13
ENDBRANCH   4   7
ENDBRANCH   1   2
BRANCH   1  15
ATOM     15  C   LIG    1        4.529   7.444   1.435  0.00  0.00    +0.080 C 
BRANCH  15  17
ATOM     16  N   LIG    1        5.735   9.257   2.608  0.00  0.00    -0.570 N 
ATOM     17  C   LIG    1        5.205   8.790   1.460  0.00  0.00    +0.520 C 
ATOM     18  O   LIG    1        5.271   9.454   0.448  0.00  0.00    -0.520 OA
BRANCH  16  19
ATOM     19  C   LIG    1        6.450  10.460   2.610  0.00  0.00    +0.140 A 
ATOM     20  C   LIG    1        7.674  10.543   1.960  0.00  0.00    +0.010 A 
ATOM     21  C   LIG    1        8.376  11.733   1.961  0.00  0.00    +0.020 A 
ATOM     22  C   LIG    1        7.864  12.838   2.616  0.00  0.00    +0.010 A 
ATOM     23  C   LIG    1        6.648  12.757   3.268  0.00  0.00    +0.020 A 
ATOM     24  C   LIG    1        5.939  11.572   3.267  0.00  0.00    +0.000 A 
ENDBRANCH  16  19
BRANCH  16  26
ATOM     25  C   LIG    1        6.721   7.519   4.019  0.00  0.00    +0.020 C 
ATOM     26  C   LIG    1        5.563   8.505   3.853  0.00  0.00    +0.280 C 
ENDBRANCH  16  26
ENDBRANCH  15  17
ENDBRANCH   1  15
TORSDOF 7
