REMARK  Name = ZINCpk000000pTpo.0
REMARK                            x       y       z     vdW  Elec       q    Type
REMARK                         _______ _______ _______ _____ _____    ______ ____
ROOT
ATOM      1  C   LIG    1       -0.013   1.086   0.008  0.00  0.00    +0.160 C 
ATOM      2  O   LIG    1       -0.727   1.570   1.162  0.00  0.00    -0.330 OA
ATOM      3  C   LIG    1       -2.080   1.717   0.697  0.00  0.00    +0.320 C 
ATOM      4  N   LIG    1       -2.009   1.978  -0.744  0.00  0.00    -0.740 N 
ATOM      5  H   LIG    1       -2.719   2.353  -1.288  0.00  0.00    +0.420 HD
ATOM      6  C   LIG    1       -2.862   0.430   0.960  0.00  0.00    +0.040 C 
ATOM      7  C   LIG    1       -4.312   0.619   0.508  0.00  0.00    +0.170 C 
ATOM      8  N   LIG    1       -4.910   1.747   1.235  0.00  0.00    -0.530 NA
ATOM      9  C   LIG    1       -4.204   3.002   0.945  0.00  0.00    +0.180 C 
ATOM     10  C   LIG    1       -2.750   2.890   1.412  0.00  0.00    +0.070 C 
ATOM     11  C   LIG    1       -0.786   1.607  -1.184  0.00  0.00    +0.500 C 
ATOM     12  O   LIG    1       -0.382   1.680  -2.326  0.00  0.00    -0.500 OA
ENDROOT
BRANCH   1  14
ATOM     13  C   LIG    1        2.194   1.054   1.179  0.00  0.00    +0.030 C 
ATOM     14  C   LIG    1        1.415   1.636  -0.003  0.00  0.00    +0.050 C 
ENDBRANCH   1  14
BRANCH   8  15
ATOM     15  C   LIG    1       -6.343   1.867   0.934  0.00  0.00    +0.280 C 
BRANCH  15  16
ATOM     16  C   LIG    1       -6.987   0.507   1.007  0.00  0.00    +0.080 A 
ATOM     17  C   LIG    1       -7.615  -0.022   2.082  0.00  0.00    -0.090 A 
ATOM     18  C   LIG    1       -8.070  -1.297   1.730  0.00  0.00    +0.220 A 
ATOM     19  N   LIG    1       -7.720  -1.529   0.491  0.00  0.00    -0.280 NA
ATOM     20  N   LIG    1       -7.035  -0.405   0.013  0.00  0.00    -0.370 N 
BRANCH  20  21
ATOM     21  C   LIG    1       -6.471  -0.246  -1.330  0.00  0.00    +0.250 C 
ATOM     22  C   LIG    1       -7.586  -0.372  -2.373  0.00  0.00    +0.010 C 
ATOM     23  C   LIG    1       -6.976  -0.284  -3.774  0.00  0.00    +0.210 C 
ATOM     24  O   LIG    1       -5.992  -1.309  -3.929  0.00  0.00    -0.370 OA
ATOM     25  C   LIG    1       -4.901  -1.214  -3.012  0.00  0.00    +0.210 C 
ATOM     26  C   LIG    1       -5.427  -1.340  -1.580  0.00  0.00    -0.000 C 
ENDBRANCH  20  21
ENDBRANCH  15  16
ENDBRANCH   8  15
TORSDOF 4
