REMARK  Name = ZINCkj00000y7D0U.0
REMARK                            x       y       z     vdW  Elec       q    Type
REMARK                         _______ _______ _______ _____ _____    ______ ____
ROOT
ATOM      1  N   LIG    1       -1.996   3.550  -4.683  0.00  0.00    -0.500 N 
ATOM      2  H   LIG    1       -2.869   3.047  -4.629  0.00  0.00    +0.430 HD
ATOM      3  H   LIG    1       -1.522   3.308  -5.540  0.00  0.00    +0.430 HD
ENDROOT
BRANCH   1   7
ATOM      4  N   LIG    1       -0.723   1.572  -1.182  0.00  0.00    -0.540 NA
ATOM      5  C   LIG    1       -1.059   2.996  -1.049  0.00  0.00    +0.210 C 
ATOM      6  C   LIG    1       -1.922   3.431  -2.236  0.00  0.00    +0.050 C 
ATOM      7  C   LIG    1       -1.151   3.189  -3.537  0.00  0.00    +0.160 C 
ATOM      8  C   LIG    1       -0.771   1.708  -3.627  0.00  0.00    +0.050 C 
ATOM      9  C   LIG    1        0.058   1.323  -2.400  0.00  0.00    +0.210 C 
BRANCH   4  11
ATOM     10  C   LIG    1       -0.729   1.579   1.267  0.00  0.00    +0.040 C 
ATOM     11  C   LIG    1       -0.013   1.086   0.008  0.00  0.00    +0.180 C 
ENDBRANCH   4  11
ENDBRANCH   1   7
BRANCH   1  12
ATOM     12  C   LIG    1       -2.261   4.994  -4.660  0.00  0.00    +0.150 C 
ATOM     13  C   LIG    1       -0.964   5.788  -4.948  0.00  0.00    +0.070 C 
ATOM     14  C   LIG    1       -1.107   6.097  -6.464  0.00  0.00    +0.240 C 
ATOM     15  O   LIG    1       -2.520   6.346  -6.625  0.00  0.00    -0.330 OA
ATOM     16  C   LIG    1       -3.211   5.387  -5.808  0.00  0.00    +0.240 C 
BRANCH  16  17
ATOM     17  C   LIG    1       -4.467   6.002  -5.246  0.00  0.00    +0.030 A 
ATOM     18  C   LIG    1       -4.634   7.300  -4.901  0.00  0.00    -0.060 A 
ATOM     19  C   LIG    1       -5.941   7.454  -4.427  0.00  0.00    +0.240 A 
ATOM     20  N   LIG    1       -6.535   6.289  -4.479  0.00  0.00    -0.260 NA
ATOM     21  N   LIG    1       -5.625   5.356  -4.993  0.00  0.00    -0.370 N 
ATOM     22  C   LIG    1       -5.883   3.932  -5.215  0.00  0.00    +0.360 C 
ENDBRANCH  16  17
ENDBRANCH   1  12
TORSDOF 4
