REMARK  Name = ZINCkj00000y7D0U.2
REMARK                            x       y       z     vdW  Elec       q    Type
REMARK                         _______ _______ _______ _____ _____    ______ ____
ROOT
ATOM      1  N   LIG    1       -2.965   2.918  -1.883  0.00  0.00    -0.670 NA
ATOM      2  H   LIG    1       -2.227   2.249  -2.045  0.00  0.00    +0.350 HD
ENDROOT
BRANCH   1   6
ATOM      3  N   LIG    1       -2.665   6.077  -4.663  0.00  0.00    -0.380 N 
ATOM      4  C   LIG    1       -1.410   5.428  -4.264  0.00  0.00    +0.260 C 
ATOM      5  C   LIG    1       -1.712   4.056  -3.656  0.00  0.00    +0.060 C 
ATOM      6  C   LIG    1       -2.609   4.235  -2.427  0.00  0.00    +0.140 C 
ATOM      7  C   LIG    1       -3.881   4.980  -2.841  0.00  0.00    +0.070 C 
ATOM      8  C   LIG    1       -3.499   6.317  -3.479  0.00  0.00    +0.260 C 
ATOM      9  H   LIG    1       -3.161   5.481  -5.308  0.00  0.00    +0.420 HD
BRANCH   3  11
ATOM     10  C   LIG    1       -3.661   7.978  -5.843  0.00  0.00    +0.080 C 
ATOM     11  C   LIG    1       -2.365   7.358  -5.316  0.00  0.00    +0.250 C 
ENDBRANCH   3  11
ENDBRANCH   1   6
BRANCH   1  12
ATOM     12  C   LIG    1       -3.289   3.009  -0.453  0.00  0.00    +0.130 C 
ATOM     13  C   LIG    1       -4.801   3.277  -0.256  0.00  0.00    +0.020 C 
ATOM     14  C   LIG    1       -5.348   1.855   0.025  0.00  0.00    +0.220 C 
ATOM     15  O   LIG    1       -4.304   1.241   0.812  0.00  0.00    -0.350 OA
ATOM     16  C   LIG    1       -3.051   1.654   0.241  0.00  0.00    +0.230 C 
BRANCH  16  17
ATOM     17  C   LIG    1       -2.019   1.810   1.328  0.00  0.00    +0.060 A 
ATOM     18  C   LIG    1       -2.252   2.222   2.596  0.00  0.00    -0.090 A 
ATOM     19  C   LIG    1       -1.030   2.233   3.276  0.00  0.00    +0.240 A 
ATOM     20  N   LIG    1       -0.098   1.835   2.448  0.00  0.00    -0.280 NA
ATOM     21  N   LIG    1       -0.698   1.558   1.213  0.00  0.00    -0.370 N 
ATOM     22  C   LIG    1       -0.013   1.086   0.008  0.00  0.00    +0.340 C 
ENDBRANCH  16  17
ENDBRANCH   1  12
TORSDOF 4
