REMARK  Name = ZINCrD0000074AQ0.0
REMARK                            x       y       z     vdW  Elec       q    Type
REMARK                         _______ _______ _______ _____ _____    ______ ____
ROOT
ATOM      1  C   LIG    1        1.424  -0.399  -0.440  0.00  0.00    +0.040 C 
ATOM      2  C   LIG    1        2.243   0.848  -0.034  0.00  0.00    +0.110 C 
ATOM      3  C   LIG    1        1.228   1.969  -0.013  0.00  0.00    +0.520 C 
ATOM      4  N   LIG    1       -0.018   1.463   0.010  0.00  0.00    -0.560 N 
ATOM      5  O   LIG    1        1.498   3.151  -0.017  0.00  0.00    -0.500 OA
ATOM      6  C   LIG    1        0.002  -0.004   0.017  0.00  0.00    +0.310 C 
ENDROOT
BRANCH   4   7
ATOM      7  C   LIG    1       -1.184   2.237   0.020  0.00  0.00    +0.160 A 
ATOM      8  C   LIG    1       -2.426   1.626  -0.088  0.00  0.00    -0.030 A 
ATOM      9  C   LIG    1       -3.573   2.394  -0.071  0.00  0.00    +0.050 A 
ATOM     10  C   LIG    1       -3.490   3.772   0.040  0.00  0.00    -0.120 A 
ATOM     11  C   LIG    1       -4.583   4.819   0.074  0.00  0.00    +0.070 C 
ATOM     12  C   LIG    1       -3.873   6.155  -0.233  0.00  0.00    +0.030 C 
ATOM     13  C   LIG    1       -2.433   5.883   0.251  0.00  0.00    +0.080 C 
ATOM     14  C   LIG    1       -2.254   4.384   0.142  0.00  0.00    -0.070 A 
ATOM     15  C   LIG    1       -1.102   3.618   0.132  0.00  0.00    +0.010 A 
ENDBRANCH   4   7
BRANCH   1  16
ATOM     16  C   LIG    1        1.905  -1.624   0.294  0.00  0.00    +0.480 C 
ATOM     17  O   LIG    1        1.195  -2.155   1.115  0.00  0.00    -0.490 OA
BRANCH  16  18
ATOM     18  O   LIG    1        3.123  -2.126   0.035  0.00  0.00    -0.330 OA
BRANCH  18  19
ATOM     19  C   LIG    1        3.521  -3.307   0.780  0.00  0.00    +0.240 C 
BRANCH  19  20
ATOM     20  C   LIG    1        4.907  -3.723   0.359  0.00  0.00    +0.430 C 
ATOM     21  O   LIG    1        5.502  -3.086  -0.486  0.00  0.00    -0.420 OA
BRANCH  20  26
ATOM     22  C   LIG    1        6.323  -8.077   3.130  0.00  0.00    +0.150 C 
ATOM     23  C   LIG    1        6.171  -6.875   2.233  0.00  0.00    -0.170 A 
ATOM     24  C   LIG    1        7.106  -6.447   1.373  0.00  0.00    -0.020 A 
ATOM     25  C   LIG    1        6.766  -5.331   0.650  0.00  0.00    +0.140 A 
ATOM     26  C   LIG    1        5.514  -4.854   0.947  0.00  0.00    -0.320 A 
ATOM     27  S   LIG    1        4.791  -5.873   2.184  0.00  0.00    +0.220 S 
ENDBRANCH  20  26
ENDBRANCH  19  20
ENDBRANCH  18  19
ENDBRANCH  16  18
ENDBRANCH   1  16
TORSDOF 6
