REMARK  Name = ZINCpk000000oD7x.0
REMARK                            x       y       z     vdW  Elec       q    Type
REMARK                         _______ _______ _______ _____ _____    ______ ____
ROOT
ATOM      1  N   LIG    1       -0.387  -0.832   3.896  0.00  0.00    -0.740 N 
ATOM      2  H   LIG    1       -0.991  -1.161   3.212  0.00  0.00    +0.400 HD
ATOM      3  C   LIG    1       -0.291   0.493   4.129  0.00  0.00    +0.700 C 
ATOM      4  N   LIG    1       -1.034   1.358   3.411  0.00  0.00    -0.730 N 
ATOM      5  H   LIG    1       -1.638   1.028   2.727  0.00  0.00    +0.400 HD
ATOM      6  O   LIG    1        0.465   0.906   4.986  0.00  0.00    -0.590 OA
ENDROOT
BRANCH   4   7
ATOM      7  C   LIG    1       -0.930   2.798   3.664  0.00  0.00    +0.250 C 
ATOM      8  C   LIG    1       -1.782   3.165   4.880  0.00  0.00    +0.020 C 
BRANCH   7   9
ATOM      9  C   LIG    1       -1.430   3.568   2.440  0.00  0.00    +0.170 C 
BRANCH   9  10
ATOM     10  N   LIG    1       -0.683   3.136   1.251  0.00  0.00    -0.530 NA
ATOM     11  C   LIG    1       -1.285   3.679   0.025  0.00  0.00    +0.150 C 
ATOM     12  C   LIG    1       -0.512   3.158  -1.190  0.00  0.00    +0.220 C 
ATOM     13  O   LIG    1        0.867   3.512  -1.060  0.00  0.00    -0.390 OA
ATOM     14  C   LIG    1        1.485   2.998   0.123  0.00  0.00    +0.220 C 
ATOM     15  C   LIG    1        0.733   3.518   1.351  0.00  0.00    +0.150 C 
ENDBRANCH   9  10
ENDBRANCH   7   9
ENDBRANCH   4   7
BRANCH   1  16
ATOM     16  C   LIG    1        0.421  -1.772   4.676  0.00  0.00    +0.340 C 
BRANCH  16  20
ATOM     17  C   LIG    1       -0.459  -5.727   3.463  0.00  0.00    +0.410 A 
ATOM     18  C   LIG    1        0.570  -5.050   2.816  0.00  0.00    -0.110 A 
ATOM     19  C   LIG    1        0.870  -3.756   3.201  0.00  0.00    +0.120 A 
ATOM     20  C   LIG    1        0.129  -3.180   4.224  0.00  0.00    -0.230 A 
ATOM     21  C   LIG    1       -0.875  -3.912   4.826  0.00  0.00    +0.320 A 
ATOM     22  N   LIG    1       -1.143  -5.143   4.434  0.00  0.00    -0.540 NA
BRANCH  17  23
ATOM     23  N   LIG    1       -0.771  -7.028   3.086  0.00  0.00    -0.610 N 
BRANCH  23  25
ATOM     24  C   LIG    1        1.185  -8.468   2.794  0.00  0.00    +0.020 C 
ATOM     25  C   LIG    1        0.051  -7.720   2.090  0.00  0.00    +0.280 C 
ENDBRANCH  23  25
BRANCH  23  26
ATOM     26  C   LIG    1       -1.921  -7.708   3.686  0.00  0.00    +0.280 C 
ATOM     27  C   LIG    1       -3.170  -7.438   2.843  0.00  0.00    -0.000 C 
ENDBRANCH  23  26
ENDBRANCH  17  23
ENDBRANCH  16  20
ENDBRANCH   1  16
TORSDOF 8
