REMARK  Name = ZINCvU0000000Azb.0
REMARK                            x       y       z     vdW  Elec       q    Type
REMARK                         _______ _______ _______ _____ _____    ______ ____
ROOT
ATOM      1  N   LIG    1        3.503  -1.121   0.033  0.00  0.00    -0.550 N 
ATOM      2  C   LIG    1        4.270  -0.907   1.121  0.00  0.00    +0.570 C 
ATOM      3  O   LIG    1        5.479  -1.004   1.041  0.00  0.00    -0.530 OA
ENDROOT
BRANCH   2   4
ATOM      4  C   LIG    1        3.641  -0.553   2.411  0.00  0.00    -0.130 A 
ATOM      5  C   LIG    1        2.685   0.462   2.470  0.00  0.00    +0.050 A 
ATOM      6  C   LIG    1        2.099   0.784   3.676  0.00  0.00    -0.010 A 
ATOM      7  C   LIG    1        2.463   0.110   4.828  0.00  0.00    -0.060 A 
ATOM      8  C   LIG    1        3.413  -0.895   4.777  0.00  0.00    +0.000 A 
ATOM      9  C   LIG    1        1.822   0.471   6.143  0.00  0.00    +0.090 C 
ATOM     10  C   LIG    1        4.004  -1.230   3.577  0.00  0.00    +0.070 A 
ENDBRANCH   2   4
BRANCH   1  16
ATOM     11  C   LIG    1        1.583   0.323  -0.270  0.00  0.00    +0.150 A 
ATOM     12  C   LIG    1        0.215   0.527  -0.202  0.00  0.00    -0.070 A 
ATOM     13  C   LIG    1       -0.615  -0.491   0.231  0.00  0.00    +0.060 A 
ATOM     14  C   LIG    1       -0.084  -1.713   0.597  0.00  0.00    -0.020 A 
ATOM     15  C   LIG    1        1.281  -1.925   0.532  0.00  0.00    +0.060 A 
ATOM     16  C   LIG    1        2.120  -0.909   0.099  0.00  0.00    +0.100 A 
BRANCH  11  18
ATOM     17  C   LIG    1        1.782   2.558  -1.057  0.00  0.00    +0.240 C 
ATOM     18  O   LIG    1        2.401   1.323  -0.695  0.00  0.00    -0.300 OA
ENDBRANCH  11  18
ENDBRANCH   1  16
BRANCH   1  19
ATOM     19  C   LIG    1        4.116  -1.575  -1.217  0.00  0.00    +0.380 C 
BRANCH  19  20
ATOM     20  C   LIG    1        4.514  -0.380  -2.045  0.00  0.00    -0.200 A 
ATOM     21  C   LIG    1        5.781   0.098  -1.974  0.00  0.00    +0.160 A 
ATOM     22  C   LIG    1        6.136   1.261  -2.791  0.00  0.00    -0.130 A 
ATOM     23  C   LIG    1        7.426   1.799  -2.761  0.00  0.00    +0.080 A 
ATOM     24  C   LIG    1        7.725   2.884  -3.535  0.00  0.00    -0.020 A 
ATOM     25  C   LIG    1        6.760   3.457  -4.352  0.00  0.00    +0.060 A 
ATOM     26  C   LIG    1        5.482   2.943  -4.397  0.00  0.00    -0.130 A 
ATOM     27  C   LIG    1        4.444   3.575  -5.288  0.00  0.00    +0.100 C 
ATOM     28  C   LIG    1        5.154   1.840  -3.617  0.00  0.00    +0.190 A 
ATOM     29  N   LIG    1        3.883   1.305  -3.643  0.00  0.00    -0.630 N 
ATOM     30  H   LIG    1        3.208   1.705  -4.213  0.00  0.00    +0.410 HD
ATOM     31  C   LIG    1        3.568   0.234  -2.894  0.00  0.00    +0.560 A 
ATOM     32  O   LIG    1        2.436  -0.215  -2.946  0.00  0.00    -0.530 OA
ENDBRANCH  19  20
ENDBRANCH   1  19
TORSDOF 5
