REMARK  Name = ZINCtV000002OwRR.0
REMARK                            x       y       z     vdW  Elec       q    Type
REMARK                         _______ _______ _______ _____ _____    ______ ____
ROOT
ATOM      1  O   LIG    1       -2.202   8.321  -0.315  0.00  0.00    -0.530 OA
ATOM      2  C   LIG    1       -3.290   7.782  -0.399  0.00  0.00    +0.590 C 
ATOM      3  N   LIG    1       -3.386   6.441  -0.311  0.00  0.00    -0.670 N 
ATOM      4  H   LIG    1       -4.258   6.016  -0.319  0.00  0.00    +0.410 HD
ENDROOT
BRANCH   3   5
ATOM      5  C   LIG    1       -2.229   5.662  -0.208  0.00  0.00    +0.190 A 
ATOM      6  C   LIG    1       -2.174   4.414  -0.815  0.00  0.00    -0.040 A 
ATOM      7  C   LIG    1       -1.031   3.644  -0.713  0.00  0.00    +0.070 A 
ATOM      8  C   LIG    1        0.060   4.113  -0.006  0.00  0.00    -0.080 A 
ATOM      9  C   LIG    1        0.011   5.360   0.602  0.00  0.00    +0.140 A 
ATOM     10  C   LIG    1       -1.135   6.133   0.506  0.00  0.00    +0.000 A 
BRANCH   9  11
ATOM     11  O   LIG    1        1.085   5.820   1.297  0.00  0.00    -0.250 OA
BRANCH  11  12
ATOM     12  C   LIG    1        2.225   5.082   1.270  0.00  0.00    +0.110 A 
ATOM     13  C   LIG    1        2.686   4.472   2.428  0.00  0.00    +0.020 A 
ATOM     14  C   LIG    1        3.849   3.728   2.400  0.00  0.00    +0.070 A 
ATOM     15  C   LIG    1        4.554   3.589   1.218  0.00  0.00    -0.100 A 
ATOM     16  C   LIG    1        4.097   4.196   0.062  0.00  0.00    +0.070 A 
ATOM     17 BR   LIG    1        6.146   2.569   1.183  0.00  0.00    -0.040 Br
ATOM     18  C   LIG    1        2.935   4.942   0.086  0.00  0.00    +0.010 A 
ENDBRANCH  11  12
ENDBRANCH   9  11
ENDBRANCH   3   5
BRANCH   2  19
ATOM     19  C   LIG    1       -4.501   8.596  -0.598  0.00  0.00    -0.240 A 
ATOM     20  C   LIG    1       -4.568   9.958  -0.701  0.00  0.00    +0.260 A 
ATOM     21  N   LIG    1       -5.856  10.307  -0.880  0.00  0.00    -0.440 N 
ATOM     22  C   LIG    1       -6.651   9.198  -0.889  0.00  0.00    +0.160 A 
ATOM     23  C   LIG    1       -5.879   8.110  -0.720  0.00  0.00    -0.020 A 
BRANCH  21  24
ATOM     24  C   LIG    1       -6.337  11.682  -1.037  0.00  0.00    +0.340 C 
BRANCH  24  25
ATOM     25  C   LIG    1       -6.663  12.258   0.317  0.00  0.00    -0.120 A 
ATOM     26  C   LIG    1       -7.937  12.123   0.837  0.00  0.00    +0.020 A 
ATOM     27  C   LIG    1       -8.234  12.647   2.082  0.00  0.00    +0.010 A 
ATOM     28  C   LIG    1       -7.261  13.314   2.801  0.00  0.00    +0.020 A 
ATOM     29  C   LIG    1       -5.989  13.454   2.279  0.00  0.00    +0.010 A 
ATOM     30  C   LIG    1       -5.690  12.925   1.037  0.00  0.00    +0.020 A 
ENDBRANCH  24  25
ENDBRANCH  21  24
ENDBRANCH   2  19
TORSDOF 6
