REMARK  Name = ZINCpk00000e9DLL.0
REMARK                            x       y       z     vdW  Elec       q    Type
REMARK                         _______ _______ _______ _____ _____    ______ ____
ROOT
ATOM      1  C   LIG    1       -8.492  -1.339   2.765  0.00  0.00    +0.190 A 
ATOM      2  N   LIG    1       -8.204  -0.068   2.648  0.00  0.00    -0.290 NA
ATOM      3  N   LIG    1       -7.301   0.092   1.743  0.00  0.00    -0.280 NA
ATOM      4  C   LIG    1       -6.978  -1.062   1.245  0.00  0.00    +0.160 A 
ATOM      5  C   LIG    1       -5.979  -1.374   0.163  0.00  0.00    +0.420 C 
ATOM      6  N   LIG    1       -5.801  -2.838   0.145  0.00  0.00    -0.620 N 
ATOM      7  C   LIG    1       -6.999  -3.683   0.263  0.00  0.00    +0.310 C 
ATOM      8  C   LIG    1       -7.655  -3.442   1.628  0.00  0.00    +0.300 C 
ATOM      9  C   LIG    1       -4.575  -3.386   0.028  0.00  0.00    +0.610 C 
ATOM     10  O   LIG    1       -4.455  -4.593  -0.071  0.00  0.00    -0.510 OA
ATOM     11  N   LIG    1       -7.719  -2.003   1.882  0.00  0.00    -0.460 N 
ENDROOT
BRANCH   9  12
ATOM     12  C   LIG    1       -3.385  -2.527   0.021  0.00  0.00    -0.280 A 
ATOM     13  C   LIG    1       -3.006  -1.853  -1.146  0.00  0.00    +0.190 A 
ATOM     14  C   LIG    1       -1.882  -1.045  -1.124  0.00  0.00    -0.060 A 
ATOM     15  C   LIG    1       -1.142  -0.920   0.045  0.00  0.00    +0.280 A 
ATOM     16  N   LIG    1       -1.518  -1.581   1.183  0.00  0.00    -0.600 N 
ATOM     17  H   LIG    1       -0.992  -1.479   1.992  0.00  0.00    +0.420 HD
ATOM     18  C   LIG    1       -2.608  -2.370   1.195  0.00  0.00    +0.540 A 
ATOM     19  O   LIG    1       -2.927  -2.952   2.218  0.00  0.00    -0.530 OA
BRANCH  15  20
ATOM     20  C   LIG    1        0.048  -0.068   0.061  0.00  0.00    -0.040 A 
ATOM     21  C   LIG    1        0.539   0.648  -0.996  0.00  0.00    +0.050 A 
ATOM     22  C   LIG    1        1.685   1.315  -0.534  0.00  0.00    -0.060 A 
ATOM     23  C   LIG    1        1.842   0.982   0.766  0.00  0.00    +0.230 A 
ATOM     24  O   LIG    1        0.854   0.149   1.121  0.00  0.00    -0.170 OA
ENDBRANCH  15  20
ENDBRANCH   9  12
BRANCH   1  26
ATOM     25  C   LIG    1       -8.812  -2.293   5.031  0.00  0.00    +0.030 C 
ATOM     26  C   LIG    1       -9.498  -1.946   3.708  0.00  0.00    +0.140 C 
ENDBRANCH   1  26
TORSDOF 3
