REMARK  Name = ZINCrH00000No4YN.0
REMARK                            x       y       z     vdW  Elec       q    Type
REMARK                         _______ _______ _______ _____ _____    ______ ____
ROOT
ATOM      1  C   LIG    1       -2.588   4.622   0.051  0.00  0.00    +0.550 C 
ATOM      2  N   LIG    1       -2.228   4.031   1.208  0.00  0.00    -0.640 N 
ATOM      3  H   LIG    1       -2.479   4.430   2.055  0.00  0.00    +0.420 HD
ATOM      4  O   LIG    1       -2.274   4.123  -1.008  0.00  0.00    -0.450 OA
ENDROOT
BRANCH   2   5
ATOM      5  C   LIG    1       -1.500   2.853   1.186  0.00  0.00    +0.520 A 
ATOM      6  N   LIG    1       -1.106   2.233   0.103  0.00  0.00    -0.470 NA
ATOM      7  C   LIG    1       -0.421   1.110   0.444  0.00  0.00    +0.070 A 
ATOM      8  C   LIG    1        0.204   0.105  -0.298  0.00  0.00    +0.130 A 
ATOM      9  C   LIG    1        0.841  -0.930   0.351  0.00  0.00    -0.090 A 
ATOM     10  C   LIG    1        0.865  -0.981   1.738  0.00  0.00    -0.010 A 
ATOM     11  C   LIG    1        0.252   0.005   2.485  0.00  0.00    +0.050 A 
ATOM     12 CL   LIG    1        1.672  -2.294   2.539  0.00  0.00    -0.040 Cl
ATOM     13 BR   LIG    1        1.686  -2.290  -0.654  0.00  0.00    -0.020 Br
ATOM     14  C   LIG    1       -0.393   1.054   1.847  0.00  0.00    +0.070 A 
ATOM     15  N   LIG    1       -1.083   2.168   2.291  0.00  0.00    -0.500 N 
ATOM     16  C   LIG    1       -1.322   2.544   3.687  0.00  0.00    +0.330 C 
ENDBRANCH   2   5
BRANCH   1  24
ATOM     17  C   LIG    1       -8.849   5.185   0.559  0.00  0.00    +0.550 C 
ATOM     18  N   LIG    1       -7.673   5.515  -0.010  0.00  0.00    -0.610 N 
ATOM     19  C   LIG    1       -6.909   4.517  -0.769  0.00  0.00    +0.290 C 
ATOM     20  C   LIG    1       -5.508   4.395  -0.156  0.00  0.00    +0.050 C 
ATOM     21  C   LIG    1       -4.900   5.796  -0.034  0.00  0.00    -0.100 C 
ATOM     22  C   LIG    1       -4.086   6.322  -1.217  0.00  0.00    +0.090 C 
ATOM     23  C   LIG    1       -5.744   6.804   0.753  0.00  0.00    +0.060 C 
ATOM     24  C   LIG    1       -3.380   5.904   0.075  0.00  0.00    -0.040 C 
ATOM     25  C   LIG    1       -7.140   6.877   0.122  0.00  0.00    +0.280 C 
ATOM     26  O   LIG    1       -9.237   4.033   0.529  0.00  0.00    -0.540 OA
BRANCH  17  28
ATOM     27  C   LIG    1      -10.773   5.878   1.865  0.00  0.00    +0.140 C 
ATOM     28  C   LIG    1       -9.664   6.219   1.215  0.00  0.00    -0.090 C 
ENDBRANCH  17  28
ENDBRANCH   1  24
TORSDOF 3
