REMARK  Name = ZINCnE000001LH9A.1
REMARK                            x       y       z     vdW  Elec       q    Type
REMARK                         _______ _______ _______ _____ _____    ______ ____
ROOT
ATOM      1  N   LIG    1       -2.578   5.199   0.054  0.00  0.00    -0.740 N 
ATOM      2  H   LIG    1       -1.752   5.709   0.049  0.00  0.00    +0.390 HD
ATOM      3  C   LIG    1       -2.538   3.852   0.046  0.00  0.00    +0.560 C 
ATOM      4  O   LIG    1       -3.572   3.213   0.052  0.00  0.00    -0.510 OA
ENDROOT
BRANCH   3   5
ATOM      5  C   LIG    1       -1.239   3.152   0.030  0.00  0.00    -0.220 A 
ATOM      6  C   LIG    1       -0.063   3.884   0.023  0.00  0.00    +0.060 A 
ATOM      7  C   LIG    1        1.169   3.214   0.008  0.00  0.00    -0.160 A 
ATOM      8  C   LIG    1        2.382   3.925  -0.001  0.00  0.00    +0.050 A 
ATOM      9  C   LIG    1        3.561   3.246  -0.015  0.00  0.00    -0.100 A 
ATOM     10  C   LIG    1        3.587   1.853  -0.023  0.00  0.00    -0.010 A 
ATOM     11  C   LIG    1        2.433   1.130  -0.015  0.00  0.00    -0.040 A 
ATOM     12  C   LIG    1        1.194   1.795   0.000  0.00  0.00    +0.030 A 
ATOM     13  C   LIG    1       -0.013   1.076   0.008  0.00  0.00    -0.210 A 
ATOM     14  C   LIG    1       -1.202   1.742   0.017  0.00  0.00    +0.300 A 
ATOM     15  O   LIG    1       -2.364   1.040   0.019  0.00  0.00    -0.670 OA
ENDBRANCH   3   5
BRANCH   1  16
ATOM     16  C   LIG    1       -3.867   5.894   0.070  0.00  0.00    +0.310 C 
BRANCH  16  22
ATOM     17  C   LIG    1       -3.329   8.043  -1.106  0.00  0.00    +0.140 A 
ATOM     18  C   LIG    1       -3.122   9.414  -1.099  0.00  0.00    -0.080 A 
ATOM     19  C   LIG    1       -3.211  10.118   0.087  0.00  0.00    +0.040 A 
ATOM     20  C   LIG    1       -3.511   9.458   1.264  0.00  0.00    -0.040 A 
ATOM     21  C   LIG    1       -3.724   8.092   1.258  0.00  0.00    +0.070 A 
ATOM     22  C   LIG    1       -3.636   7.383   0.075  0.00  0.00    -0.130 A 
BRANCH  17  24
ATOM     23  C   LIG    1       -2.917   8.091  -3.447  0.00  0.00    +0.230 C 
ATOM     24  O   LIG    1       -3.236   7.347  -2.270  0.00  0.00    -0.300 OA
ENDBRANCH  17  24
ENDBRANCH  16  22
ENDBRANCH   1  16
TORSDOF 4
