REMARK  Name = ZINCqH0000038ljU.0
REMARK                            x       y       z     vdW  Elec       q    Type
REMARK                         _______ _______ _______ _____ _____    ______ ____
ROOT
ATOM      1  C   LIG    1       -1.160   7.408  -0.457  0.00  0.00    +0.180 C 
ATOM      2  C   LIG    1       -0.829   8.007   0.911  0.00  0.00    +0.020 C 
ENDROOT
BRANCH   1   3
ATOM      3  N   LIG    1       -2.479   7.883  -0.894  0.00  0.00    -0.520 NA
ATOM      4  C   LIG    1       -3.505   7.611   0.130  0.00  0.00    +0.270 C 
ATOM      5  C   LIG    1       -4.836   7.498  -0.592  0.00  0.00    -0.220 A 
ATOM      6  C   LIG    1       -5.431   8.511  -1.256  0.00  0.00    +0.100 A 
ATOM      7  N   LIG    1       -6.585   8.054  -1.767  0.00  0.00    -0.370 N 
ATOM      8  N   LIG    1       -6.705   6.703  -1.403  0.00  0.00    -0.310 NA
ATOM      9  C   LIG    1       -7.546   8.825  -2.560  0.00  0.00    +0.340 C 
ATOM     10  C   LIG    1       -4.850   9.909  -1.376  0.00  0.00    +0.120 C 
ATOM     11  C   LIG    1       -3.539   9.780  -2.169  0.00  0.00    -0.050 C 
ATOM     12  C   LIG    1       -3.153  11.149  -2.731  0.00  0.00    +0.040 C 
ATOM     13  C   LIG    1       -3.744   8.800  -3.326  0.00  0.00    +0.040 C 
ATOM     14  C   LIG    1       -5.651   6.373  -0.696  0.00  0.00    +0.250 A 
ATOM     15  C   LIG    1       -2.426   9.276  -1.282  0.00  0.00    +0.180 C 
ENDBRANCH   1   3
BRANCH   1  18
ATOM     16  N   LIG    1       -0.067   5.243   0.029  0.00  0.00    -0.690 N 
ATOM     17  H   LIG    1        0.719   5.737   0.311  0.00  0.00    +0.410 HD
ATOM     18  C   LIG    1       -1.176   5.904  -0.356  0.00  0.00    +0.520 C 
ATOM     19  O   LIG    1       -2.187   5.289  -0.622  0.00  0.00    -0.490 OA
BRANCH  16  27
ATOM     20  C   LIG    1       -0.720   3.878   2.439  0.00  0.00    +0.100 C 
ATOM     21  C   LIG    1       -0.360   3.137   1.176  0.00  0.00    -0.060 A 
ATOM     22  C   LIG    1       -0.341   1.756   1.166  0.00  0.00    +0.020 A 
ATOM     23  C   LIG    1       -0.012   1.076   0.009  0.00  0.00    +0.040 A 
ATOM     24  C   LIG    1        0.305   1.775  -1.142  0.00  0.00    +0.030 A 
ATOM     25  C   LIG    1        0.282   3.157  -1.140  0.00  0.00    -0.020 A 
ATOM     26 CL   LIG    1        0.673   4.034  -2.586  0.00  0.00    -0.060 Cl
ATOM     27  C   LIG    1       -0.049   3.843   0.022  0.00  0.00    +0.140 A 
ENDBRANCH  16  27
ENDBRANCH   1  18
TORSDOF 3
