REMARK  Name = ZINCpk000000oIKK.0
REMARK                            x       y       z     vdW  Elec       q    Type
REMARK                         _______ _______ _______ _____ _____    ______ ____
ROOT
ATOM      1  S   LIG    1       -0.860   1.669   1.497  0.00  0.00    +0.130 S 
ENDROOT
BRANCH   1   2
ATOM      2  C   LIG    1       -2.391   0.813   1.334  0.00  0.00    +0.210 A 
ATOM      3  N   LIG    1       -2.733   0.000   0.357  0.00  0.00    -0.330 NA
ATOM      4  N   LIG    1       -3.918  -0.458   0.547  0.00  0.00    -0.020 NA
ATOM      5  N   LIG    1       -4.420   0.023   1.632  0.00  0.00    -0.060 NA
ATOM      6  N   LIG    1       -3.448   0.871   2.191  0.00  0.00    -0.320 N 
BRANCH   6   7
ATOM      7  C   LIG    1       -3.546   1.617   3.374  0.00  0.00    +0.150 A 
ATOM      8  C   LIG    1       -4.763   2.169   3.750  0.00  0.00    +0.050 A 
ATOM      9  C   LIG    1       -4.858   2.903   4.916  0.00  0.00    +0.080 A 
ATOM     10  C   LIG    1       -3.743   3.088   5.711  0.00  0.00    +0.010 A 
ATOM     11  C   LIG    1       -2.526   2.539   5.340  0.00  0.00    +0.130 A 
ATOM     12  F   LIG    1       -1.437   2.722   6.119  0.00  0.00    -0.120 F 
ATOM     13  C   LIG    1       -2.428   1.798   4.176  0.00  0.00    +0.000 A 
ENDBRANCH   6   7
ENDBRANCH   1   2
BRANCH   1  14
ATOM     14  C   LIG    1       -0.013   1.086   0.008  0.00  0.00    +0.000 C 
ATOM     15  C   LIG    1       -0.753   1.593  -1.232  0.00  0.00    +0.090 C 
BRANCH  14  21
ATOM     16  N   LIG    1        3.913   0.447  -2.993  0.00  0.00    -0.540 NA
ATOM     17  C   LIG    1        4.142   1.693  -2.251  0.00  0.00    +0.170 C 
ATOM     18  C   LIG    1        3.721   1.499  -0.790  0.00  0.00    +0.300 C 
ATOM     19  N   LIG    1        2.336   1.006  -0.765  0.00  0.00    -0.600 N 
ATOM     20  C   LIG    1        1.998  -0.165  -1.589  0.00  0.00    +0.280 C 
ATOM     21  C   LIG    1        1.401   1.607  -0.003  0.00  0.00    +0.540 C 
ATOM     22  O   LIG    1        1.698   2.569   0.675  0.00  0.00    -0.520 OA
ATOM     23  C   LIG    1        2.486   0.099  -3.023  0.00  0.00    +0.170 C 
BRANCH  16  25
ATOM     24  C   LIG    1        3.992  -0.669  -5.172  0.00  0.00    +0.030 C 
ATOM     25  C   LIG    1        4.462   0.535  -4.353  0.00  0.00    +0.160 C 
ENDBRANCH  16  25
ENDBRANCH  14  21
ENDBRANCH   1  14
TORSDOF 5
