REMARK  Name = ZINCtj00001n1jvS.0
REMARK                            x       y       z     vdW  Elec       q    Type
REMARK                         _______ _______ _______ _____ _____    ______ ____
ROOT
ATOM      1  C   LIG    1        2.743  -0.220  -0.136  0.00  0.00    +0.150 C 
ATOM      2  C   LIG    1        1.335  -0.613   0.323  0.00  0.00    +0.340 C 
ATOM      3  N   LIG    1        0.358   0.002  -0.590  0.00  0.00    -0.630 N 
ATOM      4  C   LIG    1        0.480   1.442  -0.867  0.00  0.00    +0.300 C 
ATOM      5  C   LIG    1        1.928   1.738  -1.269  0.00  0.00    +0.270 C 
ATOM      6  C   LIG    1       -0.620  -0.733  -1.156  0.00  0.00    +0.600 C 
ATOM      7  O   LIG    1       -0.632  -1.941  -1.015  0.00  0.00    -0.490 OA
ATOM      8  N   LIG    1        2.836   1.243  -0.227  0.00  0.00    -0.380 N 
ATOM      9  H   LIG    1        2.582   1.651   0.660  0.00  0.00    +0.430 HD
ENDROOT
BRANCH   6  10
ATOM     10  C   LIG    1       -1.670  -0.075  -1.941  0.00  0.00    -0.080 A 
ATOM     11  C   LIG    1       -2.431  -0.657  -2.933  0.00  0.00    +0.170 A 
ATOM     12  C   LIG    1       -3.303   0.326  -3.411  0.00  0.00    -0.750 A 
ATOM     13  C   LIG    1       -3.066   1.465  -2.718  0.00  0.00    +0.360 A 
ATOM     14  N   LIG    1       -2.079   1.234  -1.819  0.00  0.00    -0.540 N 
ATOM     15  H   LIG    1       -1.719   1.883  -1.194  0.00  0.00    +0.420 HD
BRANCH  12  16
ATOM     16  S   LIG    1       -4.500   0.118  -4.687  0.00  0.00    +2.710 S 
ATOM     17  O   LIG    1       -4.056  -0.975  -5.479  0.00  0.00    -0.950 OA
ATOM     18  O   LIG    1       -4.750   1.413  -5.218  0.00  0.00    -0.950 OA
BRANCH  16  19
ATOM     19  N   LIG    1       -5.908  -0.370  -3.964  0.00  0.00    -1.000 NA
ATOM     20  C   LIG    1       -6.173  -1.798  -3.787  0.00  0.00    +0.320 C 
ATOM     21  C   LIG    1       -6.209  -2.123  -2.284  0.00  0.00    +0.100 C 
ATOM     22  S   LIG    1       -7.485  -1.099  -1.495  0.00  0.00    -0.240 S 
ATOM     23  C   LIG    1       -6.994   0.580  -1.988  0.00  0.00    +0.090 C 
ATOM     24  C   LIG    1       -6.876   0.632  -3.515  0.00  0.00    +0.320 C 
ENDBRANCH  16  19
ENDBRANCH  12  16
ENDBRANCH   6  10
BRANCH   1  25
ATOM     25  C   LIG    1        3.771  -0.735   0.873  0.00  0.00    +0.050 C 
BRANCH  25  27
ATOM     26  C   LIG    1        4.797  -2.785   1.865  0.00  0.00    +0.030 C 
ATOM     27  C   LIG    1        3.684  -2.260   0.956  0.00  0.00    +0.030 C 
ENDBRANCH  25  27
ENDBRANCH   1  25
BRANCH   8  28
ATOM     28  C   LIG    1        4.215   1.624  -0.560  0.00  0.00    +0.280 C 
BRANCH  28  29
ATOM     29  C   LIG    1        4.337   3.149  -0.559  0.00  0.00    +0.200 C 
BRANCH  29  30
ATOM     30  O   LIG    1        4.117   3.644   0.764  0.00  0.00    -0.400 OA
ATOM     31  C   LIG    1        4.209   5.065   0.875  0.00  0.00    +0.240 C 
ENDBRANCH  29  30
ENDBRANCH  28  29
ENDBRANCH   8  28
TORSDOF 8
