REMARK  Name = ZINCtj00001n1jvS.1
REMARK                            x       y       z     vdW  Elec       q    Type
REMARK                         _______ _______ _______ _____ _____    ______ ____
ROOT
ATOM      1  C   LIG    1        0.741   0.959   2.238  0.00  0.00    +0.160 C 
ATOM      2  C   LIG    1       -0.306   1.389   3.270  0.00  0.00    +0.340 C 
ATOM      3  N   LIG    1       -0.577   2.824   3.090  0.00  0.00    -0.630 N 
ATOM      4  C   LIG    1       -0.888   3.306   1.736  0.00  0.00    +0.290 C 
ATOM      5  C   LIG    1        0.187   2.785   0.776  0.00  0.00    +0.260 C 
ATOM      6  C   LIG    1       -0.539   3.673   4.136  0.00  0.00    +0.610 C 
ATOM      7  O   LIG    1       -0.166   3.280   5.226  0.00  0.00    -0.490 OA
ATOM      8  N   LIG    1        0.280   1.325   0.893  0.00  0.00    -0.380 N 
ATOM      9  H   LIG    1       -0.628   0.917   0.729  0.00  0.00    +0.430 HD
ENDROOT
BRANCH   6  10
ATOM     10  C   LIG    1       -0.949   5.070   3.962  0.00  0.00    -0.080 A 
ATOM     11  C   LIG    1       -0.661   6.117   4.813  0.00  0.00    +0.170 A 
ATOM     12  C   LIG    1       -1.240   7.264   4.263  0.00  0.00    -0.750 A 
ATOM     13  C   LIG    1       -1.866   6.906   3.116  0.00  0.00    +0.360 A 
ATOM     14  N   LIG    1       -1.697   5.575   2.922  0.00  0.00    -0.540 N 
ATOM     15  H   LIG    1       -2.044   5.064   2.175  0.00  0.00    +0.420 HD
BRANCH  12  16
ATOM     16  S   LIG    1       -1.174   8.888   4.945  0.00  0.00    +2.710 S 
ATOM     17  O   LIG    1       -1.383   9.786   3.863  0.00  0.00    -0.950 OA
ATOM     18  O   LIG    1       -0.023   8.927   5.777  0.00  0.00    -0.940 OA
BRANCH  16  19
ATOM     19  N   LIG    1       -2.482   9.052   5.947  0.00  0.00    -1.000 NA
ATOM     20  C   LIG    1       -3.744   9.566   5.413  0.00  0.00    +0.320 C 
ATOM     21  C   LIG    1       -4.813   8.464   5.490  0.00  0.00    +0.090 C 
ATOM     22  S   LIG    1       -4.981   7.933   7.220  0.00  0.00    -0.240 S 
ATOM     23  C   LIG    1       -3.273   7.491   7.657  0.00  0.00    +0.090 C 
ATOM     24  C   LIG    1       -2.362   8.687   7.359  0.00  0.00    +0.320 C 
ENDBRANCH  16  19
ENDBRANCH  12  16
ENDBRANCH   6  10
BRANCH   1  25
ATOM     25  C   LIG    1        2.067   1.664   2.532  0.00  0.00    +0.040 C 
BRANCH  25  27
ATOM     26  C   LIG    1        3.898   1.942   4.209  0.00  0.00    +0.030 C 
ATOM     27  C   LIG    1        2.623   1.168   3.868  0.00  0.00    +0.030 C 
ENDBRANCH  25  27
ENDBRANCH   1  25
BRANCH   8  28
ATOM     28  C   LIG    1        1.231   0.815  -0.104  0.00  0.00    +0.280 C 
BRANCH  28  29
ATOM     29  C   LIG    1        1.218  -0.715  -0.086  0.00  0.00    +0.200 C 
BRANCH  29  30
ATOM     30  O   LIG    1       -0.071  -1.185  -0.486  0.00  0.00    -0.400 OA
ATOM     31  C   LIG    1       -0.191  -2.609  -0.503  0.00  0.00    +0.240 C 
ENDBRANCH  29  30
ENDBRANCH  28  29
ENDBRANCH   8  28
TORSDOF 8
