REMARK  Name = ZINCrH000004tRmJ.0
REMARK                            x       y       z     vdW  Elec       q    Type
REMARK                         _______ _______ _______ _____ _____    ______ ____
ROOT
ATOM      1  C   LIG    1        1.280   1.980   0.007  0.00  0.00    +0.100 C 
ENDROOT
BRANCH   1   3
ATOM      2  O   LIG    1        0.002  -0.004  -0.008  0.00  0.00    -0.500 OA
ATOM      3  C   LIG    1       -0.014   1.209   0.007  0.00  0.00    +0.540 C 
ATOM      4  N   LIG    1       -1.191   1.867   0.018  0.00  0.00    -0.660 N 
ATOM      5  H   LIG    1       -1.205   2.833   0.098  0.00  0.00    +0.420 HD
BRANCH   4   6
ATOM      6  C   LIG    1       -2.393   1.154  -0.086  0.00  0.00    +0.150 A 
ATOM      7  C   LIG    1       -3.469   1.704  -0.769  0.00  0.00    +0.000 A 
ATOM      8  C   LIG    1       -4.652   1.000  -0.876  0.00  0.00    +0.050 A 
ATOM      9  C   LIG    1       -4.774  -0.252  -0.292  0.00  0.00    +0.040 A 
ATOM     10  O   LIG    1       -5.952  -0.927  -0.399  0.00  0.00    -0.310 OA
ATOM     11  C   LIG    1       -5.916  -2.332  -0.125  0.00  0.00    +0.220 C 
ATOM     12  C   LIG    1       -5.119  -2.548   1.168  0.00  0.00    +0.220 C 
ATOM     13  O   LIG    1       -3.797  -2.033   0.972  0.00  0.00    -0.300 OA
ATOM     14  C   LIG    1       -3.699  -0.803   0.397  0.00  0.00    +0.070 A 
ATOM     15  C   LIG    1       -2.510  -0.099   0.499  0.00  0.00    +0.040 A 
ENDBRANCH   4   6
ENDBRANCH   1   3
BRANCH   1  16
ATOM     16  S   LIG    1        2.675   0.821  -0.017  0.00  0.00    +0.120 S 
BRANCH  16  17
ATOM     17  C   LIG    1        4.077   1.887  -0.014  0.00  0.00    +0.190 A 
ATOM     18  N   LIG    1        4.037   3.200   0.003  0.00  0.00    -0.310 NA
ATOM     19  N   LIG    1        5.367   3.651  -0.001  0.00  0.00    -0.470 N 
ATOM     20  H   LIG    1        5.668   4.572   0.009  0.00  0.00    +0.440 HD
ATOM     21  C   LIG    1        6.144   2.545  -0.021  0.00  0.00    +0.330 A 
ATOM     22  N   LIG    1        5.352   1.491  -0.022  0.00  0.00    -0.470 NA
BRANCH  21  23
ATOM     23  C   LIG    1        7.624   2.521  -0.033  0.00  0.00    -0.020 A 
ATOM     24  C   LIG    1        8.343   3.716  -0.029  0.00  0.00    +0.040 A 
ATOM     25  C   LIG    1        9.723   3.687  -0.035  0.00  0.00    +0.040 A 
ATOM     26  C   LIG    1       10.393   2.477  -0.055  0.00  0.00    +0.050 A 
ATOM     27  C   LIG    1        9.686   1.288  -0.064  0.00  0.00    +0.050 A 
ATOM     28  C   LIG    1        8.305   1.303  -0.053  0.00  0.00    -0.050 A 
ATOM     29 BR   LIG    1        7.340  -0.323  -0.067  0.00  0.00    +0.010 Br
ENDBRANCH  21  23
ENDBRANCH  16  17
ENDBRANCH   1  16
TORSDOF 5
