REMARK  Name = ZINCrH000004tRmJ.1
REMARK                            x       y       z     vdW  Elec       q    Type
REMARK                         _______ _______ _______ _____ _____    ______ ____
ROOT
ATOM      1  C   LIG    1       -3.708  -1.069  -0.198  0.00  0.00    +0.110 C 
ENDROOT
BRANCH   1   3
ATOM      2  O   LIG    1       -1.356  -0.903  -0.096  0.00  0.00    -0.500 OA
ATOM      3  C   LIG    1       -2.412  -0.307  -0.088  0.00  0.00    +0.530 C 
ATOM      4  N   LIG    1       -2.428   1.036   0.020  0.00  0.00    -0.660 N 
ATOM      5  H   LIG    1       -3.272   1.506   0.104  0.00  0.00    +0.420 HD
BRANCH   4   6
ATOM      6  C   LIG    1       -1.224   1.754   0.012  0.00  0.00    +0.150 A 
ATOM      7  C   LIG    1       -0.152   1.302  -0.746  0.00  0.00    +0.040 A 
ATOM      8  C   LIG    1        1.033   2.012  -0.759  0.00  0.00    +0.050 A 
ATOM      9  C   LIG    1        1.157   3.174  -0.011  0.00  0.00    +0.040 A 
ATOM     10  O   LIG    1        2.335   3.858  -0.033  0.00  0.00    -0.310 OA
ATOM     11  C   LIG    1        2.302   5.211   0.432  0.00  0.00    +0.220 C 
ATOM     12  C   LIG    1        1.512   5.249   1.747  0.00  0.00    +0.220 C 
ATOM     13  O   LIG    1        0.189   4.766   1.489  0.00  0.00    -0.310 OA
ATOM     14  C   LIG    1        0.087   3.626   0.752  0.00  0.00    +0.070 A 
ATOM     15  C   LIG    1       -1.102   2.913   0.765  0.00  0.00    +0.000 A 
ENDBRANCH   4   6
ENDBRANCH   1   3
BRANCH   1  16
ATOM     16  S   LIG    1       -3.357  -2.840  -0.329  0.00  0.00    +0.100 S 
BRANCH  16  17
ATOM     17  C   LIG    1       -4.998  -3.470  -0.441  0.00  0.00    +0.250 A 
ATOM     18  N   LIG    1       -6.103  -2.756  -0.419  0.00  0.00    -0.530 NA
ATOM     19  C   LIG    1       -7.165  -3.567  -0.530  0.00  0.00    +0.260 A 
ATOM     20  N   LIG    1       -6.746  -4.809  -0.615  0.00  0.00    -0.260 NA
ATOM     21  N   LIG    1       -5.343  -4.771  -0.560  0.00  0.00    -0.460 N 
ATOM     22  H   LIG    1       -4.740  -5.530  -0.598  0.00  0.00    +0.450 HD
BRANCH  19  23
ATOM     23  C   LIG    1       -8.584  -3.132  -0.548  0.00  0.00    +0.010 A 
ATOM     24  C   LIG    1       -8.902  -1.780  -0.445  0.00  0.00    +0.070 A 
ATOM     25  C   LIG    1      -10.223  -1.381  -0.468  0.00  0.00    +0.030 A 
ATOM     26  C   LIG    1      -11.231  -2.321  -0.581  0.00  0.00    +0.040 A 
ATOM     27  C   LIG    1      -10.922  -3.666  -0.678  0.00  0.00    +0.040 A 
ATOM     28  C   LIG    1       -9.604  -4.076  -0.662  0.00  0.00    -0.070 A 
ATOM     29 BR   LIG    1       -9.183  -5.915  -0.793  0.00  0.00    -0.010 Br
ENDBRANCH  19  23
ENDBRANCH  16  17
ENDBRANCH   1  16
TORSDOF 5
