REMARK  Name = ZINCnE000001Tz4Z.0
REMARK                            x       y       z     vdW  Elec       q    Type
REMARK                         _______ _______ _______ _____ _____    ______ ____
ROOT
ATOM      1  C   LIG    1       -2.361   1.105   0.110  0.00  0.00    +0.160 A 
ATOM      2  C   LIG    1       -2.286  -0.279   0.192  0.00  0.00    +0.080 A 
ATOM      3  C   LIG    1       -3.442  -1.028   0.288  0.00  0.00    -0.170 A 
ATOM      4  C   LIG    1       -4.675  -0.401   0.291  0.00  0.00    +0.110 A 
ATOM      5  C   LIG    1       -4.753   0.977   0.204  0.00  0.00    -0.160 A 
ATOM      6  C   LIG    1       -3.600   1.732   0.113  0.00  0.00    +0.120 A 
ENDROOT
BRANCH   1   8
ATOM      7  C   LIG    1       -1.125   3.076   0.609  0.00  0.00    +0.540 C 
ATOM      8  N   LIG    1       -1.191   1.867   0.018  0.00  0.00    -0.680 N 
ATOM      9  H   LIG    1       -0.426   1.524  -0.471  0.00  0.00    +0.420 HD
ATOM     10  O   LIG    1       -2.107   3.541   1.149  0.00  0.00    -0.480 OA
BRANCH   7  11
ATOM     11  C   LIG    1        0.169   3.848   0.605  0.00  0.00    +0.060 C 
BRANCH  11  12
ATOM     12  S   LIG    1       -0.062   5.420   1.480  0.00  0.00    -0.120 S 
BRANCH  12  13
ATOM     13  C   LIG    1        1.575   6.193   1.370  0.00  0.00    -0.010 C 
BRANCH  13  15
ATOM     14  O   LIG    1        0.517   7.927   2.582  0.00  0.00    -0.670 OA
ATOM     15  C   LIG    1        1.547   7.531   2.063  0.00  0.00    +0.510 C 
ATOM     16  O   LIG    1        2.553   8.218   2.104  0.00  0.00    -0.690 OA
ENDBRANCH  13  15
ENDBRANCH  12  13
ENDBRANCH  11  12
ENDBRANCH   7  11
ENDBRANCH   1   8
BRANCH   5  17
ATOM     17  C   LIG    1       -6.099   1.656   0.207  0.00  0.00    +0.510 C 
ATOM     18  F   LIG    1       -6.771   1.353   1.397  0.00  0.00    -0.170 F 
ATOM     19  F   LIG    1       -6.852   1.204  -0.881  0.00  0.00    -0.170 F 
ATOM     20  F   LIG    1       -5.923   3.041   0.111  0.00  0.00    -0.170 F 
ENDBRANCH   5  17
BRANCH   3  21
ATOM     21  C   LIG    1       -3.361  -2.529   0.384  0.00  0.00    +0.510 C 
ATOM     22  F   LIG    1       -4.452  -3.009   1.116  0.00  0.00    -0.170 F 
ATOM     23  F   LIG    1       -2.173  -2.892   1.027  0.00  0.00    -0.170 F 
ATOM     24  F   LIG    1       -3.384  -3.081  -0.901  0.00  0.00    -0.170 F 
ENDBRANCH   3  21
TORSDOF 7
