REMARK  Name = ZINCrg000000sBma.0
REMARK                            x       y       z     vdW  Elec       q    Type
REMARK                         _______ _______ _______ _____ _____    ______ ____
ROOT
ATOM      1  C   LIG    1        2.704   6.618   3.064  0.00  0.00    +0.350 C 
ATOM      2  N   LIG    1        2.621   6.634   1.602  0.00  0.00    -0.460 N 
ATOM      3  C   LIG    1        2.860   7.695   0.773  0.00  0.00    +0.190 A 
ATOM      4  N   LIG    1        2.675   7.282  -0.449  0.00  0.00    -0.270 NA
ATOM      5  N   LIG    1        2.344   6.040  -0.450  0.00  0.00    -0.280 NA
ATOM      6  C   LIG    1        2.291   5.592   0.783  0.00  0.00    +0.150 A 
ENDROOT
BRANCH   3   7
ATOM      7  C   LIG    1        3.261   9.085   1.194  0.00  0.00    +0.190 C 
BRANCH   7   8
ATOM      8  C   LIG    1        4.787   9.179   1.254  0.00  0.00    +0.020 C 
ATOM      9  C   LIG    1        5.325   8.293   2.392  0.00  0.00    +0.060 C 
ATOM     10  C   LIG    1        6.799   8.663   2.652  0.00  0.00    -0.310 C 
ATOM     11  S   LIG    1        6.945  10.417   2.154  0.00  0.00    +2.390 S 
ATOM     12  O   LIG    1        7.162  11.218   3.308  0.00  0.00    -0.930 OA
ATOM     13  O   LIG    1        7.826  10.520   1.044  0.00  0.00    -0.930 OA
ATOM     14  C   LIG    1        5.218  10.632   1.581  0.00  0.00    -0.300 C 
ENDBRANCH   7   8
ENDBRANCH   3   7
BRANCH   6  15
ATOM     15  S   LIG    1        1.877   3.955   1.286  0.00  0.00    +0.050 S 
BRANCH  15  16
ATOM     16  C   LIG    1        1.576   3.196  -0.329  0.00  0.00    +0.240 C 
BRANCH  16  17
ATOM     17  C   LIG    1        1.196   1.750  -0.142  0.00  0.00    +0.250 A 
ATOM     18  N   LIG    1        0.001   1.291   0.124  0.00  0.00    -0.300 NA
ATOM     19  N   LIG    1        0.019   0.011   0.221  0.00  0.00    -0.030 NA
ATOM     20  N   LIG    1        1.214  -0.434   0.027  0.00  0.00    -0.060 NA
ATOM     21  N   LIG    1        2.026   0.688  -0.217  0.00  0.00    -0.320 N 
BRANCH  21  22
ATOM     22  C   LIG    1        3.403   0.700  -0.483  0.00  0.00    +0.110 A 
ATOM     23  C   LIG    1        3.955  -0.244  -1.338  0.00  0.00    +0.050 A 
ATOM     24  C   LIG    1        5.311  -0.227  -1.602  0.00  0.00    +0.040 A 
ATOM     25  C   LIG    1        6.120   0.724  -1.007  0.00  0.00    +0.040 A 
ATOM     26  C   LIG    1        5.574   1.663  -0.151  0.00  0.00    +0.040 A 
ATOM     27  C   LIG    1        4.218   1.653   0.112  0.00  0.00    +0.030 A 
ENDBRANCH  21  22
ENDBRANCH  16  17
ENDBRANCH  15  16
ENDBRANCH   6  15
TORSDOF 6
