REMARK  Name = ZINCbw0000000Hmj.0
REMARK                            x       y       z     vdW  Elec       q    Type
REMARK                         _______ _______ _______ _____ _____    ______ ____
ROOT
ATOM      1 CL   LIG    1       -0.604   6.971   0.679  0.00  0.00    +0.010 Cl
ATOM      2  C   LIG    1       -0.551   5.435   1.487  0.00  0.00    +0.240 A 
ATOM      3  C   LIG    1       -0.862   4.269   0.802  0.00  0.00    -0.040 A 
ATOM      4  C   LIG    1       -0.806   3.066   1.487  0.00  0.00    +0.240 A 
ATOM      5  N   LIG    1       -0.465   3.069   2.766  0.00  0.00    -0.500 NA
ATOM      6  C   LIG    1       -0.171   4.196   3.385  0.00  0.00    +0.390 A 
ATOM      7 CL   LIG    1        0.277   4.147   5.062  0.00  0.00    +0.050 Cl
ATOM      8  N   LIG    1       -0.213   5.360   2.766  0.00  0.00    -0.510 NA
ENDROOT
BRANCH   4   9
ATOM      9  C   LIG    1       -1.136   1.773   0.788  0.00  0.00    +0.020 C 
ATOM     10  C   LIG    1       -0.013   1.086   0.008  0.00  0.00    +0.060 C 
ATOM     11  C   LIG    1       -1.150   1.781  -0.743  0.00  0.00    +0.040 C 
ENDBRANCH   4   9
TORSDOF 1
