REMARK  Name = ZINCrg000000sMg8.0
REMARK                            x       y       z     vdW  Elec       q    Type
REMARK                         _______ _______ _______ _____ _____    ______ ____
ROOT
ATOM      1  C   LIG    1       -7.300  -3.878   2.661  0.00  0.00    +0.500 C 
ATOM      2  N   LIG    1       -6.715  -3.557   1.489  0.00  0.00    -0.730 N 
ATOM      3  H   LIG    1       -7.152  -3.779   0.652  0.00  0.00    +0.400 HD
ATOM      4  O   LIG    1       -6.753  -3.601   3.707  0.00  0.00    -0.520 OA
ENDROOT
BRANCH   1   5
ATOM      5  C   LIG    1       -8.633  -4.580   2.670  0.00  0.00    +0.340 C 
BRANCH   5  13
ATOM      6  C   LIG    1      -10.968  -4.779   8.902  0.00  0.00    +0.360 C 
ATOM      7  N   LIG    1      -10.190  -5.529   7.913  0.00  0.00    -0.350 N 
ATOM      8  N   LIG    1       -9.609  -6.788   8.111  0.00  0.00    -0.270 NA
ATOM      9  C   LIG    1       -8.991  -7.158   7.024  0.00  0.00    +0.330 A 
ATOM     10  C   LIG    1       -9.144  -6.144   6.061  0.00  0.00    -0.340 A 
ATOM     11  C   LIG    1       -8.702  -5.964   4.678  0.00  0.00    +0.580 A 
ATOM     12  O   LIG    1       -8.041  -6.816   4.110  0.00  0.00    -0.510 OA
ATOM     13  N   LIG    1       -9.052  -4.815   4.053  0.00  0.00    -0.530 N 
ATOM     14  C   LIG    1       -9.794  -3.882   4.703  0.00  0.00    +0.630 A 
ATOM     15  N   LIG    1      -10.199  -4.027   5.930  0.00  0.00    -0.530 NA
ATOM     16  C   LIG    1       -9.908  -5.123   6.649  0.00  0.00    +0.330 A 
ENDBRANCH   5  13
ENDBRANCH   1   5
BRANCH   2  17
ATOM     17  C   LIG    1       -5.419  -2.875   1.481  0.00  0.00    +0.260 C 
BRANCH  17  18
ATOM     18  C   LIG    1       -4.981  -2.629   0.035  0.00  0.00    +0.070 C 
BRANCH  18  19
ATOM     19  C   LIG    1       -3.648  -1.927   0.026  0.00  0.00    -0.110 A 
ATOM     20  C   LIG    1       -2.479  -2.665   0.011  0.00  0.00    +0.050 A 
ATOM     21  C   LIG    1       -1.255  -2.024   0.003  0.00  0.00    +0.010 A 
ATOM     22  C   LIG    1       -1.200  -0.637   0.010  0.00  0.00    +0.110 A 
ATOM     23  C   LIG    1       -2.374   0.101   0.031  0.00  0.00    -0.060 A 
ATOM     24  C   LIG    1       -3.595  -0.545   0.034  0.00  0.00    +0.060 A 
BRANCH  22  25
ATOM     25  O   LIG    1        0.002  -0.004   0.002  0.00  0.00    -0.320 OA
BRANCH  25  26
ATOM     26  C   LIG    1       -0.017   1.425   0.010  0.00  0.00    +0.590 C 
ATOM     27  F   LIG    1       -0.672   1.876   1.161  0.00  0.00    -0.200 F 
ATOM     28  F   LIG    1       -0.694   1.888  -1.123  0.00  0.00    -0.200 F 
ENDBRANCH  25  26
ENDBRANCH  22  25
ENDBRANCH  18  19
ENDBRANCH  17  18
ENDBRANCH   2  17
TORSDOF 7
