REMARK  Name = ZINCpk000000nDX3.0
REMARK                            x       y       z     vdW  Elec       q    Type
REMARK                         _______ _______ _______ _____ _____    ______ ____
ROOT
ATOM      1  C   LIG    1        1.283   4.407  -6.318  0.00  0.00    -0.680 A 
ATOM      2  C   LIG    1        2.362   5.052  -5.740  0.00  0.00    +0.150 A 
ATOM      3  C   LIG    1        2.623   4.902  -4.389  0.00  0.00    +0.000 A 
ATOM      4  C   LIG    1        1.804   4.112  -3.609  0.00  0.00    +0.100 A 
ATOM      5  C   LIG    1        0.718   3.454  -4.187  0.00  0.00    -0.160 A 
ATOM      6  C   LIG    1        0.460   3.609  -5.550  0.00  0.00    +0.190 A 
ENDROOT
BRANCH   5   7
ATOM      7  C   LIG    1       -0.161   2.600  -3.359  0.00  0.00    +0.560 C 
ATOM      8  N   LIG    1        0.091   2.452  -2.043  0.00  0.00    -0.720 N 
ATOM      9  H   LIG    1        0.848   2.905  -1.640  0.00  0.00    +0.400 HD
ATOM     10  O   LIG    1       -1.109   2.033  -3.864  0.00  0.00    -0.520 OA
BRANCH   8  11
ATOM     11  C   LIG    1       -0.779   1.607  -1.222  0.00  0.00    +0.240 C 
ATOM     12  C   LIG    1       -1.948   2.439  -0.646  0.00  0.00    +0.040 C 
ATOM     13  C   LIG    1       -1.449   2.800   0.776  0.00  0.00    +0.170 C 
ATOM     14  N   LIG    1       -0.726   1.573   1.208  0.00  0.00    -0.510 NA
ATOM     15  C   LIG    1       -0.013   1.086   0.008  0.00  0.00    +0.180 C 
BRANCH  14  16
ATOM     16  C   LIG    1        0.215   1.867   2.297  0.00  0.00    +0.170 C 
BRANCH  16  17
ATOM     17  C   LIG    1       -0.520   2.598   3.423  0.00  0.00    +0.390 C 
ATOM     18  F   LIG    1       -1.554   1.789   3.906  0.00  0.00    -0.190 F 
ATOM     19  F   LIG    1       -1.054   3.794   2.933  0.00  0.00    -0.200 F 
ENDBRANCH  16  17
ENDBRANCH  14  16
ENDBRANCH   8  11
ENDBRANCH   5   7
BRANCH   1  20
ATOM     20  S   LIG    1        0.960   4.605  -8.039  0.00  0.00    +2.690 S 
ATOM     21  O   LIG    1        0.210   3.467  -8.440  0.00  0.00    -0.950 OA
ATOM     22  O   LIG    1        2.194   4.973  -8.639  0.00  0.00    -0.950 OA
BRANCH  20  23
ATOM     23  N   LIG    1       -0.046   5.910  -8.201  0.00  0.00    -1.110 NA
ATOM     24  H   LIG    1       -0.947   5.788  -8.540  0.00  0.00    +0.420 HD
BRANCH  23  26
ATOM     25  C   LIG    1       -0.187   8.281  -8.782  0.00  0.00    +0.040 C 
ATOM     26  C   LIG    1        0.423   7.248  -7.833  0.00  0.00    +0.230 C 
ATOM     27  C   LIG    1       -0.002   7.561  -6.397  0.00  0.00    +0.020 C 
ENDBRANCH  23  26
ENDBRANCH  20  23
ENDBRANCH   1  20
TORSDOF 7
