REMARK  Name = ZINCpk000005PDZG.0
REMARK                            x       y       z     vdW  Elec       q    Type
REMARK                         _______ _______ _______ _____ _____    ______ ____
ROOT
ATOM      1  C   LIG    1       -0.013   1.086   0.008  0.00  0.00    +0.240 C 
ATOM      2  C   LIG    1        1.424   1.618  -0.003  0.00  0.00    +0.020 C 
ATOM      3  C   LIG    1        1.394   3.146   0.085  0.00  0.00    +0.210 C 
ATOM      4  O   LIG    1        0.696   3.540   1.268  0.00  0.00    -0.370 OA
ATOM      5  C   LIG    1       -0.666   3.111   1.312  0.00  0.00    +0.200 C 
ATOM      6  C   LIG    1       -0.720   1.582   1.273  0.00  0.00    +0.220 C 
ENDROOT
BRANCH   1   8
ATOM      7  C   LIG    1       -0.628   0.905  -2.343  0.00  0.00    +0.520 C 
ATOM      8  N   LIG    1       -0.725   1.573  -1.176  0.00  0.00    -0.730 N 
ATOM      9  H   LIG    1       -1.266   2.376  -1.121  0.00  0.00    +0.400 HD
ATOM     10  O   LIG    1        0.049  -0.099  -2.412  0.00  0.00    -0.520 OA
BRANCH   7  11
ATOM     11  C   LIG    1       -1.360   1.406  -3.561  0.00  0.00    +0.120 C 
BRANCH  11  18
ATOM     12  C   LIG    1       -2.957  -1.009  -3.949  0.00  0.00    +0.100 C 
ATOM     13  C   LIG    1       -1.847  -0.659  -4.906  0.00  0.00    -0.020 A 
ATOM     14  C   LIG    1       -1.561  -1.474  -5.990  0.00  0.00    -0.030 A 
ATOM     15  C   LIG    1       -0.535  -1.121  -6.847  0.00  0.00    +0.260 A 
ATOM     16  N   LIG    1        0.166  -0.024  -6.642  0.00  0.00    -0.490 NA
ATOM     17  C   LIG    1       -0.082   0.779  -5.625  0.00  0.00    +0.270 A 
ATOM     18  C   LIG    1       -1.088   0.487  -4.724  0.00  0.00    -0.130 A 
ENDBRANCH  11  18
ENDBRANCH   7  11
ENDBRANCH   1   8
BRANCH   6  19
ATOM     19  N   LIG    1       -2.117   1.141   1.258  0.00  0.00    -0.710 N 
ATOM     20  H   LIG    1       -2.556   0.951   0.415  0.00  0.00    +0.410 HD
BRANCH  19  21
ATOM     21  C   LIG    1       -2.810   0.996   2.449  0.00  0.00    +0.440 A 
ATOM     22  N   LIG    1       -4.078   0.596   2.447  0.00  0.00    -0.580 NA
ATOM     23  C   LIG    1       -4.740   0.457   3.578  0.00  0.00    +0.360 A 
ATOM     24  N   LIG    1       -4.182   0.704   4.746  0.00  0.00    -0.560 NA
ATOM     25  C   LIG    1       -2.921   1.106   4.828  0.00  0.00    +0.350 A 
ATOM     26  C   LIG    1       -6.177   0.002   3.534  0.00  0.00    +0.170 C 
ATOM     27  C   LIG    1       -2.186   1.261   3.670  0.00  0.00    -0.160 A 
ENDBRANCH  19  21
ENDBRANCH   6  19
TORSDOF 5
