REMARK  Name = ZINCrg000000tGPt.0
REMARK                            x       y       z     vdW  Elec       q    Type
REMARK                         _______ _______ _______ _____ _____    ______ ____
ROOT
ATOM      1  C   LIG    1        5.210  -1.056  -1.814  0.00  0.00    -0.060 A 
ATOM      2  C   LIG    1        4.956  -0.366  -0.648  0.00  0.00    +0.160 A 
ATOM      3  C   LIG    1        4.052  -1.132   0.095  0.00  0.00    -0.760 A 
ATOM      4  C   LIG    1        3.780  -2.255  -0.613  0.00  0.00    +0.350 A 
ATOM      5  N   LIG    1        4.473  -2.218  -1.777  0.00  0.00    -0.530 N 
ATOM      6  H   LIG    1        4.455  -2.898  -2.468  0.00  0.00    +0.420 HD
ENDROOT
BRANCH   1   8
ATOM      7  O   LIG    1        6.702   0.426  -2.811  0.00  0.00    -0.500 OA
ATOM      8  C   LIG    1        6.103  -0.629  -2.897  0.00  0.00    +0.590 C 
ATOM      9  N   LIG    1        6.259  -1.406  -3.987  0.00  0.00    -0.670 N 
ATOM     10  H   LIG    1        5.834  -2.277  -4.027  0.00  0.00    +0.410 HD
BRANCH   9  11
ATOM     11  C   LIG    1        7.034  -0.956  -5.062  0.00  0.00    +0.140 A 
ATOM     12  C   LIG    1        6.678  -1.288  -6.362  0.00  0.00    +0.000 A 
ATOM     13  C   LIG    1        7.440  -0.839  -7.424  0.00  0.00    +0.050 A 
ATOM     14  C   LIG    1        8.568  -0.067  -7.195  0.00  0.00    +0.040 A 
ATOM     15  O   LIG    1        9.312   0.358  -8.254  0.00  0.00    -0.310 OA
ATOM     16  C   LIG    1       10.219   1.439  -8.010  0.00  0.00    +0.220 C 
ATOM     17  C   LIG    1       10.983   1.142  -6.713  0.00  0.00    +0.230 C 
ATOM     18  O   LIG    1       10.031   1.026  -5.649  0.00  0.00    -0.300 OA
ATOM     19  C   LIG    1        8.930   0.264  -5.894  0.00  0.00    +0.070 A 
ATOM     20  C   LIG    1        8.162  -0.181  -4.829  0.00  0.00    +0.040 A 
ENDBRANCH   9  11
ENDBRANCH   1   8
BRANCH   3  21
ATOM     21  S   LIG    1        3.390  -0.715   1.673  0.00  0.00    +2.720 S 
ATOM     22  O   LIG    1        2.997  -1.938   2.279  0.00  0.00    -0.960 OA
ATOM     23  O   LIG    1        4.312   0.187   2.269  0.00  0.00    -0.950 OA
BRANCH  21  24
ATOM     24  N   LIG    1        1.999   0.144   1.410  0.00  0.00    -1.000 NA
ATOM     25  C   LIG    1        0.699  -0.535   1.294  0.00  0.00    +0.280 C 
ATOM     26  C   LIG    1        0.006  -0.040   0.020  0.00  0.00    +0.210 C 
ATOM     27  O   LIG    1       -0.023   1.390   0.026  0.00  0.00    -0.380 OA
ATOM     28  C   LIG    1        1.269   2.001   0.011  0.00  0.00    +0.220 C 
ATOM     29  C   LIG    1        2.027   1.610   1.285  0.00  0.00    +0.280 C 
ENDBRANCH  21  24
ENDBRANCH   3  21
TORSDOF 4
