REMARK  Name = ZINCkj00000y7FJT.0
REMARK                            x       y       z     vdW  Elec       q    Type
REMARK                         _______ _______ _______ _____ _____    ______ ____
ROOT
ATOM      1  C   LIG    1       -0.014   1.212   0.009  0.00  0.00    +0.580 C 
ATOM      2  N   LIG    1       -0.125   2.169  -0.933  0.00  0.00    -0.600 N 
ATOM      3  C   LIG    1       -0.291   3.578  -0.548  0.00  0.00    +0.280 C 
ATOM      4  C   LIG    1       -1.511   4.140  -1.278  0.00  0.00    +0.020 C 
ATOM      5  C   LIG    1       -1.326   3.949  -2.785  0.00  0.00    +0.040 C 
ATOM      6  C   LIG    1       -1.223   2.455  -3.110  0.00  0.00    -0.010 C 
ATOM      7  C   LIG    1       -1.101   2.321  -4.643  0.00  0.00    +0.270 C 
ATOM      8  N   LIG    1       -0.657   0.982  -4.980  0.00  0.00    -0.500 N 
ATOM      9  C   LIG    1        0.793   0.959  -5.145  0.00  0.00    +0.240 C 
ATOM     10  C   LIG    1        1.553   0.707  -3.895  0.00  0.00    +0.080 C 
ATOM     11  C   LIG    1        1.281   1.850  -2.924  0.00  0.00    +0.030 C 
ATOM     12  H   LIG    1       -1.094   0.691  -5.841  0.00  0.00    +0.440 HD
ATOM     13  H   LIG    1       -0.919   0.347  -4.241  0.00  0.00    +0.420 HD
ATOM     14  C   LIG    1       -0.088   1.820  -2.353  0.00  0.00    +0.200 C 
ATOM     15  O   LIG    1        0.047   1.519   1.184  0.00  0.00    -0.500 OA
ENDROOT
BRANCH   1  20
ATOM     16  O   LIG    1        0.104  -4.020  -1.454  0.00  0.00    -0.520 OA
ATOM     17  C   LIG    1        0.091  -2.846  -1.124  0.00  0.00    +0.510 A 
ATOM     18  C   LIG    1        1.301  -2.193  -0.821  0.00  0.00    -0.060 A 
ATOM     19  C   LIG    1        1.282  -0.882  -0.459  0.00  0.00    +0.140 A 
ATOM     20  C   LIG    1        0.039  -0.208  -0.386  0.00  0.00    -0.240 A 
ATOM     21  C   LIG    1       -1.122  -0.888  -0.693  0.00  0.00    +0.340 A 
ATOM     22  N   LIG    1       -1.078  -2.184  -1.053  0.00  0.00    -0.600 N 
ATOM     23  H   LIG    1       -1.903  -2.649  -1.265  0.00  0.00    +0.420 HD
ENDBRANCH   1  20
TORSDOF 1
