REMARK  Name = ZINCvU0000000Gcg.0
REMARK                            x       y       z     vdW  Elec       q    Type
REMARK                         _______ _______ _______ _____ _____    ______ ____
ROOT
ATOM      1  O   LIG    1        6.338  -0.619  -0.153  0.00  0.00    -0.520 OA
ATOM      2  C   LIG    1        5.537  -1.524  -0.053  0.00  0.00    +0.540 C 
ATOM      3  N   LIG    1        5.967  -2.798   0.032  0.00  0.00    -0.600 N 
ENDROOT
BRANCH   3   4
ATOM      4  C   LIG    1        5.000  -3.899   0.035  0.00  0.00    +0.330 C 
BRANCH   4   5
ATOM      5  C   LIG    1        4.842  -4.433  -1.365  0.00  0.00    -0.110 A 
ATOM      6  C   LIG    1        3.810  -3.979  -2.165  0.00  0.00    +0.010 A 
ATOM      7  C   LIG    1        3.668  -4.465  -3.451  0.00  0.00    +0.000 A 
ATOM      8  C   LIG    1        4.552  -5.412  -3.934  0.00  0.00    +0.010 A 
ATOM      9  C   LIG    1        5.581  -5.870  -3.132  0.00  0.00    +0.000 A 
ATOM     10  C   LIG    1        5.726  -5.380  -1.848  0.00  0.00    +0.020 A 
ENDBRANCH   4   5
ENDBRANCH   3   4
BRANCH   3  11
ATOM     11  C   LIG    1        7.402  -3.083   0.122  0.00  0.00    +0.290 C 
BRANCH  11  12
ATOM     12  C   LIG    1        7.825  -3.111   1.592  0.00  0.00    +0.060 C 
BRANCH  12  13
ATOM     13  C   LIG    1        9.300  -3.404   1.685  0.00  0.00    -0.080 A 
ATOM     14  C   LIG    1        9.741  -4.711   1.778  0.00  0.00    +0.000 A 
ATOM     15  C   LIG    1       11.094  -4.979   1.859  0.00  0.00    +0.000 A 
ATOM     16  C   LIG    1       12.007  -3.941   1.856  0.00  0.00    +0.000 A 
ATOM     17  C   LIG    1       11.566  -2.634   1.768  0.00  0.00    +0.000 A 
ATOM     18  C   LIG    1       10.212  -2.365   1.682  0.00  0.00    +0.010 A 
ENDBRANCH  12  13
ENDBRANCH  11  12
ENDBRANCH   3  11
BRANCH   2  19
ATOM     19  C   LIG    1        4.061  -1.224  -0.026  0.00  0.00    +0.090 C 
BRANCH  19  20
ATOM     20  S   LIG    1        3.810   0.569  -0.006  0.00  0.00    +0.150 S 
BRANCH  20  21
ATOM     21  C   LIG    1        2.049   0.631   0.024  0.00  0.00    +0.120 A 
ATOM     22  N   LIG    1        1.235  -0.399   0.029  0.00  0.00    -0.290 NA
ATOM     23  N   LIG    1        0.018   0.017   0.053  0.00  0.00    -0.260 NA
ATOM     24  C   LIG    1        0.006   1.328   0.065  0.00  0.00    +0.220 A 
ATOM     25  O   LIG    1        1.292   1.744   0.047  0.00  0.00    -0.200 OA
BRANCH  24  26
ATOM     26  C   LIG    1       -1.193   2.191   0.087  0.00  0.00    -0.030 A 
ATOM     27  C   LIG    1       -1.056   3.580   0.102  0.00  0.00    +0.050 A 
ATOM     28  C   LIG    1       -2.180   4.381   0.118  0.00  0.00    +0.010 A 
ATOM     29  C   LIG    1       -3.440   3.809   0.129  0.00  0.00    +0.040 A 
ATOM     30  C   LIG    1       -3.582   2.433   0.119  0.00  0.00    +0.020 A 
ATOM     31  C   LIG    1       -2.467   1.621   0.098  0.00  0.00    +0.070 A 
ENDBRANCH  24  26
ENDBRANCH  20  21
ENDBRANCH  19  20
ENDBRANCH   2  19
TORSDOF 9
