REMARK  Name = ZINCkj000005kbfQ.0
REMARK                            x       y       z     vdW  Elec       q    Type
REMARK                         _______ _______ _______ _____ _____    ______ ____
ROOT
ATOM      1  C   LIG    1       -0.272  -0.699  -5.580  0.00  0.00    +0.130 C 
ATOM      2  C   LIG    1        0.177  -1.947  -4.865  0.00  0.00    +0.190 A 
ATOM      3  C   LIG    1        0.566  -1.871  -3.544  0.00  0.00    -0.090 A 
ATOM      4  C   LIG    1        0.987  -3.034  -2.888  0.00  0.00    -0.040 A 
ATOM      5  C   LIG    1        0.985  -4.232  -3.602  0.00  0.00    -0.040 A 
ATOM      6  C   LIG    1        0.574  -4.223  -4.931  0.00  0.00    +0.420 A 
ATOM      7  N   LIG    1        0.189  -3.097  -5.511  0.00  0.00    -0.530 NA
ENDROOT
BRANCH   4   8
ATOM      8  C   LIG    1        1.416  -2.995  -1.470  0.00  0.00    +0.590 C 
ATOM      9  N   LIG    1        0.829  -2.138  -0.612  0.00  0.00    -0.620 N 
ATOM     10  C   LIG    1        1.082  -2.017   0.836  0.00  0.00    +0.300 C 
ATOM     11  C   LIG    1       -0.192  -1.430   1.471  0.00  0.00    +0.000 C 
ATOM     12  C   LIG    1       -1.160  -1.198   0.288  0.00  0.00    +0.170 C 
ATOM     13  C   LIG    1        0.124  -0.105   2.168  0.00  0.00    +0.050 C 
ATOM     14  C   LIG    1       -0.204  -1.124  -0.929  0.00  0.00    +0.300 C 
ATOM     15  O   LIG    1        2.297  -3.735  -1.081  0.00  0.00    -0.490 OA
BRANCH  12  16
ATOM     16  N   LIG    1       -1.890   0.067   0.453  0.00  0.00    -0.630 N 
ATOM     17  H   LIG    1       -2.423   0.038   1.309  0.00  0.00    +0.440 HD
ATOM     18  H   LIG    1       -2.514   0.199  -0.328  0.00  0.00    +0.440 HD
ATOM     19  H   LIG    1       -1.233   0.832   0.492  0.00  0.00    +0.440 HD
ENDBRANCH  12  16
ENDBRANCH   4   8
BRANCH   6  20
ATOM     20  N   LIG    1        0.567  -5.408  -5.657  0.00  0.00    -0.690 N 
ATOM     21  H   LIG    1        0.355  -5.396  -6.604  0.00  0.00    +0.410 HD
BRANCH  20  22
ATOM     22  C   LIG    1        0.879  -6.676  -4.993  0.00  0.00    +0.200 C 
ATOM     23  C   LIG    1        1.724  -7.690  -5.768  0.00  0.00    +0.020 C 
ATOM     24  C   LIG    1        0.231  -7.944  -5.551  0.00  0.00    +0.020 C 
ENDBRANCH  20  22
ENDBRANCH   6  20
TORSDOF 4
