REMARK  Name = ZINCrH000004qk0g.0
REMARK                            x       y       z     vdW  Elec       q    Type
REMARK                         _______ _______ _______ _____ _____    ______ ____
ROOT
ATOM      1  N   LIG    1        4.028  -1.012  -0.041  0.00  0.00    -0.510 NA
ATOM      2  C   LIG    1        4.390  -0.332  -1.291  0.00  0.00    +0.180 C 
ATOM      3  C   LIG    1        5.840   0.153  -1.208  0.00  0.00    +0.030 C 
ATOM      4  C   LIG    1        6.761  -1.047  -0.972  0.00  0.00    +0.010 C 
ATOM      5  C   LIG    1        6.332  -1.765   0.310  0.00  0.00    +0.040 C 
ATOM      6  C   LIG    1        4.869  -2.195   0.184  0.00  0.00    +0.240 C 
ENDROOT
BRANCH   6   7
ATOM      7  C   LIG    1        4.437  -2.885   1.452  0.00  0.00    +0.080 A 
ATOM      8  N   LIG    1        4.187  -2.280   2.551  0.00  0.00    -0.430 NA
ATOM      9  C   LIG    1        3.806  -3.025   3.606  0.00  0.00    +0.080 A 
ATOM     10  C   LIG    1        3.471  -2.626   4.915  0.00  0.00    +0.080 A 
ATOM     11  C   LIG    1        3.111  -3.552   5.848  0.00  0.00    +0.030 A 
ATOM     12  C   LIG    1        3.068  -4.901   5.529  0.00  0.00    +0.040 A 
ATOM     13  C   LIG    1        3.390  -5.320   4.257  0.00  0.00    +0.060 A 
ATOM     14  C   LIG    1        3.760  -4.388   3.291  0.00  0.00    -0.180 A 
ATOM     15  S   LIG    1        4.225  -4.571   1.602  0.00  0.00    +0.100 S 
ENDBRANCH   6   7
BRANCH   1  16
ATOM     16  C   LIG    1        2.603  -1.369  -0.029  0.00  0.00    +0.350 C 
BRANCH  16  23
ATOM     17  C   LIG    1       -1.952   4.910   0.048  0.00  0.00    +0.160 C 
ATOM     18  C   LIG    1       -0.797   3.942   0.032  0.00  0.00    +0.200 A 
ATOM     19  C   LIG    1        0.502   4.404   0.022  0.00  0.00    -0.120 A 
ATOM     20  C   LIG    1        1.553   3.486   0.006  0.00  0.00    +0.540 A 
ATOM     21  N   LIG    1        1.284   2.148   0.001  0.00  0.00    -0.380 N 
ATOM     22  N   LIG    1        2.198   1.101  -0.013  0.00  0.00    -0.200 NA
ATOM     23  C   LIG    1        1.771  -0.113  -0.015  0.00  0.00    +0.120 A 
ATOM     24  S   LIG    1        0.002  -0.004   0.002  0.00  0.00    +0.140 S 
ATOM     25  C   LIG    1       -0.022   1.768   0.012  0.00  0.00    +0.310 A 
ATOM     26  O   LIG    1        2.710   3.878  -0.002  0.00  0.00    -0.500 OA
ATOM     27  N   LIG    1       -1.018   2.632   0.031  0.00  0.00    -0.490 NA
ENDBRANCH  16  23
ENDBRANCH   1  16
TORSDOF 3
