REMARK  Name = ZINCrg00001JduQv.0
REMARK                            x       y       z     vdW  Elec       q    Type
REMARK                         _______ _______ _______ _____ _____    ______ ____
ROOT
ATOM      1  C   LIG    1       -1.061   1.770   3.596  0.00  0.00    +0.250 C 
ENDROOT
BRANCH   1   2
ATOM      2  C   LIG    1       -0.742   0.742   4.651  0.00  0.00    +0.530 C 
ATOM      3  N   LIG    1       -1.409   0.749   5.822  0.00  0.00    -0.610 N 
ATOM      4  C   LIG    1       -2.509   1.696   6.071  0.00  0.00    +0.280 C 
ATOM      5  C   LIG    1       -3.787   0.890   6.315  0.00  0.00    +0.260 C 
ATOM      6  N   LIG    1       -3.541  -0.199   7.250  0.00  0.00    -0.720 N 
ATOM      7  H   LIG    1       -4.302  -0.566   7.725  0.00  0.00    +0.400 HD
ATOM      8  C   LIG    1       -2.341  -0.728   7.498  0.00  0.00    +0.520 C 
ATOM      9  O   LIG    1       -2.273  -1.685   8.239  0.00  0.00    -0.540 OA
ATOM     10  C   LIG    1       -1.073  -0.194   6.899  0.00  0.00    +0.260 C 
ATOM     11  C   LIG    1       -0.266   0.530   7.979  0.00  0.00    +0.070 C 
ATOM     12  O   LIG    1        0.115  -0.091   4.446  0.00  0.00    -0.520 OA
ENDBRANCH   1   2
BRANCH   1  14
ATOM     13  C   LIG    1       -1.371   1.703   1.180  0.00  0.00    +0.530 C 
ATOM     14  N   LIG    1       -0.741   1.228   2.273  0.00  0.00    -0.720 N 
ATOM     15  H   LIG    1       -0.077   0.527   2.183  0.00  0.00    +0.410 HD
ATOM     16  O   LIG    1       -2.202   2.580   1.292  0.00  0.00    -0.520 OA
BRANCH  13  17
ATOM     17  C   LIG    1       -1.043   1.145  -0.181  0.00  0.00    +0.170 C 
BRANCH  17  21
ATOM     18  N   LIG    1       -3.497   2.373  -2.609  0.00  0.00    -0.360 N 
ATOM     19  C   LIG    1       -2.536   3.309  -2.763  0.00  0.00    +0.280 A 
ATOM     20  C   LIG    1       -1.524   3.004  -1.918  0.00  0.00    -0.230 A 
ATOM     21  C   LIG    1       -1.879   1.841  -1.224  0.00  0.00    +0.120 A 
ATOM     22 BR   LIG    1        0.084   3.977  -1.710  0.00  0.00    -0.020 Br
ATOM     23  N   LIG    1       -3.058   1.460  -1.641  0.00  0.00    -0.270 NA
BRANCH  18  25
ATOM     24  C   LIG    1       -4.913   0.955  -4.012  0.00  0.00    +0.040 C 
ATOM     25  C   LIG    1       -4.771   2.318  -3.331  0.00  0.00    +0.320 C 
ENDBRANCH  18  25
ENDBRANCH  17  21
ENDBRANCH  13  17
ENDBRANCH   1  14
BRANCH   1  26
ATOM     26  C   LIG    1       -0.229   3.030   3.845  0.00  0.00    -0.070 C 
ATOM     27  C   LIG    1        1.258   2.669   3.842  0.00  0.00    +0.040 C 
ATOM     28  C   LIG    1       -0.606   3.630   5.201  0.00  0.00    +0.030 C 
ATOM     29  C   LIG    1       -0.508   4.052   2.741  0.00  0.00    +0.050 C 
ENDBRANCH   1  26
TORSDOF 6
