REMARK  Name = ZINCrD00000hQ5fW.0
REMARK                            x       y       z     vdW  Elec       q    Type
REMARK                         _______ _______ _______ _____ _____    ______ ____
ROOT
ATOM      1  N   LIG    1       -1.234   2.089   0.019  0.00  0.00    -0.680 N 
ATOM      2  H   LIG    1       -1.246   3.048  -0.126  0.00  0.00    +0.400 HD
ATOM      3  C   LIG    1       -2.389   1.424   0.224  0.00  0.00    +0.710 C 
ATOM      4  N   LIG    1       -3.566   2.074   0.133  0.00  0.00    -0.740 N 
ATOM      5  H   LIG    1       -3.582   3.020  -0.079  0.00  0.00    +0.400 HD
ATOM      6  O   LIG    1       -2.368   0.238   0.490  0.00  0.00    -0.570 OA
ENDROOT
BRANCH   1  14
ATOM      7  C   LIG    1        0.660   1.143   1.214  0.00  0.00    +0.190 A 
ATOM      8  C   LIG    1        1.861   0.445   1.158  0.00  0.00    -0.130 A 
ATOM      9  C   LIG    1        2.341   0.029  -0.069  0.00  0.00    +0.180 A 
ATOM     10  N   LIG    1        1.677   0.285  -1.179  0.00  0.00    -0.500 NA
ATOM     11  C   LIG    1        0.533   0.944  -1.172  0.00  0.00    +0.180 A 
ATOM     12  C   LIG    1       -0.183   1.208  -2.472  0.00  0.00    +0.130 C 
ATOM     13  C   LIG    1        3.643  -0.727  -0.140  0.00  0.00    +0.130 C 
ATOM     14  C   LIG    1       -0.016   1.395   0.016  0.00  0.00    +0.060 A 
BRANCH   7  16
ATOM     15  C   LIG    1        0.914   1.264   3.574  0.00  0.00    +0.240 C 
ATOM     16  O   LIG    1        0.156   1.567   2.402  0.00  0.00    -0.300 OA
ENDBRANCH   7  16
ENDBRANCH   1  14
BRANCH   4  17
ATOM     17  C   LIG    1       -4.821   1.351   0.356  0.00  0.00    +0.400 C 
BRANCH  17  18
ATOM     18  C   LIG    1       -5.981   2.299   0.197  0.00  0.00    +0.060 A 
ATOM     19  N   LIG    1       -6.464   3.083   1.127  0.00  0.00    -0.270 NA
ATOM     20  N   LIG    1       -7.536   3.802   0.582  0.00  0.00    -0.320 N 
ATOM     21  C   LIG    1       -7.678   3.421  -0.708  0.00  0.00    +0.230 A 
ATOM     22  C   LIG    1       -6.724   2.497  -0.972  0.00  0.00    -0.080 A 
BRANCH  20  23
ATOM     23  C   LIG    1       -8.322   4.749   1.254  0.00  0.00    +0.150 A 
ATOM     24  C   LIG    1       -9.354   5.395   0.587  0.00  0.00    +0.030 A 
ATOM     25  C   LIG    1      -10.130   6.323   1.252  0.00  0.00    +0.030 A 
ATOM     26  C   LIG    1       -9.873   6.618   2.580  0.00  0.00    +0.090 A 
ATOM     27  C   LIG    1       -8.840   5.979   3.246  0.00  0.00    +0.020 A 
ATOM     28  F   LIG    1      -10.630   7.531   3.228  0.00  0.00    -0.130 F 
ATOM     29  C   LIG    1       -8.065   5.046   2.585  0.00  0.00    +0.060 A 
ENDBRANCH  20  23
ENDBRANCH  17  18
ENDBRANCH   4  17
TORSDOF 5
