REMARK  Name = ZINCqH00000360NM.0
REMARK                            x       y       z     vdW  Elec       q    Type
REMARK                         _______ _______ _______ _____ _____    ______ ____
ROOT
ATOM      1  N   LIG    1        0.061  -2.708   2.598  0.00  0.00    -0.670 N 
ATOM      2  H   LIG    1        0.132  -2.230   3.439  0.00  0.00    +0.430 HD
ATOM      3  C   LIG    1        0.045  -2.028   1.435  0.00  0.00    +0.520 C 
ATOM      4  O   LIG    1        0.059  -2.629   0.381  0.00  0.00    -0.510 OA
ENDROOT
BRANCH   1   8
ATOM      5  C   LIG    1       -0.192  -6.871   2.583  0.00  0.00    +0.110 A 
ATOM      6  C   LIG    1       -0.715  -6.140   1.526  0.00  0.00    +0.020 A 
ATOM      7  C   LIG    1       -0.632  -4.762   1.530  0.00  0.00    +0.070 A 
ATOM      8  C   LIG    1       -0.024  -4.107   2.593  0.00  0.00    +0.190 A 
ATOM      9  C   LIG    1        0.503  -4.839   3.649  0.00  0.00    -0.040 A 
ATOM     10  C   LIG    1        0.415  -6.217   3.645  0.00  0.00    +0.100 A 
BRANCH   9  11
ATOM     11  N   LIG    1        1.156  -4.142   4.779  0.00  0.00    +0.040 N 
ATOM     12  O   LIG    1        1.151  -2.925   4.829  0.00  0.00    -0.180 OA
ATOM     13  O   LIG    1        1.698  -4.785   5.660  0.00  0.00    -0.130 OA
ENDBRANCH   9  11
BRANCH   5  15
ATOM     14  C   LIG    1       -0.913  -8.835   1.452  0.00  0.00    +0.250 C 
ATOM     15  O   LIG    1       -0.275  -8.228   2.577  0.00  0.00    -0.310 OA
ENDBRANCH   5  15
ENDBRANCH   1   8
BRANCH   3  16
ATOM     16  C   LIG    1        0.011  -0.522   1.443  0.00  0.00    +0.090 C 
BRANCH  16  17
ATOM     17  C   LIG    1       -0.001  -0.004   0.003  0.00  0.00    +0.100 C 
BRANCH  17  18
ATOM     18  C   LIG    1       -0.035   1.503   0.012  0.00  0.00    -0.110 A 
ATOM     19  C   LIG    1       -1.248   2.166   0.010  0.00  0.00    +0.050 A 
ATOM     20  C   LIG    1       -1.282   3.547   0.024  0.00  0.00    -0.060 A 
ATOM     21  C   LIG    1       -0.098   4.269   0.027  0.00  0.00    +0.100 A 
ATOM     22  C   LIG    1        1.119   3.601   0.023  0.00  0.00    +0.010 A 
ATOM     23  C   LIG    1        1.147   2.220   0.015  0.00  0.00    +0.050 A 
BRANCH  21  24
ATOM     24  O   LIG    1       -0.129   5.627   0.034  0.00  0.00    -0.320 OA
BRANCH  24  25
ATOM     25  C   LIG    1       -1.416   6.247   0.038  0.00  0.00    +0.590 C 
ATOM     26  F   LIG    1       -2.121   5.849   1.179  0.00  0.00    -0.200 F 
ATOM     27  F   LIG    1       -2.123   5.861  -1.106  0.00  0.00    -0.200 F 
ENDBRANCH  24  25
ENDBRANCH  21  24
ENDBRANCH  17  18
ENDBRANCH  16  17
ENDBRANCH   3  16
TORSDOF 8
