REMARK  Name = ZINCqH0000037K1n.0
REMARK                            x       y       z     vdW  Elec       q    Type
REMARK                         _______ _______ _______ _____ _____    ______ ____
ROOT
ATOM      1  C   LIG    1       -1.035   1.828   3.040  0.00  0.00    +0.580 C 
ATOM      2  N   LIG    1       -1.390   2.393   1.869  0.00  0.00    -0.720 N 
ATOM      3  H   LIG    1       -2.225   2.881   1.800  0.00  0.00    +0.420 HD
ATOM      4  O   LIG    1        0.052   1.293   3.153  0.00  0.00    -0.550 OA
ENDROOT
BRANCH   1   9
ATOM      5  C   LIG    1       -4.681   1.975   7.457  0.00  0.00    +0.150 C 
ATOM      6  C   LIG    1       -3.717   1.932   6.300  0.00  0.00    +0.200 A 
ATOM      7  C   LIG    1       -2.572   1.211   6.413  0.00  0.00    -0.080 A 
ATOM      8  C   LIG    1       -1.669   1.160   5.352  0.00  0.00    +0.110 A 
ATOM      9  C   LIG    1       -1.962   1.857   4.182  0.00  0.00    -0.300 A 
ATOM     10  C   LIG    1       -3.168   2.601   4.113  0.00  0.00    +0.540 A 
ATOM     11  O   LIG    1       -3.446   3.224   3.103  0.00  0.00    -0.550 OA
ATOM     12  C   LIG    1       -0.395   0.363   5.469  0.00  0.00    +0.140 C 
ATOM     13  N   LIG    1       -4.009   2.612   5.165  0.00  0.00    -0.600 N 
ATOM     14  H   LIG    1       -4.834   3.119   5.112  0.00  0.00    +0.420 HD
ENDBRANCH   1   9
BRANCH   2  15
ATOM     15  C   LIG    1       -0.514   2.269   0.701  0.00  0.00    +0.320 C 
BRANCH  15  16
ATOM     16  C   LIG    1       -1.136   2.984  -0.471  0.00  0.00    -0.110 A 
ATOM     17  C   LIG    1       -1.980   2.301  -1.327  0.00  0.00    +0.050 A 
ATOM     18  C   LIG    1       -2.555   2.955  -2.399  0.00  0.00    -0.010 A 
ATOM     19  C   LIG    1       -2.276   4.295  -2.623  0.00  0.00    +0.090 A 
ATOM     20  C   LIG    1       -1.425   4.977  -1.766  0.00  0.00    +0.020 A 
ATOM     21  C   LIG    1       -0.857   4.320  -0.691  0.00  0.00    +0.050 A 
BRANCH  19  22
ATOM     22  O   LIG    1       -2.837   4.940  -3.680  0.00  0.00    -0.260 OA
BRANCH  22  23
ATOM     23  C   LIG    1       -4.173   5.182  -3.644  0.00  0.00    +0.120 A 
ATOM     24  C   LIG    1       -4.906   4.870  -2.507  0.00  0.00    -0.060 A 
ATOM     25  C   LIG    1       -6.263   5.122  -2.472  0.00  0.00    +0.050 A 
ATOM     26  C   LIG    1       -6.895   5.674  -3.571  0.00  0.00    -0.020 A 
ATOM     27  C   LIG    1       -6.168   5.981  -4.707  0.00  0.00    +0.050 A 
ATOM     28  C   LIG    1       -4.809   5.736  -4.746  0.00  0.00    -0.020 A 
ENDBRANCH  22  23
ENDBRANCH  19  22
ENDBRANCH  15  16
ENDBRANCH   2  15
TORSDOF 5
