REMARK  Name = ZINCtj00001LCZZD.0
REMARK                            x       y       z     vdW  Elec       q    Type
REMARK                         _______ _______ _______ _____ _____    ______ ____
ROOT
ATOM      1  O   LIG    1       -2.529   2.322   1.333  0.00  0.00    -0.520 OA
ATOM      2  C   LIG    1       -2.974   1.818   2.348  0.00  0.00    +0.580 C 
ATOM      3  N   LIG    1       -2.962   2.528   3.504  0.00  0.00    -0.730 N 
ATOM      4  H   LIG    1       -3.385   2.187   4.308  0.00  0.00    +0.400 HD
ATOM      5  C   LIG    1       -2.304   3.845   3.477  0.00  0.00    +0.280 C 
ATOM      6  C   LIG    1       -0.917   3.776   4.101  0.00  0.00    +0.240 C 
ATOM      7  N   LIG    1        0.128   3.785   3.084  0.00  0.00    -0.720 N 
ATOM      8  H   LIG    1        0.679   4.593   3.011  0.00  0.00    +0.390 HD
ATOM      9  C   LIG    1        0.394   2.764   2.251  0.00  0.00    +0.540 C 
ATOM     10  C   LIG    1        1.519   2.890   1.253  0.00  0.00    +0.100 C 
ATOM     11  C   LIG    1        1.682   4.360   0.851  0.00  0.00    +0.250 C 
ATOM     12  N   LIG    1        2.855   4.510  -0.022  0.00  0.00    -0.500 N 
ATOM     13  C   LIG    1        4.059   4.090   0.708  0.00  0.00    +0.240 C 
ATOM     14  C   LIG    1        3.912   2.623   1.115  0.00  0.00    +0.270 C 
ATOM     15  H   LIG    1        2.745   3.945  -0.848  0.00  0.00    +0.430 HD
ATOM     16  H   LIG    1        2.949   5.479  -0.291  0.00  0.00    +0.440 HD
ATOM     17  C   LIG    1        1.288   2.056   0.001  0.00  0.00    +0.040 C 
ATOM     18  C   LIG    1       -0.016   1.310   0.009  0.00  0.00    +0.030 C 
ATOM     19  C   LIG    1        0.002  -0.004   0.002  0.00  0.00    -0.060 C 
ATOM     20  C   LIG    1       -1.269  -0.808  -0.011  0.00  0.00    +0.250 C 
ATOM     21  O   LIG    1       -2.397   0.026   0.256  0.00  0.00    -0.300 OA
ATOM     22  C   LIG    1       -3.246  -0.389   1.230  0.00  0.00    +0.170 A 
ATOM     23  C   LIG    1       -3.815  -1.653   1.173  0.00  0.00    -0.050 A 
ATOM     24  C   LIG    1       -4.667  -2.074   2.175  0.00  0.00    +0.060 A 
ATOM     25  C   LIG    1       -4.958  -1.241   3.243  0.00  0.00    -0.010 A 
ATOM     26  C   LIG    1       -4.409   0.021   3.310  0.00  0.00    +0.060 A 
ATOM     27  O   LIG    1        2.728   2.455   1.892  0.00  0.00    -0.340 OA
ATOM     28  O   LIG    1       -0.243   1.738   2.316  0.00  0.00    -0.440 OA
ATOM     29  C   LIG    1       -3.549   0.463   2.301  0.00  0.00    -0.150 A 
ENDROOT
BRANCH   6  30
ATOM     30  C   LIG    1       -0.784   2.562   5.015  0.00  0.00    +0.000 C 
ATOM     31  C   LIG    1       -1.351   2.788   6.426  0.00  0.00    +0.020 C 
ATOM     32  C   LIG    1       -0.139   2.003   6.954  0.00  0.00    +0.010 C 
ATOM     33  C   LIG    1        0.599   2.437   5.676  0.00  0.00    +0.000 C 
ENDBRANCH   6  30
TORSDOF 1
