REMARK  Name = ZINCnE000001UqSF.0
REMARK                            x       y       z     vdW  Elec       q    Type
REMARK                         _______ _______ _______ _____ _____    ______ ____
ROOT
ATOM      1  N   LIG    1       -5.852   3.136  -1.332  0.00  0.00    -0.590 N 
ATOM      2  C   LIG    1       -5.466   4.288  -0.482  0.00  0.00    +0.260 C 
ATOM      3  C   LIG    1       -4.845   3.654   0.784  0.00  0.00    +0.010 C 
ATOM      4  C   LIG    1       -4.336   2.263   0.299  0.00  0.00    +0.020 C 
ATOM      5  C   LIG    1       -4.354   5.049  -1.221  0.00  0.00    +0.010 C 
ATOM      6  C   LIG    1       -3.128   4.139  -1.345  0.00  0.00    -0.010 C 
ATOM      7  C   LIG    1       -3.534   2.813  -1.995  0.00  0.00    +0.020 C 
ATOM      8  C   LIG    1       -4.703   2.207  -1.202  0.00  0.00    +0.260 C 
ENDROOT
BRANCH   1  12
ATOM      9  O   LIG    1       -9.936   4.654  -2.776  0.00  0.00    -0.610 OA
ATOM     10  C   LIG    1       -9.076   3.788  -2.774  0.00  0.00    +0.520 A 
ATOM     11  N   LIG    1       -7.947   3.943  -2.051  0.00  0.00    -0.690 NA
ATOM     12  C   LIG    1       -6.997   2.969  -2.064  0.00  0.00    +0.610 A 
ATOM     13  N   LIG    1       -7.163   1.865  -2.764  0.00  0.00    -0.660 NA
ATOM     14  C   LIG    1       -8.261   1.662  -3.490  0.00  0.00    +0.320 A 
ATOM     15  C   LIG    1       -9.246   2.607  -3.519  0.00  0.00    -0.320 A 
ATOM     16 CL   LIG    1      -10.683   2.355  -4.460  0.00  0.00    -0.110 Cl
ENDBRANCH   1  12
BRANCH   6  17
ATOM     17  C   LIG    1       -2.553   3.869   0.047  0.00  0.00    +0.050 C 
BRANCH  17  18
ATOM     18  C   LIG    1       -2.115   5.169   0.671  0.00  0.00    -0.070 A 
ATOM     19  C   LIG    1       -0.780   5.526   0.659  0.00  0.00    +0.000 A 
ATOM     20  C   LIG    1       -0.378   6.716   1.237  0.00  0.00    +0.000 A 
ATOM     21  C   LIG    1       -1.312   7.554   1.815  0.00  0.00    -0.010 A 
ATOM     22  C   LIG    1       -2.648   7.199   1.821  0.00  0.00    +0.000 A 
ATOM     23  C   LIG    1       -3.050   6.007   1.249  0.00  0.00    +0.000 A 
ENDBRANCH  17  18
ENDBRANCH   6  17
TORSDOF 3
