REMARK  Name = ZINCvU00000006xC.0
REMARK                            x       y       z     vdW  Elec       q    Type
REMARK                         _______ _______ _______ _____ _____    ______ ____
ROOT
ATOM      1  N   LIG    1        4.600   0.752  -0.137  0.00  0.00    -0.410 N 
ATOM      2  C   LIG    1        5.152   0.124  -1.218  0.00  0.00    +0.160 A 
ATOM      3  N   LIG    1        6.267  -0.445  -0.811  0.00  0.00    -0.290 NA
ATOM      4  N   LIG    1        6.443  -0.224   0.443  0.00  0.00    -0.250 NA
ATOM      5  C   LIG    1        5.456   0.503   0.914  0.00  0.00    +0.230 A 
ENDROOT
BRANCH   1  13
ATOM      6  C   LIG    1        2.179  -0.628   0.442  0.00  0.00    +0.120 C 
ATOM      7  C   LIG    1        2.205   0.855   0.176  0.00  0.00    -0.040 A 
ATOM      8  C   LIG    1        1.032   1.585   0.210  0.00  0.00    -0.030 A 
ATOM      9  C   LIG    1        1.057   2.947  -0.034  0.00  0.00    +0.070 A 
ATOM     10  C   LIG    1        2.254   3.581  -0.312  0.00  0.00    +0.050 A 
ATOM     11  C   LIG    1        3.429   2.856  -0.347  0.00  0.00    +0.050 A 
ATOM     12 CL   LIG    1       -0.473   0.793   0.558  0.00  0.00    -0.040 Cl
ATOM     13  C   LIG    1        3.408   1.489  -0.102  0.00  0.00    +0.100 A 
ENDBRANCH   1  13
BRANCH   5  14
ATOM     14  C   LIG    1        5.295   0.968   2.307  0.00  0.00    +0.030 A 
ATOM     15  C   LIG    1        4.389   1.986   2.626  0.00  0.00    -0.020 A 
ATOM     16  C   LIG    1        4.266   2.385   3.941  0.00  0.00    +0.270 A 
ATOM     17  N   LIG    1        4.996   1.828   4.888  0.00  0.00    -0.470 NA
ATOM     18  C   LIG    1        5.866   0.869   4.631  0.00  0.00    +0.280 A 
ATOM     19  C   LIG    1        6.048   0.405   3.345  0.00  0.00    +0.020 A 
ENDBRANCH   5  14
BRANCH   2  20
ATOM     20  S   LIG    1        4.497   0.086  -2.853  0.00  0.00    +0.100 S 
BRANCH  20  21
ATOM     21  C   LIG    1        5.764  -0.910  -3.677  0.00  0.00    +0.110 C 
BRANCH  21  22
ATOM     22  C   LIG    1        5.403  -1.079  -5.130  0.00  0.00    +0.540 C 
ATOM     23  N   LIG    1        6.256  -1.700  -5.969  0.00  0.00    -0.600 N 
ATOM     24  C   LIG    1        5.973  -1.770  -7.409  0.00  0.00    +0.220 C 
ATOM     25  C   LIG    1        7.187  -1.222  -8.173  0.00  0.00    +0.020 C 
ATOM     26  C   LIG    1        8.442  -1.985  -7.742  0.00  0.00    +0.020 C 
ATOM     27  C   LIG    1        8.680  -1.774  -6.245  0.00  0.00    +0.020 C 
ATOM     28  C   LIG    1        4.738  -0.926  -7.730  0.00  0.00    +0.060 C 
ATOM     29  C   LIG    1        7.485  -2.324  -5.459  0.00  0.00    +0.230 C 
ATOM     30  C   LIG    1        7.405  -3.840  -5.643  0.00  0.00    +0.030 C 
ATOM     31  O   LIG    1        4.345  -0.657  -5.546  0.00  0.00    -0.520 OA
ENDBRANCH  21  22
ENDBRANCH  20  21
ENDBRANCH   2  20
TORSDOF 5
