REMARK  Name = ZINCpk000005p6Rd.0
REMARK                            x       y       z     vdW  Elec       q    Type
REMARK                         _______ _______ _______ _____ _____    ______ ____
ROOT
ATOM      1  C   LIG    1       -2.277   0.911   1.048  0.00  0.00    +0.240 C 
ATOM      2  C   LIG    1       -3.164   1.403   2.194  0.00  0.00    +0.020 C 
ENDROOT
BRANCH   1   4
ATOM      3  C   LIG    1       -3.840   0.258  -0.704  0.00  0.00    +0.570 C 
ATOM      4  N   LIG    1       -2.951   1.153  -0.230  0.00  0.00    -0.700 N 
ATOM      5  H   LIG    1       -2.758   1.959  -0.735  0.00  0.00    +0.410 HD
ATOM      6  O   LIG    1       -4.082  -0.751  -0.071  0.00  0.00    -0.520 OA
BRANCH   3  11
ATOM      7  C   LIG    1       -4.871   1.827  -3.853  0.00  0.00    +0.500 A 
ATOM      8  N   LIG    1       -5.750   0.973  -4.354  0.00  0.00    -0.550 NA
ATOM      9  C   LIG    1       -6.056  -0.142  -3.714  0.00  0.00    +0.370 A 
ATOM     10  C   LIG    1       -5.444  -0.416  -2.500  0.00  0.00    -0.040 A 
ATOM     11  C   LIG    1       -4.523   0.504  -1.999  0.00  0.00    +0.170 A 
ATOM     12  N   LIG    1       -4.269   1.607  -2.697  0.00  0.00    -0.500 NA
BRANCH   7  14
ATOM     13  C   LIG    1       -5.267   3.153  -5.782  0.00  0.00    +0.290 C 
ATOM     14  O   LIG    1       -4.585   2.958  -4.540  0.00  0.00    -0.290 OA
ENDBRANCH   7  14
ENDBRANCH   3  11
ENDBRANCH   1   4
BRANCH   1  15
ATOM     15  C   LIG    1       -0.946   1.664   1.074  0.00  0.00    +0.050 C 
BRANCH  15  16
ATOM     16  C   LIG    1       -0.013   1.086   0.008  0.00  0.00    -0.020 C 
ATOM     17  C   LIG    1       -0.198   1.711  -1.387  0.00  0.00    +0.280 C 
ATOM     18  N   LIG    1        1.275   1.708  -1.473  0.00  0.00    -0.640 N 
ATOM     19  C   LIG    1        2.161   1.696  -2.489  0.00  0.00    +0.550 C 
ATOM     20  O   LIG    1        3.351   1.698  -2.255  0.00  0.00    -0.540 OA
ATOM     21  C   LIG    1        1.388   1.725  -0.002  0.00  0.00    +0.280 C 
BRANCH  19  22
ATOM     22  C   LIG    1        1.674   1.681  -3.914  0.00  0.00    -0.020 C 
ATOM     23  C   LIG    1        1.299   0.279  -4.422  0.00  0.00    +0.030 C 
ATOM     24  C   LIG    1        1.954   0.672  -5.756  0.00  0.00    -0.040 C 
ATOM     25  C   LIG    1        0.991   1.343  -6.738  0.00  0.00    +0.040 C 
ATOM     26  C   LIG    1        2.808   1.668  -4.953  0.00  0.00    +0.060 C 
ENDBRANCH  19  22
ENDBRANCH  15  16
ENDBRANCH   1  15
TORSDOF 6
