REMARK  Name = ZINCzw0000000fR1.1
REMARK                            x       y       z     vdW  Elec       q    Type
REMARK                         _______ _______ _______ _____ _____    ______ ____
ROOT
ATOM      1  C   LIG    1       -0.172   1.054   2.779  0.00  0.00    +0.170 C 
ATOM      2  C   LIG    1       -0.848  -0.321   2.959  0.00  0.00    +0.310 C 
ATOM      3  N   LIG    1       -2.022  -0.349   2.074  0.00  0.00    -0.630 N 
ATOM      4  C   LIG    1       -2.120   0.947   1.377  0.00  0.00    +0.290 C 
ATOM      5  C   LIG    1       -2.869  -1.387   1.926  0.00  0.00    +0.730 C 
ATOM      6  N   LIG    1       -3.913  -1.289   1.079  0.00  0.00    -0.680 N 
ATOM      7  H   LIG    1       -4.100  -0.447   0.636  0.00  0.00    +0.410 HD
ATOM      8  O   LIG    1       -2.691  -2.412   2.555  0.00  0.00    -0.550 OA
ATOM      9  C   LIG    1       -0.677   1.510   1.385  0.00  0.00    +0.020 C 
ATOM     10  C   LIG    1        0.162   0.888   0.267  0.00  0.00    +0.050 C 
ENDROOT
BRANCH   1  16
ATOM     11  C   LIG    1        5.433   1.365   5.545  0.00  0.00    +0.110 C 
ATOM     12  C   LIG    1        4.944   2.001   4.269  0.00  0.00    +0.520 C 
ATOM     13  N   LIG    1        3.913   1.453   3.595  0.00  0.00    -0.640 N 
ATOM     14  C   LIG    1        3.418   2.056   2.348  0.00  0.00    +0.320 C 
ATOM     15  C   LIG    1        1.899   2.218   2.455  0.00  0.00    +0.260 C 
ATOM     16  N   LIG    1        1.291   0.922   2.784  0.00  0.00    -0.380 N 
ATOM     17  C   LIG    1        1.737   0.486   4.114  0.00  0.00    +0.260 C 
ATOM     18  H   LIG    1        1.569   0.238   2.097  0.00  0.00    +0.420 HD
ATOM     19  C   LIG    1        3.249   0.236   4.088  0.00  0.00    +0.330 C 
ATOM     20  O   LIG    1        5.479   3.004   3.847  0.00  0.00    -0.510 OA
ENDBRANCH   1  16
BRANCH   6  21
ATOM     21  C   LIG    1       -4.724  -2.398   0.841  0.00  0.00    +0.180 A 
ATOM     22  C   LIG    1       -4.172  -3.675   0.843  0.00  0.00    +0.010 A 
ATOM     23  C   LIG    1       -4.971  -4.772   0.614  0.00  0.00    +0.070 A 
ATOM     24  C   LIG    1       -6.336  -4.602   0.368  0.00  0.00    -0.140 A 
ATOM     25  C   LIG    1       -6.886  -3.317   0.362  0.00  0.00    +0.120 A 
ATOM     26  C   LIG    1       -6.083  -2.225   0.597  0.00  0.00    -0.010 A 
BRANCH  24  27
ATOM     27  C   LIG    1       -7.195  -5.776   0.117  0.00  0.00    +0.560 C 
ATOM     28  N   LIG    1       -6.662  -7.014   0.124  0.00  0.00    -0.730 N 
ATOM     29  H   LIG    1       -5.715  -7.133   0.294  0.00  0.00    +0.400 HD
ATOM     30  O   LIG    1       -8.382  -5.626  -0.096  0.00  0.00    -0.530 OA
BRANCH  28  31
ATOM     31  C   LIG    1       -7.515  -8.179  -0.125  0.00  0.00    +0.260 C 
BRANCH  31  32
ATOM     32  C   LIG    1       -6.669  -9.452  -0.062  0.00  0.00    +0.070 C 
BRANCH  32  33
ATOM     33  C   LIG    1       -7.546 -10.651  -0.319  0.00  0.00    -0.090 A 
ATOM     34  C   LIG    1       -8.165 -11.293   0.738  0.00  0.00    +0.010 A 
ATOM     35  C   LIG    1       -8.973 -12.389   0.502  0.00  0.00    +0.000 A 
ATOM     36  C   LIG    1       -9.153 -12.850  -0.789  0.00  0.00    +0.000 A 
ATOM     37  C   LIG    1       -8.530 -12.211  -1.844  0.00  0.00    +0.000 A 
ATOM     38  C   LIG    1       -7.726 -11.112  -1.609  0.00  0.00    +0.010 A 
ENDBRANCH  32  33
ENDBRANCH  31  32
ENDBRANCH  28  31
ENDBRANCH  24  27
ENDBRANCH   6  21
TORSDOF 6
