REMARK  Name = ZINCvU0000000HUK.0
REMARK                            x       y       z     vdW  Elec       q    Type
REMARK                         _______ _______ _______ _____ _____    ______ ____
ROOT
ATOM      1  O   LIG    1        4.587   8.041   1.352  0.00  0.00    -0.510 OA
ATOM      2  C   LIG    1        3.532   7.478   1.149  0.00  0.00    +0.520 C 
ATOM      3  N   LIG    1        3.432   6.147   1.332  0.00  0.00    -0.610 N 
ATOM      4  C   LIG    1        4.590   5.357   1.779  0.00  0.00    +0.300 C 
ATOM      5  C   LIG    1        4.764   4.169   0.828  0.00  0.00    +0.180 C 
ATOM      6  N   LIG    1        3.501   3.424   0.742  0.00  0.00    -0.530 NA
ATOM      7  C   LIG    1        2.432   4.253   0.168  0.00  0.00    +0.180 C 
ATOM      8  C   LIG    1        2.162   5.445   1.092  0.00  0.00    +0.290 C 
ENDROOT
BRANCH   6   9
ATOM      9  C   LIG    1        3.672   2.182  -0.023  0.00  0.00    +0.230 C 
BRANCH   9  10
ATOM     10  C   LIG    1        2.375   1.414  -0.031  0.00  0.00    -0.080 A 
ATOM     11  C   LIG    1        1.641   1.285   1.134  0.00  0.00    +0.040 A 
ATOM     12  C   LIG    1        0.450   0.584   1.125  0.00  0.00    +0.000 A 
ATOM     13  C   LIG    1       -0.003   0.004  -0.045  0.00  0.00    +0.000 A 
ATOM     14  C   LIG    1        0.734   0.129  -1.208  0.00  0.00    +0.000 A 
ATOM     15  C   LIG    1        1.923   0.834  -1.201  0.00  0.00    +0.010 A 
ENDBRANCH   9  10
BRANCH   9  16
ATOM     16  C   LIG    1        4.749   1.343   0.616  0.00  0.00    -0.080 A 
ATOM     17  C   LIG    1        4.766   1.168   1.987  0.00  0.00    +0.040 A 
ATOM     18  C   LIG    1        5.753   0.398   2.573  0.00  0.00    +0.000 A 
ATOM     19  C   LIG    1        6.725  -0.194   1.789  0.00  0.00    +0.000 A 
ATOM     20  C   LIG    1        6.709  -0.017   0.418  0.00  0.00    +0.000 A 
ATOM     21  C   LIG    1        5.721   0.751  -0.169  0.00  0.00    +0.010 A 
ENDBRANCH   9  16
ENDBRANCH   6   9
BRANCH   2  22
ATOM     22  C   LIG    1        2.333   8.268   0.691  0.00  0.00    +0.240 C 
BRANCH  22  23
ATOM     23  O   LIG    1        2.688   9.647   0.571  0.00  0.00    -0.270 OA
BRANCH  23  24
ATOM     24  C   LIG    1        1.713  10.502   0.165  0.00  0.00    +0.140 A 
ATOM     25  C   LIG    1        0.442  10.023  -0.118  0.00  0.00    -0.040 A 
ATOM     26  C   LIG    1       -0.549  10.895  -0.526  0.00  0.00    +0.090 A 
ATOM     27  C   LIG    1       -0.273  12.244  -0.663  0.00  0.00    -0.060 A 
ATOM     28  C   LIG    1        0.995  12.724  -0.387  0.00  0.00    +0.090 A 
ATOM     29 CL   LIG    1       -1.519  13.335  -1.183  0.00  0.00    -0.050 Cl
ATOM     30  C   LIG    1        1.989  11.856   0.026  0.00  0.00    -0.060 A 
ATOM     31 CL   LIG    1        3.580  12.458   0.372  0.00  0.00    -0.030 Cl
ENDBRANCH  23  24
ENDBRANCH  22  23
ENDBRANCH   2  22
TORSDOF 6
