REMARK  Name = ZINCpe00000MJLpN.1
REMARK                            x       y       z     vdW  Elec       q    Type
REMARK                         _______ _______ _______ _____ _____    ______ ____
ROOT
ATOM      1  C   LIG    1       -0.018   1.470   0.010  0.00  0.00    +0.580 C 
ATOM      2  N   LIG    1       -1.119   2.207   0.256  0.00  0.00    -0.610 N 
ATOM      3  C   LIG    1       -2.386   1.561   0.626  0.00  0.00    +0.260 C 
ATOM      4  C   LIG    1       -3.486   2.044  -0.318  0.00  0.00    +0.020 C 
ATOM      5  C   LIG    1       -3.532   3.573  -0.302  0.00  0.00    -0.010 C 
ATOM      6  C   LIG    1       -2.194   4.132  -0.792  0.00  0.00    +0.040 C 
ATOM      7  C   LIG    1       -1.078   3.672   0.152  0.00  0.00    +0.280 C 
ATOM      8  O   LIG    1        1.039   2.019  -0.235  0.00  0.00    -0.510 OA
ENDROOT
BRANCH   1  14
ATOM      9  C   LIG    1        0.354  -0.762  -1.065  0.00  0.00    +0.180 A 
ATOM     10  C   LIG    1        0.260  -2.151  -0.985  0.00  0.00    -0.070 A 
ATOM     11  C   LIG    1       -0.273  -2.725   0.150  0.00  0.00    +0.290 A 
ATOM     12  N   LIG    1       -0.691  -1.983   1.161  0.00  0.00    -0.490 NA
ATOM     13  C   LIG    1       -0.621  -0.669   1.140  0.00  0.00    +0.300 A 
ATOM     14  C   LIG    1       -0.096  -0.002   0.033  0.00  0.00    -0.160 A 
BRANCH   9  16
ATOM     15  C   LIG    1        2.263  -0.578  -2.427  0.00  0.00    +0.220 C 
ATOM     16  N   LIG    1        0.879  -0.148  -2.189  0.00  0.00    -0.510 N 
ATOM     17  C   LIG    1        0.039  -0.401  -3.368  0.00  0.00    +0.210 C 
ENDBRANCH   9  16
ENDBRANCH   1  14
BRANCH   5  18
ATOM     18  C   LIG    1       -4.654   4.058  -1.223  0.00  0.00    +0.200 C 
ATOM     19  O   LIG    1       -4.496   3.485  -2.526  0.00  0.00    -0.370 OA
ATOM     20  C   LIG    1       -5.630   2.660  -2.840  0.00  0.00    +0.200 C 
ATOM     21  C   LIG    1       -6.785   3.213  -1.968  0.00  0.00    +0.020 C 
ATOM     22  C   LIG    1       -6.020   3.596  -0.672  0.00  0.00    -0.030 C 
BRANCH  22  23
ATOM     23  C   LIG    1       -6.717   4.721   0.049  0.00  0.00    +0.530 C 
ATOM     24  O   LIG    1       -6.187   5.809   0.130  0.00  0.00    -0.530 OA
ATOM     25  N   LIG    1       -7.928   4.519   0.604  0.00  0.00    -0.850 N 
ATOM     26  H   LIG    1       -8.376   5.243   1.069  0.00  0.00    +0.400 HD
ATOM     27  H   LIG    1       -8.351   3.648   0.540  0.00  0.00    +0.400 HD
ENDBRANCH  22  23
ENDBRANCH   5  18
TORSDOF 4
