REMARK  Name = ZINCqH0000008vw0.0
REMARK                            x       y       z     vdW  Elec       q    Type
REMARK                         _______ _______ _______ _____ _____    ______ ____
ROOT
ATOM      1  C   LIG    1       -1.239  -6.368  -0.264  0.00  0.00    +0.520 C 
ATOM      2  N   LIG    1       -1.192  -5.021  -0.295  0.00  0.00    -0.720 N 
ATOM      3  H   LIG    1       -2.000  -4.504  -0.150  0.00  0.00    +0.400 HD
ATOM      4  O   LIG    1       -0.229  -7.014  -0.445  0.00  0.00    -0.500 OA
ENDROOT
BRANCH   1   6
ATOM      5  C   LIG    1       -3.514  -6.790  -1.155  0.00  0.00    +0.060 C 
ATOM      6  C   LIG    1       -2.547  -7.070  -0.004  0.00  0.00    +0.170 C 
BRANCH   6   7
ATOM      7  O   LIG    1       -2.320  -8.477   0.096  0.00  0.00    -0.270 OA
BRANCH   7   8
ATOM      8  C   LIG    1       -3.221  -9.198   0.815  0.00  0.00    +0.140 A 
ATOM      9  C   LIG    1       -4.359  -8.585   1.317  0.00  0.00    -0.060 A 
ATOM     10  C   LIG    1       -5.277  -9.321   2.042  0.00  0.00    +0.060 A 
ATOM     11  C   LIG    1       -5.055 -10.665   2.278  0.00  0.00    +0.000 A 
ATOM     12  C   LIG    1       -3.918 -11.278   1.784  0.00  0.00    +0.070 A 
ATOM     13  C   LIG    1       -3.001 -10.548   1.053  0.00  0.00    -0.070 A 
ATOM     14 CL   LIG    1       -1.574 -11.318   0.432  0.00  0.00    -0.050 Cl
ENDBRANCH   7   8
ENDBRANCH   6   7
ENDBRANCH   1   6
BRANCH   2  15
ATOM     15  C   LIG    1        0.079  -4.338  -0.548  0.00  0.00    +0.270 C 
BRANCH  15  16
ATOM     16  C   LIG    1       -0.142  -2.825  -0.531  0.00  0.00    +0.280 C 
BRANCH  16  17
ATOM     17  N   LIG    1        1.129  -2.142  -0.784  0.00  0.00    -0.720 N 
ATOM     18  H   LIG    1        1.937  -2.659  -0.929  0.00  0.00    +0.410 HD
BRANCH  17  19
ATOM     19  C   LIG    1        1.178  -0.753  -0.817  0.00  0.00    +0.450 A 
ATOM     20  N   LIG    1        0.072  -0.053  -0.618  0.00  0.00    -0.540 NA
ATOM     21  C   LIG    1        0.074   1.266  -0.640  0.00  0.00    +0.350 A 
ATOM     22  C   LIG    1        1.240   1.968  -0.874  0.00  0.00    -0.080 A 
ATOM     23  C   LIG    1        2.422   1.271  -1.086  0.00  0.00    +0.170 A 
ATOM     24  C   LIG    1        2.388  -0.111  -1.057  0.00  0.00    -0.310 A 
BRANCH  24  25
ATOM     25  C   LIG    1        3.646  -0.911  -1.281  0.00  0.00    +0.520 C 
ATOM     26  F   LIG    1        3.480  -1.736  -2.398  0.00  0.00    -0.180 F 
ATOM     27  F   LIG    1        3.905  -1.698  -0.154  0.00  0.00    -0.180 F 
ATOM     28  F   LIG    1        4.719  -0.041  -1.499  0.00  0.00    -0.170 F 
ENDBRANCH  24  25
ENDBRANCH  17  19
ENDBRANCH  16  17
ENDBRANCH  15  16
ENDBRANCH   2  15
TORSDOF 8
