REMARK  Name = ZINCrD0000071T0O.0
REMARK                            x       y       z     vdW  Elec       q    Type
REMARK                         _______ _______ _______ _____ _____    ______ ____
ROOT
ATOM      1  C   LIG    1       -1.546   7.309   2.614  0.00  0.00    -0.060 A 
ATOM      2  C   LIG    1       -2.213   7.078   3.799  0.00  0.00    +0.080 A 
ATOM      3  C   LIG    1       -2.288   5.691   3.955  0.00  0.00    -0.030 A 
ATOM      4  C   LIG    1       -1.672   5.130   2.873  0.00  0.00    +0.080 A 
ATOM      5  O   LIG    1       -1.225   6.114   2.075  0.00  0.00    -0.140 OA
ENDROOT
BRANCH   4   6
ATOM      6  C   LIG    1       -1.517   3.683   2.625  0.00  0.00    -0.030 A 
ATOM      7  C   LIG    1       -2.024   2.756   3.538  0.00  0.00    +0.080 A 
ATOM      8  C   LIG    1       -1.875   1.405   3.301  0.00  0.00    +0.030 A 
ATOM      9  C   LIG    1       -1.227   0.968   2.159  0.00  0.00    +0.090 A 
ATOM     10  C   LIG    1       -0.722   1.881   1.250  0.00  0.00    -0.180 A 
ATOM     11  C   LIG    1       -0.859   3.234   1.478  0.00  0.00    +0.100 A 
BRANCH  10  12
ATOM     12  C   LIG    1       -0.017   1.395   0.010  0.00  0.00    +0.510 C 
ATOM     13  F   LIG    1       -0.694   1.858  -1.124  0.00  0.00    -0.170 F 
ATOM     14  F   LIG    1        1.296   1.879  -0.000  0.00  0.00    -0.170 F 
ATOM     15  F   LIG    1        0.002  -0.004   0.002  0.00  0.00    -0.170 F 
ENDBRANCH  10  12
ENDBRANCH   4   6
BRANCH   1  16
ATOM     16  C   LIG    1       -1.236   8.620   2.044  0.00  0.00    +0.560 C 
ATOM     17  O   LIG    1       -1.575   9.633   2.627  0.00  0.00    -0.480 OA
BRANCH  16  18
ATOM     18  O   LIG    1       -0.575   8.707   0.871  0.00  0.00    -0.320 OA
BRANCH  18  19
ATOM     19  C   LIG    1       -0.306  10.019   0.373  0.00  0.00    +0.300 C 
BRANCH  19  23
ATOM     20  C   LIG    1        1.457  10.946  -2.765  0.00  0.00    +0.640 C 
ATOM     21  N   LIG    1        0.795  11.037  -1.594  0.00  0.00    -0.660 N 
ATOM     22  H   LIG    1        0.579  11.908  -1.226  0.00  0.00    +0.420 HD
ATOM     23  C   LIG    1        0.434   9.918  -0.936  0.00  0.00    +0.520 C 
ATOM     24  O   LIG    1        0.705   8.829  -1.397  0.00  0.00    -0.430 OA
ATOM     25  O   LIG    1        1.728   9.856  -3.226  0.00  0.00    -0.500 OA
BRANCH  20  26
ATOM     26  O   LIG    1        1.818  12.064  -3.422  0.00  0.00    -0.360 OA
BRANCH  26  28
ATOM     27  C   LIG    1        2.852  13.262  -5.273  0.00  0.00    +0.080 C 
ATOM     28  C   LIG    1        2.528  11.890  -4.677  0.00  0.00    +0.240 C 
ENDBRANCH  26  28
ENDBRANCH  20  26
ENDBRANCH  19  23
ENDBRANCH  18  19
ENDBRANCH  16  18
ENDBRANCH   1  16
TORSDOF 8
