REMARK  Name = ZINCrg00000IXw90.0
REMARK                            x       y       z     vdW  Elec       q    Type
REMARK                         _______ _______ _______ _____ _____    ______ ____
ROOT
ATOM      1  N   LIG    1        0.280   1.368  -2.268  0.00  0.00    -1.100 NA
ATOM      2  H   LIG    1        1.238   1.442  -2.133  0.00  0.00    +0.420 HD
ENDROOT
BRANCH   1   7
ATOM      3  N   LIG    1       -0.963   3.724   0.127  0.00  0.00    -0.540 N 
ATOM      4  C   LIG    1       -0.702   3.107   1.422  0.00  0.00    +0.270 C 
ATOM      5  C   LIG    1       -0.838   1.587   1.329  0.00  0.00    +0.050 C 
ATOM      6  C   LIG    1        0.001   1.090   0.145  0.00  0.00    +0.040 C 
ATOM      7  C   LIG    1       -0.637   1.600  -1.149  0.00  0.00    +0.280 C 
ATOM      8  C   LIG    1       -0.918   3.071  -1.035  0.00  0.00    +0.490 C 
ATOM      9  O   LIG    1       -1.115   3.699  -2.054  0.00  0.00    -0.490 OA
BRANCH   3  14
ATOM     10  C   LIG    1       -0.553   8.693  -0.091  0.00  0.00    +0.160 C 
ATOM     11  C   LIG    1       -1.129   7.304   0.008  0.00  0.00    +0.080 A 
ATOM     12  N   LIG    1       -2.398   7.007   0.123  0.00  0.00    -0.280 NA
ATOM     13  N   LIG    1       -2.522   5.613   0.185  0.00  0.00    -0.370 N 
ATOM     14  C   LIG    1       -1.281   5.082   0.102  0.00  0.00    +0.300 A 
ATOM     15  C   LIG    1       -3.774   4.864   0.315  0.00  0.00    +0.350 C 
ATOM     16  C   LIG    1       -0.399   6.112  -0.003  0.00  0.00    -0.100 A 
ENDBRANCH   3  14
ENDBRANCH   1   7
BRANCH   1  17
ATOM     17  S   LIG    1       -0.319   0.978  -3.762  0.00  0.00    +2.720 S 
ATOM     18  O   LIG    1       -1.262  -0.065  -3.557  0.00  0.00    -0.970 OA
ATOM     19  O   LIG    1        0.804   0.853  -4.624  0.00  0.00    -0.970 OA
BRANCH  17  20
ATOM     20  C   LIG    1       -1.233   2.370  -4.336  0.00  0.00    -0.770 A 
ATOM     21  C   LIG    1       -2.586   2.488  -4.396  0.00  0.00    +0.370 A 
ATOM     22  N   LIG    1       -2.916   3.686  -4.883  0.00  0.00    -0.550 NA
ATOM     23  C   LIG    1       -1.832   4.389  -5.166  0.00  0.00    +0.290 A 
ATOM     24  N   LIG    1       -1.625   5.644  -5.680  0.00  0.00    -0.490 N 
ATOM     25  H   LIG    1       -2.386   6.199  -5.911  0.00  0.00    +0.430 HD
ATOM     26  C   LIG    1       -0.380   6.112  -5.866  0.00  0.00    +0.320 A 
ATOM     27  C   LIG    1        0.718   5.368  -5.556  0.00  0.00    -0.040 A 
ATOM     28  C   LIG    1        0.577   4.088  -5.032  0.00  0.00    +0.160 A 
ATOM     29  C   LIG    1       -0.707   3.584  -4.832  0.00  0.00    -0.060 A 
ENDBRANCH  17  20
ENDBRANCH   1  17
TORSDOF 4
