REMARK  Name = ZINCrH000004oSpr.0
REMARK                            x       y       z     vdW  Elec       q    Type
REMARK                         _______ _______ _______ _____ _____    ______ ____
ROOT
ATOM      1  C   LIG    1       -3.329   1.151   1.345  0.00  0.00    +0.050 C 
ATOM      2  C   LIG    1       -2.279   1.990   0.614  0.00  0.00    +0.130 C 
ATOM      3  O   LIG    1       -2.428   1.830  -0.809  0.00  0.00    -0.370 OA
ATOM      4  C   LIG    1       -1.104   1.897  -1.382  0.00  0.00    +0.220 C 
ATOM      5  C   LIG    1       -0.230   1.110  -0.371  0.00  0.00    +0.060 C 
ATOM      6  C   LIG    1       -0.868   1.502   0.978  0.00  0.00    +0.070 C 
ATOM      7  C   LIG    1       -0.946   0.281   1.891  0.00  0.00    +0.310 C 
ATOM      8  N   LIG    1       -1.391   0.724   3.224  0.00  0.00    -0.630 N 
ATOM      9  C   LIG    1       -0.696   1.867   3.837  0.00  0.00    +0.240 C 
ATOM     10  C   LIG    1       -0.666   3.017   2.825  0.00  0.00    +0.210 C 
ATOM     11  C   LIG    1       -2.403   0.101   3.860  0.00  0.00    +0.710 C 
ATOM     12  N   LIG    1       -2.864   0.588   5.030  0.00  0.00    -0.650 N 
ATOM     13  H   LIG    1       -2.519   1.426   5.376  0.00  0.00    +0.420 HD
ATOM     14  O   LIG    1       -2.900  -0.899   3.380  0.00  0.00    -0.520 OA
ATOM     15  O   LIG    1       -0.119   2.545   1.591  0.00  0.00    -0.360 OA
ENDROOT
BRANCH  12  16
ATOM     16  C   LIG    1       -3.833  -0.111   5.740  0.00  0.00    +0.290 A 
ATOM     17  N   LIG    1       -4.357  -1.233   5.370  0.00  0.00    -0.470 NA
ATOM     18  C   LIG    1       -5.274  -1.776   6.162  0.00  0.00    +0.100 A 
ATOM     19  C   LIG    1       -5.521  -1.048   7.264  0.00  0.00    -0.240 A 
ATOM     20  C   LIG    1       -6.511  -1.412   8.345  0.00  0.00    +0.140 C 
ATOM     21  C   LIG    1       -6.873  -2.894   8.197  0.00  0.00    +0.010 C 
ATOM     22  C   LIG    1       -7.241  -3.173   6.737  0.00  0.00    +0.030 C 
ATOM     23  C   LIG    1       -5.983  -3.090   5.869  0.00  0.00    +0.130 C 
ATOM     24  S   LIG    1       -4.500   0.384   7.233  0.00  0.00    +0.110 S 
BRANCH  21  25
ATOM     25  C   LIG    1       -8.065  -3.223   9.097  0.00  0.00    -0.060 C 
ATOM     26  C   LIG    1       -7.699  -2.932  10.554  0.00  0.00    +0.030 C 
ATOM     27  C   LIG    1       -8.425  -4.702   8.948  0.00  0.00    +0.030 C 
ATOM     28  C   LIG    1       -9.264  -2.363   8.691  0.00  0.00    +0.020 C 
ENDBRANCH  21  25
ENDBRANCH  12  16
TORSDOF 2
