REMARK  Name = ZINCrD00000F5LH1.0
REMARK                            x       y       z     vdW  Elec       q    Type
REMARK                         _______ _______ _______ _____ _____    ______ ____
ROOT
ATOM      1  N   LIG    1        7.164   1.178   0.242  0.00  0.00    -0.480 N 
ATOM      2  C   LIG    1        6.181   2.060   0.166  0.00  0.00    +0.560 A 
ATOM      3  C   LIG    1        4.834   1.488   0.065  0.00  0.00    -0.240 A 
ATOM      4  S   LIG    1        5.096  -0.267   0.074  0.00  0.00    +0.120 S 
ATOM      5  C   LIG    1        3.654   2.152  -0.023  0.00  0.00    +0.240 C 
ATOM      6  O   LIG    1        6.380   3.260   0.183  0.00  0.00    -0.450 OA
ATOM      7  C   LIG    1        6.859  -0.151   0.210  0.00  0.00    +0.200 A 
ATOM      8  C   LIG    1        7.762  -1.215   0.273  0.00  0.00    -0.030 C 
ENDROOT
BRANCH   1  16
ATOM      9  C   LIG    1        8.245   1.580   2.844  0.00  0.00    +0.100 C 
ATOM     10  C   LIG    1        9.062   1.809   1.598  0.00  0.00    -0.050 A 
ATOM     11  C   LIG    1       10.376   2.223   1.699  0.00  0.00    +0.020 A 
ATOM     12  C   LIG    1       11.124   2.438   0.557  0.00  0.00    +0.050 A 
ATOM     13  C   LIG    1       10.561   2.237  -0.690  0.00  0.00    +0.020 A 
ATOM     14  C   LIG    1        9.249   1.819  -0.798  0.00  0.00    -0.050 A 
ATOM     15  C   LIG    1        8.636   1.600  -2.157  0.00  0.00    +0.100 C 
ATOM     16  C   LIG    1        8.495   1.601   0.348  0.00  0.00    +0.080 A 
ENDBRANCH   1  16
BRANCH   5  17
ATOM     17  C   LIG    1        2.387   1.411   0.057  0.00  0.00    -0.070 A 
ATOM     18  C   LIG    1        2.357   0.124   0.605  0.00  0.00    +0.050 A 
ATOM     19  C   LIG    1        1.164  -0.564   0.675  0.00  0.00    +0.040 A 
ATOM     20  C   LIG    1       -0.002   0.015   0.205  0.00  0.00    +0.050 A 
ATOM     21  C   LIG    1        0.018   1.287  -0.340  0.00  0.00    +0.050 A 
ATOM     22  C   LIG    1        1.202   1.990  -0.417  0.00  0.00    -0.060 A 
ATOM     23 BR   LIG    1        1.227   3.728  -1.161  0.00  0.00    -0.030 Br
ENDBRANCH   5  17
BRANCH   8  24
ATOM     24  C   LIG    1        9.166  -0.957   0.382  0.00  0.00    +0.260 C 
ATOM     25  N   LIG    1       10.280  -0.752   0.469  0.00  0.00    -0.380 NA
ENDBRANCH   8  24
BRANCH   8  26
ATOM     26  C   LIG    1        7.283  -2.563   0.227  0.00  0.00    +0.270 C 
ATOM     27  N   LIG    1        6.903  -3.634   0.191  0.00  0.00    -0.380 NA
ENDBRANCH   8  26
TORSDOF 4
