REMARK  Name = ZINCpk00000kk4lS.0
REMARK                            x       y       z     vdW  Elec       q    Type
REMARK                         _______ _______ _______ _____ _____    ______ ____
ROOT
ATOM      1  N   LIG    1        2.570  -3.475   5.466  0.00  0.00    -1.000 NA
ATOM      2  C   LIG    1        3.473  -2.931   4.438  0.00  0.00    +0.300 C 
ATOM      3  C   LIG    1        2.744  -1.791   3.728  0.00  0.00    +0.060 C 
ATOM      4  C   LIG    1        2.105  -0.859   4.723  0.00  0.00    -0.130 A 
ATOM      5  C   LIG    1        1.838  -1.222   6.023  0.00  0.00    -0.050 A 
ATOM      6  C   LIG    1        1.227  -0.319   6.883  0.00  0.00    -0.050 A 
ATOM      7  C   LIG    1        0.892   0.948   6.451  0.00  0.00    +0.050 A 
ATOM      8  C   LIG    1        1.169   1.326   5.151  0.00  0.00    -0.080 A 
ATOM      9  C   LIG    1        1.778   0.427   4.289  0.00  0.00    +0.220 A 
ATOM     10  C   LIG    1        2.189  -2.584   6.567  0.00  0.00    +0.360 C 
ENDROOT
BRANCH   1  12
ATOM     11  C   LIG    1        0.464  -4.900   4.431  0.00  0.00    -0.280 C 
ATOM     12  S   LIG    1        2.005  -5.029   5.380  0.00  0.00    +2.610 S 
ATOM     13  O   LIG    1        1.731  -5.377   6.731  0.00  0.00    -0.950 OA
ATOM     14  O   LIG    1        2.995  -5.721   4.632  0.00  0.00    -0.950 OA
ENDBRANCH   1  12
BRANCH   9  15
ATOM     15  N   LIG    1        2.060   0.809   2.975  0.00  0.00    -0.740 N 
ATOM     16  H   LIG    1        2.486   0.183   2.369  0.00  0.00    +0.400 HD
BRANCH  15  17
ATOM     17  C   LIG    1        1.713   2.155   2.513  0.00  0.00    +0.390 C 
BRANCH  17  18
ATOM     18  C   LIG    1        2.120   2.311   1.070  0.00  0.00    +0.270 A 
ATOM     19  N   LIG    1        3.280   2.738   0.641  0.00  0.00    -0.520 NA
ATOM     20  C   LIG    1        3.291   2.754  -0.691  0.00  0.00    +0.440 A 
ATOM     21  N   LIG    1        2.135   2.331  -1.130  0.00  0.00    -0.310 NA
ATOM     22  N   LIG    1        1.356   2.033   0.000  0.00  0.00    -0.380 N 
BRANCH  22  23
ATOM     23  C   LIG    1       -0.019   1.526   0.010  0.00  0.00    +0.330 C 
BRANCH  23  24
ATOM     24  C   LIG    1        0.002  -0.004   0.002  0.00  0.00    +0.370 C 
ATOM     25  F   LIG    1       -1.306  -0.488  -0.103  0.00  0.00    -0.190 F 
ATOM     26  F   LIG    1        0.577  -0.469   1.190  0.00  0.00    -0.190 F 
ENDBRANCH  23  24
ENDBRANCH  22  23
ENDBRANCH  17  18
ENDBRANCH  15  17
ENDBRANCH   9  15
TORSDOF 6
