REMARK  Name = ZINCkj000005jGiB.0
REMARK                            x       y       z     vdW  Elec       q    Type
REMARK                         _______ _______ _______ _____ _____    ______ ____
ROOT
ATOM      1  C   LIG    1       -0.019   1.526   0.010  0.00  0.00    -0.020 C 
ATOM      2  C   LIG    1        1.417   2.056  -0.000  0.00  0.00    +0.010 C 
ATOM      3  C   LIG    1        1.398   3.586   0.041  0.00  0.00    +0.040 C 
ATOM      4  C   LIG    1        0.676   4.117  -1.202  0.00  0.00    +0.300 C 
ATOM      5  N   LIG    1       -0.654   3.499  -1.277  0.00  0.00    -1.000 NA
ATOM      6  C   LIG    1       -0.756   2.034  -1.232  0.00  0.00    +0.310 C 
ENDROOT
BRANCH   5   7
ATOM      7  S   LIG    1       -2.014   4.436  -1.409  0.00  0.00    +2.690 S 
ATOM      8  O   LIG    1       -1.675   5.712  -0.883  0.00  0.00    -0.940 OA
ATOM      9  O   LIG    1       -3.091   3.652  -0.914  0.00  0.00    -0.950 OA
BRANCH   7  10
ATOM     10  C   LIG    1       -2.319   4.671  -3.128  0.00  0.00    -0.660 A 
ATOM     11  C   LIG    1       -1.764   5.755  -3.784  0.00  0.00    +0.130 A 
ATOM     12  C   LIG    1       -1.995   5.942  -5.131  0.00  0.00    +0.060 A 
ATOM     13  C   LIG    1       -2.801   5.042  -5.830  0.00  0.00    +0.040 A 
ATOM     14  C   LIG    1       -3.363   3.953  -5.161  0.00  0.00    +0.060 A 
ATOM     15  C   LIG    1       -3.119   3.774  -3.815  0.00  0.00    +0.130 A 
BRANCH  13  16
ATOM     16  C   LIG    1       -3.050   5.233  -7.228  0.00  0.00    +0.230 C 
ATOM     17  N   LIG    1       -3.247   5.385  -8.336  0.00  0.00    -0.380 NA
ENDBRANCH  13  16
ENDBRANCH   7  10
ENDBRANCH   5   7
BRANCH   1  19
ATOM     18  C   LIG    1       -1.433  -0.534   0.013  0.00  0.00    +0.100 C 
ATOM     19  C   LIG    1        0.002  -0.004   0.002  0.00  0.00    +0.180 C 
BRANCH  19  20
ATOM     20  N   LIG    1        0.713  -0.491   1.192  0.00  0.00    -0.640 N 
ATOM     21  H   LIG    1        1.659  -0.141   1.185  0.00  0.00    +0.430 HD
ATOM     22  H   LIG    1        0.726  -1.500   1.187  0.00  0.00    +0.440 HD
ATOM     23  H   LIG    1        0.240  -0.165   2.022  0.00  0.00    +0.430 HD
ENDBRANCH  19  20
ENDBRANCH   1  19
TORSDOF 5
