REMARK  Name = ZINCqH0000008ol4.0
REMARK                            x       y       z     vdW  Elec       q    Type
REMARK                         _______ _______ _______ _____ _____    ______ ____
ROOT
ATOM      1  N   LIG    1        4.961   2.167   1.320  0.00  0.00    -0.730 N 
ATOM      2  H   LIG    1        5.063   2.482   2.232  0.00  0.00    +0.410 HD
ATOM      3  C   LIG    1        4.112   2.793   0.481  0.00  0.00    +0.710 C 
ATOM      4  N   LIG    1        3.405   3.858   0.910  0.00  0.00    -0.740 N 
ATOM      5  H   LIG    1        3.507   4.173   1.821  0.00  0.00    +0.400 HD
ATOM      6  O   LIG    1        3.984   2.398  -0.661  0.00  0.00    -0.580 OA
ENDROOT
BRANCH   4   7
ATOM      7  C   LIG    1        2.483   4.539  -0.002  0.00  0.00    +0.310 C 
ATOM      8  C   LIG    1        2.321   5.992   0.440  0.00  0.00    +0.020 C 
ATOM      9  C   LIG    1        1.195   6.626  -0.386  0.00  0.00    +0.030 C 
ATOM     10  C   LIG    1       -0.131   6.008   0.052  0.00  0.00    +0.080 C 
ATOM     11  C   LIG    1       -0.046   4.504   0.032  0.00  0.00    -0.060 A 
ATOM     12  C   LIG    1       -1.237   3.789   0.037  0.00  0.00    +0.020 A 
ATOM     13  C   LIG    1       -1.227   2.410   0.021  0.00  0.00    +0.020 A 
ATOM     14  C   LIG    1       -0.021   1.732   0.012  0.00  0.00    -0.040 A 
ATOM     15  C   LIG    1        1.163   2.441   0.004  0.00  0.00    +0.050 A 
ATOM     16 CL   LIG    1        0.002  -0.004   0.002  0.00  0.00    -0.070 Cl
ATOM     17  C   LIG    1        1.154   3.829   0.014  0.00  0.00    -0.090 A 
ENDBRANCH   4   7
BRANCH   1  19
ATOM     18  C   LIG    1        4.883  -0.257   1.000  0.00  0.00    +0.060 C 
ATOM     19  C   LIG    1        5.729   1.009   0.855  0.00  0.00    +0.360 C 
BRANCH  19  20
ATOM     20  C   LIG    1        6.982   0.873   1.681  0.00  0.00    +0.160 A 
ATOM     21  N   LIG    1        7.069   0.967   2.983  0.00  0.00    -0.280 NA
ATOM     22  N   LIG    1        8.293   0.797   3.351  0.00  0.00    -0.290 NA
ATOM     23  C   LIG    1        9.035   0.588   2.306  0.00  0.00    +0.180 A 
ATOM     24  C   LIG    1       10.520   0.337   2.243  0.00  0.00    +0.160 C 
ATOM     25  C   LIG    1       10.846  -0.252   0.861  0.00  0.00    +0.030 C 
ATOM     26  C   LIG    1       10.188   0.611  -0.219  0.00  0.00    +0.040 C 
ATOM     27  C   LIG    1        8.666   0.435  -0.162  0.00  0.00    +0.290 C 
ATOM     28  N   LIG    1        8.223   0.627   1.218  0.00  0.00    -0.460 N 
ENDBRANCH  19  20
ENDBRANCH   1  19
TORSDOF 3
