REMARK  Name = ZINCrH000004lHcM.0
REMARK                            x       y       z     vdW  Elec       q    Type
REMARK                         _______ _______ _______ _____ _____    ______ ____
ROOT
ATOM      1  N   LIG    1       -1.740   5.678  -1.724  0.00  0.00    -0.730 N 
ATOM      2  H   LIG    1       -2.405   5.435  -1.062  0.00  0.00    +0.400 HD
ATOM      3  C   LIG    1       -2.031   5.588  -3.037  0.00  0.00    +0.710 C 
ATOM      4  N   LIG    1       -3.247   5.160  -3.429  0.00  0.00    -0.690 N 
ATOM      5  H   LIG    1       -3.938   4.991  -2.769  0.00  0.00    +0.410 HD
ATOM      6  O   LIG    1       -1.197   5.893  -3.867  0.00  0.00    -0.570 OA
ENDROOT
BRANCH   4   7
ATOM      7  C   LIG    1       -3.514   4.959  -4.790  0.00  0.00    +0.140 A 
ATOM      8  C   LIG    1       -4.780   5.221  -5.295  0.00  0.00    +0.010 A 
ATOM      9  C   LIG    1       -5.042   5.028  -6.637  0.00  0.00    +0.040 A 
ATOM     10  C   LIG    1       -4.041   4.561  -7.479  0.00  0.00    +0.130 A 
ATOM     11  C   LIG    1       -2.776   4.294  -6.973  0.00  0.00    -0.010 A 
ATOM     12  C   LIG    1       -2.513   4.492  -5.632  0.00  0.00    +0.050 A 
BRANCH  10  13
ATOM     13  N   LIG    1       -4.308   4.359  -8.839  0.00  0.00    -0.560 N 
ATOM     14  C   LIG    1       -5.479   4.770  -9.365  0.00  0.00    +0.510 C 
ATOM     15  O   LIG    1       -6.254   5.414  -8.689  0.00  0.00    -0.520 OA
ATOM     16  C   LIG    1       -5.826   4.431 -10.791  0.00  0.00    +0.110 C 
ATOM     17  C   LIG    1       -3.314   3.701  -9.691  0.00  0.00    +0.300 C 
ENDBRANCH  10  13
ENDBRANCH   4   7
BRANCH   1  18
ATOM     18  C   LIG    1       -0.418   6.143  -1.297  0.00  0.00    +0.270 C 
ATOM     19  C   LIG    1       -0.404   7.673  -1.255  0.00  0.00    +0.050 C 
BRANCH  18  20
ATOM     20  C   LIG    1       -0.108   5.592   0.096  0.00  0.00    +0.210 C 
BRANCH  20  21
ATOM     21  C   LIG    1       -0.064   4.087   0.042  0.00  0.00    -0.130 A 
ATOM     22  C   LIG    1        1.153   3.433  -0.019  0.00  0.00    +0.050 A 
ATOM     23  C   LIG    1        1.195   2.053  -0.069  0.00  0.00    -0.010 A 
ATOM     24  C   LIG    1        0.017   1.324  -0.057  0.00  0.00    +0.100 A 
ATOM     25  C   LIG    1       -1.201   1.980  -0.001  0.00  0.00    -0.020 A 
ATOM     26  F   LIG    1        0.057  -0.025  -0.106  0.00  0.00    -0.140 F 
ATOM     27  C   LIG    1       -1.240   3.360   0.054  0.00  0.00    +0.070 A 
ENDBRANCH  20  21
BRANCH  20  29
ATOM     28  C   LIG    1       -0.698   6.059   2.372  0.00  0.00    +0.210 C 
ATOM     29  O   LIG    1       -1.126   6.006   1.009  0.00  0.00    -0.380 OA
ENDBRANCH  20  29
ENDBRANCH  18  20
ENDBRANCH   1  18
TORSDOF 6
