REMARK  Name = ZINCqH0000003IEZ.0
REMARK                            x       y       z     vdW  Elec       q    Type
REMARK                         _______ _______ _______ _____ _____    ______ ____
ROOT
ATOM      1  C   LIG    1       -4.936   0.920   0.029  0.00  0.00    +0.390 C 
ATOM      2  C   LIG    1       -5.305   0.544   1.466  0.00  0.00    +0.070 C 
ENDROOT
BRANCH   1   3
ATOM      3  C   LIG    1       -6.028   1.776  -0.561  0.00  0.00    +0.180 A 
ATOM      4  N   LIG    1       -6.923   1.398  -1.440  0.00  0.00    -0.460 NA
ATOM      5  C   LIG    1       -7.686   2.489  -1.673  0.00  0.00    +0.220 A 
ATOM      6  N   LIG    1       -7.214   3.456  -0.929  0.00  0.00    -0.370 NA
ATOM      7  O   LIG    1       -6.268   3.061  -0.283  0.00  0.00    +0.090 OA
BRANCH   5   8
ATOM      8  C   LIG    1       -8.843   2.574  -2.599  0.00  0.00    -0.040 A 
ATOM      9  C   LIG    1       -9.231   1.457  -3.336  0.00  0.00    +0.110 A 
ATOM     10  C   LIG    1      -10.311   1.538  -4.191  0.00  0.00    -0.010 A 
ATOM     11  C   LIG    1      -11.001   2.732  -4.326  0.00  0.00    +0.120 A 
ATOM     12  C   LIG    1      -10.615   3.847  -3.600  0.00  0.00    -0.010 A 
ATOM     13  F   LIG    1      -12.054   2.809  -5.169  0.00  0.00    -0.130 F 
ATOM     14  C   LIG    1       -9.540   3.772  -2.738  0.00  0.00    +0.090 A 
ENDBRANCH   5   8
ENDBRANCH   1   3
BRANCH   1  16
ATOM     15  C   LIG    1       -2.501   1.006   0.019  0.00  0.00    +0.570 C 
ATOM     16  N   LIG    1       -3.676   1.667   0.028  0.00  0.00    -0.730 N 
ATOM     17  H   LIG    1       -3.687   2.637   0.034  0.00  0.00    +0.410 HD
ATOM     18  O   LIG    1       -2.488  -0.209   0.012  0.00  0.00    -0.530 OA
BRANCH  15  22
ATOM     19  C   LIG    1        1.152   3.171   0.008  0.00  0.00    +0.160 A 
ATOM     20  C   LIG    1        1.170   1.781   0.001  0.00  0.00    -0.020 A 
ATOM     21  C   LIG    1       -0.013   1.076   0.008  0.00  0.00    +0.140 A 
ATOM     22  C   LIG    1       -1.232   1.759   0.017  0.00  0.00    -0.180 A 
ATOM     23  C   LIG    1       -1.245   3.156   0.031  0.00  0.00    +0.090 A 
ATOM     24  C   LIG    1       -0.058   3.854   0.023  0.00  0.00    -0.080 A 
BRANCH  19  25
ATOM     25  O   LIG    1        2.320   3.863   0.000  0.00  0.00    -0.310 OA
BRANCH  25  27
ATOM     26  C   LIG    1        3.636   5.890  -0.002  0.00  0.00    +0.070 C 
ATOM     27  C   LIG    1        2.229   5.289   0.009  0.00  0.00    +0.190 C 
ENDBRANCH  25  27
ENDBRANCH  19  25
ENDBRANCH  15  22
ENDBRANCH   1  16
TORSDOF 6
