REMARK  Name = ZINCpe000000T30T.0
REMARK                            x       y       z     vdW  Elec       q    Type
REMARK                         _______ _______ _______ _____ _____    ______ ____
ROOT
ATOM      1  C   LIG    1       -4.601   1.717  -1.411  0.00  0.00    +0.510 C 
ATOM      2  N   LIG    1       -5.875   2.010  -1.739  0.00  0.00    -0.610 N 
ATOM      3  C   LIG    1       -6.259   3.384  -2.092  0.00  0.00    +0.270 C 
ATOM      4  C   LIG    1       -6.962   3.359  -3.457  0.00  0.00    -0.010 C 
ATOM      5  C   LIG    1       -8.132   2.373  -3.404  0.00  0.00    +0.150 C 
ATOM      6  C   LIG    1       -7.604   0.967  -3.109  0.00  0.00    +0.030 C 
ATOM      7  C   LIG    1       -6.906   0.964  -1.745  0.00  0.00    +0.290 C 
ATOM      8  O   LIG    1       -4.273   0.564  -1.225  0.00  0.00    -0.520 OA
ENDROOT
BRANCH   1   9
ATOM      9  C   LIG    1       -3.584   2.821  -1.274  0.00  0.00    +0.290 C 
BRANCH   9  10
ATOM     10  N   LIG    1       -2.255   2.306  -1.613  0.00  0.00    -0.980 NA
ATOM     11  C   LIG    1       -1.549   1.206  -0.938  0.00  0.00    +0.250 C 
ATOM     12  C   LIG    1       -0.025   1.413  -1.041  0.00  0.00    +0.070 C 
ATOM     13  C   LIG    1        0.209   1.809  -2.527  0.00  0.00    -0.310 C 
ATOM     14  S   LIG    1       -1.263   2.859  -2.837  0.00  0.00    +2.560 S 
ATOM     15  O   LIG    1       -1.917   2.487  -4.042  0.00  0.00    -0.950 OA
ATOM     16  O   LIG    1       -1.002   4.219  -2.517  0.00  0.00    -0.950 OA
ENDBRANCH   9  10
BRANCH   9  18
ATOM     17  C   LIG    1       -2.487   4.393   0.328  0.00  0.00    +0.040 C 
ATOM     18  C   LIG    1       -3.579   3.334   0.168  0.00  0.00    -0.020 C 
ATOM     19  C   LIG    1       -4.941   3.952   0.493  0.00  0.00    +0.030 C 
ENDBRANCH   9  18
ENDBRANCH   1   9
BRANCH   5  20
ATOM     20  O   LIG    1       -8.811   2.372  -4.661  0.00  0.00    -0.360 OA
BRANCH  20  21
ATOM     21  C   LIG    1       -9.871   3.326  -4.750  0.00  0.00    +0.140 C 
ATOM     22  C   LIG    1      -10.976   2.821  -5.705  0.00  0.00    +0.020 C 
ATOM     23  C   LIG    1      -11.013   3.879  -6.830  0.00  0.00    +0.200 C 
ATOM     24  O   LIG    1       -9.703   4.485  -6.810  0.00  0.00    -0.370 OA
ATOM     25  C   LIG    1       -9.371   4.630  -5.412  0.00  0.00    +0.190 C 
ENDBRANCH  20  21
ENDBRANCH   5  20
TORSDOF 5
