REMARK  Name = ZINCqH0000003SeP.0
REMARK                            x       y       z     vdW  Elec       q    Type
REMARK                         _______ _______ _______ _____ _____    ______ ____
ROOT
ATOM      1  C   LIG    1        1.217  -0.693  -0.006  0.00  0.00    +0.130 A 
ATOM      2  C   LIG    1        0.009   0.000   0.005  0.00  0.00    +0.050 A 
ATOM      3  C   LIG    1       -0.004   1.379   0.020  0.00  0.00    +0.070 A 
ATOM      4  C   LIG    1        1.189   2.084   0.022  0.00  0.00    +0.000 A 
ATOM      5  O   LIG    1        1.496   3.401   0.035  0.00  0.00    -0.180 OA
ATOM      6  C   LIG    1        2.838   3.518   0.030  0.00  0.00    +0.280 A 
ATOM      7  N   LIG    1        3.392   2.332   0.017  0.00  0.00    -0.450 NA
ATOM      8  C   LIG    1        2.412   1.392   0.011  0.00  0.00    +0.040 A 
ATOM      9  C   LIG    1        2.417  -0.004  -0.004  0.00  0.00    +0.100 A 
ENDROOT
BRANCH   6  10
ATOM     10  C   LIG    1        3.576   4.798   0.040  0.00  0.00    +0.030 A 
ATOM     11  C   LIG    1        4.972   4.801   0.041  0.00  0.00    +0.060 A 
ATOM     12  C   LIG    1        5.656   6.002   0.044  0.00  0.00    +0.120 A 
ATOM     13  C   LIG    1        4.959   7.200   0.058  0.00  0.00    +0.040 A 
ATOM     14  C   LIG    1        3.576   7.202   0.063  0.00  0.00    +0.100 A 
ATOM     15  F   LIG    1        7.007   6.008   0.039  0.00  0.00    -0.120 F 
ATOM     16  C   LIG    1        2.881   6.009   0.054  0.00  0.00    -0.080 A 
ATOM     17 BR   LIG    1        0.990   6.015   0.061  0.00  0.00    -0.010 Br
ENDBRANCH   6  10
BRANCH   1  19
ATOM     18  C   LIG    1        2.170  -2.760  -0.704  0.00  0.00    +0.540 C 
ATOM     19  N   LIG    1        1.218  -2.094  -0.021  0.00  0.00    -0.660 N 
ATOM     20  H   LIG    1        0.532  -2.584   0.459  0.00  0.00    +0.420 HD
ATOM     21  O   LIG    1        3.074  -2.151  -1.235  0.00  0.00    -0.500 OA
BRANCH  18  22
ATOM     22  C   LIG    1        2.111  -4.263  -0.806  0.00  0.00    -0.330 C 
BRANCH  22  23
ATOM     23  S   LIG    1        3.521  -4.858  -1.780  0.00  0.00    +2.450 S 
ATOM     24  O   LIG    1        4.716  -4.577  -1.064  0.00  0.00    -0.910 OA
ATOM     25  O   LIG    1        3.383  -4.385  -3.112  0.00  0.00    -0.910 OA
BRANCH  23  27
ATOM     26  C   LIG    1        4.367  -7.338  -2.563  0.00  0.00    +0.090 C 
ATOM     27  C   LIG    1        3.252  -6.651  -1.772  0.00  0.00    -0.360 C 
ENDBRANCH  23  27
ENDBRANCH  22  23
ENDBRANCH  18  22
ENDBRANCH   1  19
TORSDOF 5
