REMARK  Name = ZINCnE000001D9ee.0
REMARK                            x       y       z     vdW  Elec       q    Type
REMARK                         _______ _______ _______ _____ _____    ______ ____
ROOT
ATOM      1  S   LIG    1        0.085  -4.452   2.378  0.00  0.00    +2.640 S 
ATOM      2  O   LIG    1        1.335  -4.832   1.819  0.00  0.00    -1.040 OA
ATOM      3  O   LIG    1       -1.164  -4.866   1.842  0.00  0.00    -1.030 OA
ENDROOT
BRANCH   1   6
ATOM      4  N   LIG    1        0.804  -5.607   6.030  0.00  0.00    -0.360 N 
ATOM      5  C   LIG    1        1.212  -5.218   4.804  0.00  0.00    +0.340 A 
ATOM      6  C   LIG    1        0.107  -4.986   4.057  0.00  0.00    -0.750 A 
ATOM      7  C   LIG    1       -1.013  -5.251   4.851  0.00  0.00    +0.320 A 
ATOM      8  N   LIG    1       -0.597  -5.623   6.034  0.00  0.00    -0.300 NA
BRANCH   4  10
ATOM      9  C   LIG    1        2.263  -4.680   7.761  0.00  0.00    +0.060 C 
ATOM     10  C   LIG    1        1.674  -5.956   7.157  0.00  0.00    +0.170 C 
ATOM     11  C   LIG    1        2.808  -6.858   6.665  0.00  0.00    +0.060 C 
ATOM     12  C   LIG    1        0.859  -6.695   8.220  0.00  0.00    +0.060 C 
ENDBRANCH   4  10
ENDBRANCH   1   6
BRANCH   1  13
ATOM     13  N   LIG    1        0.062  -2.796   2.390  0.00  0.00    -1.090 NA
BRANCH  13  14
ATOM     14  C   LIG    1        0.042  -2.089   1.186  0.00  0.00    +0.280 A 
ATOM     15  C   LIG    1        0.040  -2.773  -0.023  0.00  0.00    -0.140 A 
ATOM     16  C   LIG    1        0.019  -2.071  -1.212  0.00  0.00    +0.050 A 
ATOM     17  C   LIG    1       -0.006  -0.688  -1.200  0.00  0.00    -0.080 A 
ATOM     18  C   LIG    1        0.002  -0.004   0.002  0.00  0.00    -0.140 A 
ATOM     19  C   LIG    1        0.023  -0.700   1.194  0.00  0.00    -0.020 A 
BRANCH  18  20
ATOM     20  C   LIG    1       -0.018   1.503   0.010  0.00  0.00    +0.510 C 
ATOM     21  F   LIG    1       -0.673   1.954   1.161  0.00  0.00    -0.180 F 
ATOM     22  F   LIG    1       -0.695   1.966  -1.123  0.00  0.00    -0.190 F 
ATOM     23  F   LIG    1        1.294   1.987   0.000  0.00  0.00    -0.180 F 
ENDBRANCH  18  20
ENDBRANCH  13  14
ENDBRANCH   1  13
TORSDOF 5
