REMARK  Name = ZINCqH0000004CY2.2
REMARK                            x       y       z     vdW  Elec       q    Type
REMARK                         _______ _______ _______ _____ _____    ______ ____
ROOT
ATOM      1  C   LIG    1       -4.553  -0.163   2.922  0.00  0.00    +0.520 C 
ATOM      2  N   LIG    1       -5.388  -1.165   3.260  0.00  0.00    -0.670 N 
ATOM      3  H   LIG    1       -5.764  -1.736   2.572  0.00  0.00    +0.410 HD
ATOM      4  O   LIG    1       -4.157   0.609   3.770  0.00  0.00    -0.500 OA
ENDROOT
BRANCH   2   5
ATOM      5  C   LIG    1       -5.714  -1.382   4.606  0.00  0.00    +0.150 A 
ATOM      6  C   LIG    1       -4.775  -1.129   5.596  0.00  0.00    +0.020 A 
ATOM      7  C   LIG    1       -5.096  -1.337   6.924  0.00  0.00    -0.010 A 
ATOM      8  C   LIG    1       -6.352  -1.809   7.269  0.00  0.00    +0.090 A 
ATOM      9  C   LIG    1       -7.294  -2.069   6.277  0.00  0.00    +0.120 A 
ATOM     10  C   LIG    1       -6.974  -1.855   4.947  0.00  0.00    -0.060 A 
BRANCH   9  11
ATOM     11  O   LIG    1       -8.527  -2.533   6.614  0.00  0.00    -0.300 OA
ATOM     12  C   LIG    1       -9.443  -2.777   5.545  0.00  0.00    +0.240 C 
ENDBRANCH   9  11
BRANCH   8  13
ATOM     13  O   LIG    1       -6.665  -2.020   8.576  0.00  0.00    -0.310 OA
ATOM     14  C   LIG    1       -5.650  -1.732   9.540  0.00  0.00    +0.240 C 
ENDBRANCH   8  13
ENDBRANCH   2   5
BRANCH   1  15
ATOM     15  C   LIG    1       -4.109  -0.002   1.491  0.00  0.00    +0.180 C 
ATOM     16  C   LIG    1       -3.082  -1.084   1.150  0.00  0.00    +0.030 C 
BRANCH  15  17
ATOM     17  N   LIG    1       -3.502   1.323   1.312  0.00  0.00    -0.510 NA
ATOM     18  C   LIG    1       -3.418   1.676  -0.111  0.00  0.00    +0.200 C 
BRANCH  17  19
ATOM     19  C   LIG    1       -2.179   1.386   1.949  0.00  0.00    +0.230 C 
BRANCH  19  23
ATOM     20  C   LIG    1       -0.803   5.430   1.988  0.00  0.00    -0.080 A 
ATOM     21  C   LIG    1       -1.546   4.942   3.047  0.00  0.00    +0.000 A 
ATOM     22  C   LIG    1       -1.995   3.635   3.033  0.00  0.00    +0.040 A 
ATOM     23  C   LIG    1       -1.696   2.813   1.962  0.00  0.00    -0.080 A 
ATOM     24  C   LIG    1       -0.956   3.302   0.901  0.00  0.00    +0.010 A 
ATOM     25  C   LIG    1       -0.508   4.610   0.915  0.00  0.00    +0.000 A 
BRANCH  20  27
ATOM     26  C   LIG    1        1.064   6.915   2.665  0.00  0.00    +0.030 C 
ATOM     27  C   LIG    1       -0.315   6.855   2.003  0.00  0.00    +0.050 C 
ENDBRANCH  20  27
ENDBRANCH  19  23
ENDBRANCH  17  19
ENDBRANCH  15  17
ENDBRANCH   1  15
TORSDOF 8
