REMARK  Name = ZINC560000002or3.0
REMARK                            x       y       z     vdW  Elec       q    Type
REMARK                         _______ _______ _______ _____ _____    ______ ____
ROOT
ATOM      1  C   LIG    1       -0.017   1.425   0.010  0.00  0.00    +0.290 C 
ATOM      2  C   LIG    1       -0.757   1.932  -1.230  0.00  0.00    +0.030 C 
ENDROOT
BRANCH   1   4
ATOM      3  C   LIG    1        2.465   2.341  -0.009  0.00  0.00    +0.050 C 
ATOM      4  C   LIG    1        1.364   1.934  -0.001  0.00  0.00    -0.190 C 
ENDBRANCH   1   4
BRANCH   1   5
ATOM      5  O   LIG    1        0.002  -0.004   0.002  0.00  0.00    -0.560 OA
ATOM      6  H   LIG    1       -0.876  -0.409   0.008  0.00  0.00    +0.390 HD
ENDBRANCH   1   5
TORSDOF 2
