REMARK  Name = ZINCrH000004piaA.0
REMARK                            x       y       z     vdW  Elec       q    Type
REMARK                         _______ _______ _______ _____ _____    ______ ____
ROOT
ATOM      1  C   LIG    1        0.174   0.961   2.735  0.00  0.00    +0.140 A 
ATOM      2  N   LIG    1        1.240   0.221   2.533  0.00  0.00    -0.290 NA
ATOM      3  N   LIG    1        1.752  -0.124   3.660  0.00  0.00    -0.280 NA
ATOM      4  C   LIG    1        1.046   0.363   4.640  0.00  0.00    +0.220 A 
ATOM      5  N   LIG    1        0.015   1.071   4.087  0.00  0.00    -0.450 N 
ENDROOT
BRANCH   4   6
ATOM      6  C   LIG    1        1.315   0.180   6.112  0.00  0.00    +0.030 C 
ATOM      7  C   LIG    1        2.637  -0.479   6.512  0.00  0.00    +0.070 C 
ATOM      8  C   LIG    1        1.323  -1.250   6.655  0.00  0.00    +0.060 C 
ENDBRANCH   4   6
BRANCH   1   9
ATOM      9  S   LIG    1       -0.860   1.669   1.497  0.00  0.00    +0.080 S 
BRANCH   9  10
ATOM     10  C   LIG    1       -0.013   1.086   0.008  0.00  0.00    +0.110 C 
BRANCH  10  13
ATOM     11  N   LIG    1       -0.288   1.272  -2.443  0.00  0.00    -0.720 N 
ATOM     12  H   LIG    1        0.507   0.726  -2.543  0.00  0.00    +0.410 HD
ATOM     13  C   LIG    1       -0.742   1.585  -1.213  0.00  0.00    +0.540 C 
ATOM     14  O   LIG    1       -1.736   2.268  -1.088  0.00  0.00    -0.520 OA
BRANCH  11  16
ATOM     15  C   LIG    1       -0.514   3.169  -3.971  0.00  0.00    +0.030 C 
ATOM     16  C   LIG    1       -0.997   1.758  -3.630  0.00  0.00    +0.350 C 
BRANCH  16  17
ATOM     17  C   LIG    1       -0.721   0.838  -4.791  0.00  0.00    -0.030 A 
ATOM     18  C   LIG    1       -1.617   0.444  -5.713  0.00  0.00    -0.040 A 
ATOM     19  C   LIG    1       -0.934  -0.409  -6.611  0.00  0.00    -0.060 A 
ATOM     20  C   LIG    1        0.340  -0.485  -6.183  0.00  0.00    +0.180 A 
ATOM     21  O   LIG    1        0.464   0.277  -5.084  0.00  0.00    -0.170 OA
ENDBRANCH  16  17
ENDBRANCH  11  16
ENDBRANCH  10  13
ENDBRANCH   9  10
ENDBRANCH   1   9
BRANCH   5  22
ATOM     22  C   LIG    1       -1.040   1.798   4.797  0.00  0.00    +0.370 C 
BRANCH  22  23
ATOM     23  C   LIG    1       -2.208   0.877   5.041  0.00  0.00    -0.120 A 
ATOM     24  C   LIG    1       -3.224   0.787   4.108  0.00  0.00    +0.040 A 
ATOM     25  C   LIG    1       -4.292  -0.062   4.330  0.00  0.00    +0.010 A 
ATOM     26  C   LIG    1       -4.349  -0.813   5.489  0.00  0.00    +0.020 A 
ATOM     27  C   LIG    1       -3.336  -0.719   6.424  0.00  0.00    +0.010 A 
ATOM     28  C   LIG    1       -2.265   0.126   6.200  0.00  0.00    +0.030 A 
ENDBRANCH  22  23
ENDBRANCH   5  22
TORSDOF 8
