REMARK  Name = ZINCrD000000fHCY.0
REMARK                            x       y       z     vdW  Elec       q    Type
REMARK                         _______ _______ _______ _____ _____    ______ ____
ROOT
ATOM      1  C   LIG    1       -0.834  -0.531  -1.085  0.00  0.00    +0.050 A 
ATOM      2  C   LIG    1       -0.043   0.025  -0.139  0.00  0.00    +0.250 A 
ATOM      3  N   LIG    1       -0.084  -0.735   1.004  0.00  0.00    -0.480 N 
ATOM      4  C   LIG    1       -0.924  -1.813   0.820  0.00  0.00    +0.120 A 
ATOM      5  C   LIG    1       -1.316  -2.868   1.636  0.00  0.00    -0.090 A 
ATOM      6  C   LIG    1       -2.187  -3.821   1.153  0.00  0.00    +0.030 A 
ATOM      7  C   LIG    1       -2.680  -3.739  -0.141  0.00  0.00    -0.010 A 
ATOM      8  C   LIG    1       -2.307  -2.711  -0.961  0.00  0.00    +0.050 A 
ATOM      9  C   LIG    1       -0.790  -2.969   3.045  0.00  0.00    +0.090 C 
ATOM     10  C   LIG    1        0.652  -0.442   2.236  0.00  0.00    +0.320 C 
ATOM     11  C   LIG    1       -1.426  -1.735  -0.493  0.00  0.00    -0.100 A 
ENDROOT
BRANCH   1  14
ATOM     12  C   LIG    1       -1.452   1.802  -3.989  0.00  0.00    +0.090 C 
ATOM     13  C   LIG    1       -1.117   1.284  -2.614  0.00  0.00    +0.490 C 
ATOM     14  N   LIG    1       -1.048  -0.045  -2.392  0.00  0.00    -0.650 N 
ATOM     15  H   LIG    1       -1.147  -0.666  -3.130  0.00  0.00    +0.410 HD
ATOM     16  O   LIG    1       -0.910   2.063  -1.707  0.00  0.00    -0.500 OA
ENDBRANCH   1  14
BRANCH   2  17
ATOM     17  O   LIG    1        0.686   1.161  -0.297  0.00  0.00    -0.270 OA
BRANCH  17  18
ATOM     18  C   LIG    1        1.986   1.022  -0.874  0.00  0.00    +0.310 C 
BRANCH  18  19
ATOM     19  C   LIG    1        2.654   2.371  -0.936  0.00  0.00    +0.170 A 
ATOM     20  N   LIG    1        3.485   2.867  -0.058  0.00  0.00    -0.270 NA
ATOM     21  N   LIG    1        3.866   4.038  -0.433  0.00  0.00    -0.290 NA
ATOM     22  C   LIG    1        3.299   4.338  -1.567  0.00  0.00    +0.190 A 
ATOM     23  C   LIG    1        3.480   5.600  -2.370  0.00  0.00    +0.150 C 
ATOM     24  C   LIG    1        2.105   6.121  -2.799  0.00  0.00    +0.020 C 
ATOM     25  C   LIG    1        1.708   5.482  -4.127  0.00  0.00    +0.030 C 
ATOM     26  C   LIG    1        2.251   4.057  -4.219  0.00  0.00    +0.030 C 
ATOM     27  C   LIG    1        1.654   3.204  -3.096  0.00  0.00    +0.280 C 
ATOM     28  N   LIG    1        2.512   3.293  -1.914  0.00  0.00    -0.450 N 
ENDBRANCH  18  19
ENDBRANCH  17  18
ENDBRANCH   2  17
TORSDOF 4
