REMARK  Name = ZINCvU0000000Fxo.0
REMARK                            x       y       z     vdW  Elec       q    Type
REMARK                         _______ _______ _______ _____ _____    ______ ____
ROOT
ATOM      1  C   LIG    1       -0.380  -2.376  -0.606  0.00  0.00    +0.170 A 
ATOM      2  N   LIG    1        0.905  -2.193  -0.365  0.00  0.00    -0.320 NA
ATOM      3  N   LIG    1        1.143  -0.823  -0.211  0.00  0.00    -0.340 N 
ATOM      4  C   LIG    1        2.282  -0.106   0.049  0.00  0.00    +0.490 A 
ATOM      5  C   LIG    1        2.200   1.256   0.146  0.00  0.00    -0.180 A 
ATOM      6  C   LIG    1        0.964   1.882  -0.020  0.00  0.00    +0.250 A 
ATOM      7  N   LIG    1       -0.113   1.170  -0.269  0.00  0.00    -0.510 NA
ATOM      8  C   LIG    1        0.864   3.382   0.085  0.00  0.00    +0.150 C 
ATOM      9  C   LIG    1       -0.051  -0.167  -0.367  0.00  0.00    +0.310 A 
ATOM     10  C   LIG    1       -1.016  -1.131  -0.616  0.00  0.00    -0.230 A 
ATOM     11  C   LIG    1       -2.483  -0.881  -0.854  0.00  0.00    +0.140 C 
ENDROOT
BRANCH   1  17
ATOM     12  C   LIG    1       -0.860  -7.219   0.510  0.00  0.00    +0.090 C 
ATOM     13  C   LIG    1       -1.274  -6.015  -0.296  0.00  0.00    -0.090 A 
ATOM     14  C   LIG    1       -2.273  -6.130  -1.246  0.00  0.00    +0.020 A 
ATOM     15  C   LIG    1       -2.658  -5.029  -1.989  0.00  0.00    +0.010 A 
ATOM     16  C   LIG    1       -2.047  -3.808  -1.785  0.00  0.00    +0.030 A 
ATOM     17  C   LIG    1       -1.041  -3.686  -0.830  0.00  0.00    -0.020 A 
ATOM     18  C   LIG    1       -0.653  -4.800  -0.088  0.00  0.00    +0.030 A 
ENDBRANCH   1  17
BRANCH   4  19
ATOM     19  N   LIG    1        3.491  -0.748   0.208  0.00  0.00    -0.600 N 
ATOM     20  C   LIG    1        4.742   0.017   0.328  0.00  0.00    +0.310 C 
ATOM     21  C   LIG    1        5.491  -0.476   1.576  0.00  0.00    +0.190 C 
ATOM     22  N   LIG    1        5.660  -1.933   1.496  0.00  0.00    -0.490 N 
ATOM     23  C   LIG    1        4.362  -2.622   1.503  0.00  0.00    +0.190 C 
ATOM     24  C   LIG    1        3.566  -2.216   0.258  0.00  0.00    +0.310 C 
BRANCH  22  25
ATOM     25  C   LIG    1        6.480  -2.400   2.527  0.00  0.00    +0.110 A 
ATOM     26  C   LIG    1        6.019  -3.386   3.390  0.00  0.00    -0.020 A 
ATOM     27  C   LIG    1        6.833  -3.850   4.404  0.00  0.00    +0.050 A 
ATOM     28  C   LIG    1        8.103  -3.325   4.568  0.00  0.00    -0.060 A 
ATOM     29  C   LIG    1        8.563  -2.338   3.713  0.00  0.00    +0.060 A 
ATOM     30 CL   LIG    1        9.122  -3.905   5.849  0.00  0.00    -0.070 Cl
ATOM     31  C   LIG    1        7.755  -1.875   2.694  0.00  0.00    +0.010 A 
ENDBRANCH  22  25
ENDBRANCH   4  19
TORSDOF 3
