REMARK  Name = ZINCrD000000AeDq.0
REMARK                            x       y       z     vdW  Elec       q    Type
REMARK                         _______ _______ _______ _____ _____    ______ ____
ROOT
ATOM      1  O   LIG    1       -1.736   2.268  -1.088  0.00  0.00    -0.500 OA
ATOM      2  C   LIG    1       -0.742   1.585  -1.213  0.00  0.00    +0.520 C 
ATOM      3  N   LIG    1       -0.288   1.272  -2.443  0.00  0.00    -0.620 N 
ATOM      4  H   LIG    1        0.507   0.726  -2.543  0.00  0.00    +0.430 HD
ENDROOT
BRANCH   3   5
ATOM      5  C   LIG    1       -0.961   1.733  -3.569  0.00  0.00    +0.270 A 
ATOM      6  N   LIG    1       -0.617   1.495  -4.796  0.00  0.00    -0.500 NA
ATOM      7  C   LIG    1       -1.379   2.017  -5.747  0.00  0.00    +0.130 A 
ATOM      8  C   LIG    1       -2.428   2.739  -5.313  0.00  0.00    -0.110 A 
ATOM      9  S   LIG    1       -2.416   2.723  -3.551  0.00  0.00    +0.210 S 
BRANCH   7  10
ATOM     10  C   LIG    1       -1.095   1.820  -7.189  0.00  0.00    -0.020 A 
ATOM     11  C   LIG    1       -1.930   2.385  -8.150  0.00  0.00    +0.020 A 
ATOM     12  C   LIG    1       -1.657   2.203  -9.491  0.00  0.00    +0.010 A 
ATOM     13  C   LIG    1       -0.564   1.451  -9.881  0.00  0.00    +0.010 A 
ATOM     14  C   LIG    1        0.266   0.883  -8.931  0.00  0.00    +0.010 A 
ATOM     15  C   LIG    1        0.006   1.063  -7.588  0.00  0.00    +0.040 A 
ENDBRANCH   7  10
ENDBRANCH   3   5
BRANCH   2  16
ATOM     16  C   LIG    1       -0.013   1.086   0.008  0.00  0.00    +0.070 C 
BRANCH  16  17
ATOM     17  C   LIG    1       -0.729   1.579   1.267  0.00  0.00    +0.320 C 
BRANCH  17  18
ATOM     18  N   LIG    1       -0.020   1.094   2.454  0.00  0.00    -0.600 N 
ATOM     19  C   LIG    1       -0.307  -0.088   3.063  0.00  0.00    +0.540 C 
ATOM     20  C   LIG    1        0.403  -0.059   4.378  0.00  0.00    +0.000 C 
ATOM     21  C   LIG    1        0.967  -1.342   4.950  0.00  0.00    +0.060 C 
ATOM     22  C   LIG    1        1.657  -0.956   6.274  0.00  0.00    +0.020 C 
ATOM     23  C   LIG    1        2.737   0.100   6.065  0.00  0.00    +0.020 C 
ATOM     24  C   LIG    1        2.205   1.331   5.308  0.00  0.00    +0.060 C 
ATOM     25  C   LIG    1        1.631   0.825   4.006  0.00  0.00    -0.010 C 
ATOM     26  O   LIG    1       -0.997  -0.985   2.628  0.00  0.00    -0.460 OA
ATOM     27  C   LIG    1        0.985   1.784   3.058  0.00  0.00    +0.540 C 
ATOM     28  O   LIG    1        1.294   2.940   2.865  0.00  0.00    -0.460 OA
ENDBRANCH  17  18
ENDBRANCH  16  17
ENDBRANCH   2  16
TORSDOF 5
