REMARK  Name = ZINCrD0000075eFK.0
REMARK                            x       y       z     vdW  Elec       q    Type
REMARK                         _______ _______ _______ _____ _____    ______ ____
ROOT
ATOM      1  C   LIG    1        3.171   0.166  -0.070  0.00  0.00    +0.600 C 
ATOM      2  N   LIG    1        4.510   0.036   0.007  0.00  0.00    -0.720 N 
ATOM      3  H   LIG    1        5.065   0.817   0.159  0.00  0.00    +0.410 HD
ATOM      4  O   LIG    1        2.469  -0.824  -0.165  0.00  0.00    -0.510 OA
ENDROOT
BRANCH   1  14
ATOM      5  C   LIG    1        2.693   1.986  -2.487  0.00  0.00    +0.380 C 
ATOM      6  N   LIG    1        2.341   2.318  -1.104  0.00  0.00    -0.220 N 
ATOM      7  N   LIG    1        1.788   3.421  -0.745  0.00  0.00    -0.280 NA
ATOM      8  C   LIG    1        1.583   3.455   0.560  0.00  0.00    +0.060 A 
ATOM      9  C   LIG    1        1.030   4.383   1.465  0.00  0.00    +0.060 A 
ATOM     10  C   LIG    1        0.978   4.078   2.788  0.00  0.00    +0.030 A 
ATOM     11  C   LIG    1        1.452   2.863   3.283  0.00  0.00    +0.010 A 
ATOM     12  C   LIG    1        2.003   1.927   2.463  0.00  0.00    +0.050 A 
ATOM     13  C   LIG    1        2.087   2.178   1.088  0.00  0.00    -0.120 A 
ATOM     14  C   LIG    1        2.561   1.496  -0.040  0.00  0.00    -0.030 A 
ENDBRANCH   1  14
BRANCH   2  15
ATOM     15  C   LIG    1        5.128  -1.284  -0.140  0.00  0.00    +0.270 C 
BRANCH  15  16
ATOM     16  C   LIG    1        6.647  -1.153  -0.012  0.00  0.00    +0.130 C 
BRANCH  16  17
ATOM     17  C   LIG    1        7.283  -2.511  -0.163  0.00  0.00    -0.010 A 
ATOM     18  C   LIG    1        8.244  -2.842  -1.044  0.00  0.00    +0.160 A 
ATOM     19  O   LIG    1        8.532  -4.145  -0.851  0.00  0.00    -0.190 OA
ATOM     20  C   LIG    1        7.747  -4.594   0.143  0.00  0.00    +0.240 A 
ATOM     21  N   LIG    1        6.996  -3.603   0.562  0.00  0.00    -0.460 NA
BRANCH  20  22
ATOM     22  C   LIG    1        7.735  -5.971   0.679  0.00  0.00    -0.030 A 
ATOM     23  C   LIG    1        6.871  -6.310   1.721  0.00  0.00    +0.110 A 
ATOM     24  C   LIG    1        6.861  -7.598   2.214  0.00  0.00    +0.000 A 
ATOM     25  C   LIG    1        7.715  -8.553   1.683  0.00  0.00    +0.120 A 
ATOM     26  C   LIG    1        8.578  -8.220   0.651  0.00  0.00    +0.000 A 
ATOM     27  F   LIG    1        7.705  -9.812   2.173  0.00  0.00    -0.130 F 
ATOM     28  C   LIG    1        8.593  -6.937   0.147  0.00  0.00    +0.080 A 
ENDBRANCH  20  22
ENDBRANCH  16  17
ENDBRANCH  15  16
ENDBRANCH   2  15
TORSDOF 5
