REMARK  Name = ZINC550000002BQs.0
REMARK                            x       y       z     vdW  Elec       q    Type
REMARK                         _______ _______ _______ _____ _____    ______ ____
ROOT
ATOM      1  N   LIG    1       -0.012   1.005   0.008  0.00  0.00    -0.630 N 
ATOM      2  H   LIG    1       -0.500   1.339  -0.810  0.00  0.00    +0.440 HD
ATOM      3  H   LIG    1        0.935   1.354   0.000  0.00  0.00    +0.440 HD
ATOM      4  H   LIG    1        0.002  -0.004   0.002  0.00  0.00    +0.440 HD
ENDROOT
BRANCH   1   5
ATOM      5  C   LIG    1       -0.699   1.479   1.216  0.00  0.00    +0.130 C 
ATOM      6  C   LIG    1       -0.343   2.925   1.608  0.00  0.00    +0.270 C 
ATOM      7  O   LIG    1       -0.269   2.418   2.959  0.00  0.00    -0.340 OA
ATOM      8  C   LIG    1       -0.005   1.068   2.528  0.00  0.00    +0.270 C 
ENDBRANCH   1   5
TORSDOF 1
