REMARK  Name = ZINCrg00000IZvNW.0
REMARK                            x       y       z     vdW  Elec       q    Type
REMARK                         _______ _______ _______ _____ _____    ______ ____
ROOT
ATOM      1  N   LIG    1        0.819   0.213   2.848  0.00  0.00    -1.120 NA
ATOM      2  H   LIG    1        1.252  -0.631   2.643  0.00  0.00    +0.420 HD
ENDROOT
BRANCH   1   3
ATOM      3  C   LIG    1        1.586   1.299   3.463  0.00  0.00    +0.240 C 
ATOM      4  C   LIG    1        2.300   2.100   2.373  0.00  0.00    +0.000 C 
ATOM      5  C   LIG    1        3.073   3.256   3.016  0.00  0.00    +0.290 C 
ATOM      6  N   LIG    1        3.967   2.711   4.047  0.00  0.00    -0.570 N 
ATOM      7  C   LIG    1        3.397   1.851   5.093  0.00  0.00    +0.290 C 
ATOM      8  C   LIG    1        2.621   0.711   4.426  0.00  0.00    +0.030 C 
BRANCH   6   9
ATOM      9  C   LIG    1        5.324   3.003   4.033  0.00  0.00    +0.350 A 
ATOM     10  N   LIG    1        5.856   3.652   3.019  0.00  0.00    -0.510 NA
ATOM     11  C   LIG    1        7.158   3.936   2.999  0.00  0.00    +0.190 A 
ATOM     12  C   LIG    1        7.979   3.573   4.007  0.00  0.00    +0.160 A 
ATOM     13  N   LIG    1        7.501   2.897   5.091  0.00  0.00    -0.480 N 
ATOM     14  C   LIG    1        8.401   2.508   6.179  0.00  0.00    +0.320 C 
ATOM     15  C   LIG    1        6.184   2.597   5.150  0.00  0.00    +0.480 A 
ATOM     16  O   LIG    1        5.723   1.999   6.107  0.00  0.00    -0.520 OA
ENDBRANCH   6   9
ENDBRANCH   1   3
BRANCH   1  17
ATOM     17  S   LIG    1       -0.786   0.425   2.504  0.00  0.00    +2.640 S 
ATOM     18  O   LIG    1       -1.194  -0.820   1.952  0.00  0.00    -0.940 OA
ATOM     19  O   LIG    1       -1.345   0.905   3.719  0.00  0.00    -0.950 OA
BRANCH  17  24
ATOM     20  C   LIG    1       -2.259   1.999   0.787  0.00  0.00    +0.190 C 
ATOM     21  C   LIG    1       -2.322   1.684  -0.722  0.00  0.00    +0.020 C 
ATOM     22  C   LIG    1       -0.857   1.833  -1.203  0.00  0.00    +0.030 C 
ATOM     23  C   LIG    1       -0.048   1.247  -0.019  0.00  0.00    +0.070 C 
ATOM     24  C   LIG    1       -0.810   1.721   1.236  0.00  0.00    -0.460 C 
BRANCH  20  25
ATOM     25  O   LIG    1       -3.164   1.155   1.501  0.00  0.00    -0.400 OA
BRANCH  25  27
ATOM     26  C   LIG    1       -5.502   0.589   1.731  0.00  0.00    +0.050 C 
ATOM     27  C   LIG    1       -4.467   1.715   1.674  0.00  0.00    +0.160 C 
ATOM     28  C   LIG    1       -4.510   2.514   2.978  0.00  0.00    +0.020 C 
ENDBRANCH  25  27
ENDBRANCH  20  25
ENDBRANCH  17  24
ENDBRANCH   1  17
TORSDOF 6
