REMARK  Name = ZINCvU00000005aW.0
REMARK                            x       y       z     vdW  Elec       q    Type
REMARK                         _______ _______ _______ _____ _____    ______ ____
ROOT
ATOM      1  C   LIG    1        1.708   2.135  -0.003  0.00  0.00    +0.360 A 
ATOM      2  N   LIG    1        2.537   1.121  -0.016  0.00  0.00    -0.530 NA
ATOM      3  C   LIG    1        3.879   1.302  -0.028  0.00  0.00    +0.170 A 
ATOM      4  C   LIG    1        4.763   0.220  -0.044  0.00  0.00    +0.030 A 
ATOM      5  C   LIG    1        6.120   0.449  -0.056  0.00  0.00    +0.070 A 
ATOM      6  C   LIG    1        6.624   1.743  -0.054  0.00  0.00    -0.010 A 
ATOM      7  C   LIG    1        5.773   2.827  -0.040  0.00  0.00    +0.100 A 
ATOM      8  C   LIG    1        4.395   2.618  -0.027  0.00  0.00    -0.200 A 
ATOM      9  C   LIG    1        3.443   3.737  -0.012  0.00  0.00    +0.560 A 
ATOM     10  O   LIG    1        3.826   4.892  -0.009  0.00  0.00    -0.500 OA
ATOM     11  N   LIG    1        2.123   3.436  -0.005  0.00  0.00    -0.520 N 
ENDROOT
BRANCH   1  12
ATOM     12  S   LIG    1       -0.022   1.806   0.012  0.00  0.00    +0.050 S 
BRANCH  12  13
ATOM     13  C   LIG    1        0.002  -0.004   0.002  0.00  0.00    +0.110 C 
BRANCH  13  14
ATOM     14  C   LIG    1       -1.412  -0.526   0.013  0.00  0.00    +0.420 C 
ATOM     15  O   LIG    1       -2.344   0.250   0.026  0.00  0.00    -0.440 OA
BRANCH  14  19
ATOM     16  C   LIG    1       -2.130  -4.706  -0.003  0.00  0.00    -0.040 A 
ATOM     17  C   LIG    1       -3.197  -3.824   0.012  0.00  0.00    +0.000 A 
ATOM     18  C   LIG    1       -2.972  -2.464   0.017  0.00  0.00    +0.090 A 
ATOM     19  C   LIG    1       -1.661  -1.976   0.007  0.00  0.00    -0.170 A 
ATOM     20  C   LIG    1       -0.589  -2.873  -0.014  0.00  0.00    +0.060 A 
ATOM     21  C   LIG    1       -0.830  -4.231  -0.014  0.00  0.00    +0.000 A 
BRANCH  16  23
ATOM     22  C   LIG    1       -2.486  -6.686  -1.453  0.00  0.00    +0.030 C 
ATOM     23  C   LIG    1       -2.385  -6.191  -0.009  0.00  0.00    +0.070 C 
ENDBRANCH  16  23
ENDBRANCH  14  19
ENDBRANCH  13  14
ENDBRANCH  12  13
ENDBRANCH   1  12
BRANCH  11  24
ATOM     24  C   LIG    1        1.132   4.515   0.005  0.00  0.00    +0.360 C 
BRANCH  24  25
ATOM     25  C   LIG    1        0.805   4.884   1.429  0.00  0.00    -0.130 A 
ATOM     26  C   LIG    1       -0.230   4.247   2.087  0.00  0.00    +0.040 A 
ATOM     27  C   LIG    1       -0.527   4.582   3.395  0.00  0.00    +0.010 A 
ATOM     28  C   LIG    1        0.205   5.561   4.041  0.00  0.00    -0.070 A 
ATOM     29  C   LIG    1        1.237   6.201   3.381  0.00  0.00    -0.010 A 
ATOM     30  C   LIG    1       -0.122   5.929   5.465  0.00  0.00    +0.090 C 
ATOM     31  C   LIG    1        1.537   5.863   2.075  0.00  0.00    +0.040 A 
ENDBRANCH  24  25
ENDBRANCH  11  24
TORSDOF 7
