REMARK  Name = ZINCrD00000F5LJ2.0
REMARK                            x       y       z     vdW  Elec       q    Type
REMARK                         _______ _______ _______ _____ _____    ______ ____
ROOT
ATOM      1  O   LIG    1       -4.943  -0.992   5.812  0.00  0.00    -0.540 OA
ATOM      2  C   LIG    1       -5.608   0.018   5.672  0.00  0.00    +0.550 C 
ATOM      3  N   LIG    1       -5.158   1.019   4.890  0.00  0.00    -0.730 N 
ATOM      4  H   LIG    1       -5.688   1.823   4.778  0.00  0.00    +0.400 HD
ENDROOT
BRANCH   2   5
ATOM      5  C   LIG    1       -6.898   0.145   6.354  0.00  0.00    -0.080 C 
ATOM      6  C   LIG    1       -7.348  -0.856   7.136  0.00  0.00    +0.120 C 
BRANCH   6   7
ATOM      7  C   LIG    1       -8.645  -0.728   7.821  0.00  0.00    -0.080 A 
ATOM      8  C   LIG    1       -9.412   0.430   7.663  0.00  0.00    +0.070 A 
ATOM      9  C   LIG    1      -10.626   0.542   8.307  0.00  0.00    +0.020 A 
ATOM     10  C   LIG    1      -11.086  -0.489   9.109  0.00  0.00    +0.080 A 
ATOM     11  C   LIG    1      -10.332  -1.638   9.270  0.00  0.00    -0.180 A 
ATOM     12  C   LIG    1       -9.118  -1.767   8.629  0.00  0.00    +0.100 A 
BRANCH  11  13
ATOM     13  C   LIG    1      -10.842  -2.755  10.145  0.00  0.00    +0.510 C 
ATOM     14  F   LIG    1       -9.936  -2.983  11.186  0.00  0.00    -0.170 F 
ATOM     15  F   LIG    1      -10.979  -3.920   9.382  0.00  0.00    -0.170 F 
ATOM     16  F   LIG    1      -12.085  -2.398  10.678  0.00  0.00    -0.180 F 
ENDBRANCH  11  13
ENDBRANCH   6   7
ENDBRANCH   2   5
BRANCH   3  17
ATOM     17  C   LIG    1       -3.867   0.891   4.208  0.00  0.00    +0.280 C 
BRANCH  17  18
ATOM     18  C   LIG    1       -3.595   2.156   3.391  0.00  0.00    +0.160 C 
BRANCH  18  19
ATOM     19  C   LIG    1       -2.268   2.026   2.690  0.00  0.00    +0.170 A 
ATOM     20  N   LIG    1       -1.103   2.390   3.158  0.00  0.00    -0.280 NA
ATOM     21  N   LIG    1       -0.186   2.124   2.296  0.00  0.00    -0.290 NA
ATOM     22  C   LIG    1       -0.721   1.573   1.245  0.00  0.00    +0.190 A 
ATOM     23  C   LIG    1       -0.013   1.086   0.008  0.00  0.00    +0.150 C 
ATOM     24  C   LIG    1       -0.756   1.595  -1.230  0.00  0.00    +0.020 C 
ATOM     25  C   LIG    1       -1.846   0.599  -1.617  0.00  0.00    +0.020 C 
ATOM     26  C   LIG    1       -2.428  -0.068  -0.371  0.00  0.00    +0.030 C 
ATOM     27  C   LIG    1       -3.065   0.992   0.532  0.00  0.00    +0.290 C 
ATOM     28  N   LIG    1       -2.058   1.509   1.459  0.00  0.00    -0.470 N 
ENDBRANCH  18  19
ENDBRANCH  17  18
ENDBRANCH   3  17
TORSDOF 6
