REMARK  Name = ZINCrH000004uF2o.0
REMARK                            x       y       z     vdW  Elec       q    Type
REMARK                         _______ _______ _______ _____ _____    ______ ____
ROOT
ATOM      1  O   LIG    1        0.002  -0.004   0.002  0.00  0.00    -0.540 OA
ATOM      2  C   LIG    1       -0.014   1.212   0.009  0.00  0.00    +0.560 C 
ATOM      3  N   LIG    1       -1.191   1.870   0.018  0.00  0.00    -0.720 N 
ATOM      4  H   LIG    1       -1.204   2.840   0.023  0.00  0.00    +0.400 HD
ENDROOT
BRANCH   2   5
ATOM      5  C   LIG    1        1.253   1.967   0.001  0.00  0.00    -0.170 A 
ATOM      6  C   LIG    1        1.236   3.365   0.003  0.00  0.00    +0.070 A 
ATOM      7  C   LIG    1        2.420   4.066   0.000  0.00  0.00    -0.050 A 
ATOM      8  C   LIG    1        3.634   3.385  -0.015  0.00  0.00    +0.140 A 
ATOM      9  C   LIG    1        3.654   1.993  -0.023  0.00  0.00    -0.020 A 
ATOM     10  C   LIG    1        2.474   1.286  -0.015  0.00  0.00    +0.110 A 
BRANCH   8  11
ATOM     11  N   LIG    1        4.828   4.096  -0.023  0.00  0.00    -0.490 N 
ATOM     12  C   LIG    1        5.686   3.697   1.100  0.00  0.00    +0.190 C 
ATOM     13  C   LIG    1        7.045   4.391   0.977  0.00  0.00    +0.020 C 
ATOM     14  C   LIG    1        6.840   5.908   0.981  0.00  0.00    +0.010 C 
ATOM     15  C   LIG    1        5.905   6.292  -0.169  0.00  0.00    +0.020 C 
ATOM     16  C   LIG    1        4.579   5.543  -0.013  0.00  0.00    +0.180 C 
ENDBRANCH   8  11
ENDBRANCH   2   5
BRANCH   3  17
ATOM     17  C   LIG    1       -2.449   1.120   0.020  0.00  0.00    +0.330 C 
BRANCH  17  18
ATOM     18  C   LIG    1       -3.608   2.084   0.030  0.00  0.00    -0.110 A 
ATOM     19  C   LIG    1       -4.269   2.362   1.213  0.00  0.00    +0.050 A 
ATOM     20  C   LIG    1       -5.333   3.245   1.225  0.00  0.00    +0.030 A 
ATOM     21  C   LIG    1       -5.742   3.857   0.054  0.00  0.00    +0.030 A 
ATOM     22  C   LIG    1       -5.082   3.582  -1.132  0.00  0.00    +0.060 A 
ATOM     23  O   LIG    1       -5.474   4.180  -2.294  0.00  0.00    -0.320 OA
ATOM     24  C   LIG    1       -6.064   3.321  -3.271  0.00  0.00    +0.230 C 
ATOM     25  C   LIG    1       -4.993   2.644  -4.112  0.00  0.00    -0.010 C 
ATOM     26  C   LIG    1       -4.122   1.704  -3.292  0.00  0.00    +0.230 C 
ATOM     27  O   LIG    1       -3.371   2.430  -2.317  0.00  0.00    -0.310 OA
ATOM     28  C   LIG    1       -4.011   2.699  -1.143  0.00  0.00    +0.080 A 
ENDBRANCH  17  18
ENDBRANCH   3  17
TORSDOF 4
