REMARK  Name = ZINCqH0000007uRG.0
REMARK                            x       y       z     vdW  Elec       q    Type
REMARK                         _______ _______ _______ _____ _____    ______ ____
ROOT
ATOM      1  N   LIG    1       -0.074  -2.781  -0.012  0.00  0.00    -0.660 N 
ATOM      2  H   LIG    1        0.783  -2.334  -0.098  0.00  0.00    +0.420 HD
ATOM      3  C   LIG    1       -0.127  -4.124   0.083  0.00  0.00    +0.520 C 
ATOM      4  O   LIG    1       -1.200  -4.690   0.090  0.00  0.00    -0.490 OA
ENDROOT
BRANCH   1  10
ATOM      5  C   LIG    1       -1.296  -0.768  -0.577  0.00  0.00    +0.150 A 
ATOM      6  C   LIG    1       -2.466  -0.027  -0.543  0.00  0.00    -0.030 A 
ATOM      7  C   LIG    1       -3.594  -0.544   0.067  0.00  0.00    +0.130 A 
ATOM      8  C   LIG    1       -3.556  -1.795   0.653  0.00  0.00    -0.060 A 
ATOM      9  C   LIG    1       -2.390  -2.539   0.629  0.00  0.00    +0.140 A 
ATOM     10  C   LIG    1       -1.256  -2.029   0.014  0.00  0.00    +0.130 A 
BRANCH   8  11
ATOM     11  N   LIG    1       -4.765  -2.340   1.310  0.00  0.00    +0.030 N 
ATOM     12  O   LIG    1       -5.793  -1.687   1.333  0.00  0.00    -0.160 OA
ATOM     13  O   LIG    1       -4.733  -3.442   1.828  0.00  0.00    -0.150 OA
ENDBRANCH   8  11
BRANCH   5  15
ATOM     14  C   LIG    1       -0.301   1.035  -1.765  0.00  0.00    +0.250 C 
ATOM     15  O   LIG    1       -0.187  -0.264  -1.181  0.00  0.00    -0.310 OA
ENDBRANCH   5  15
ENDBRANCH   1  10
BRANCH   3  16
ATOM     16  C   LIG    1        1.147  -4.923   0.181  0.00  0.00    +0.190 C 
ATOM     17  C   LIG    1        2.002  -4.674  -1.063  0.00  0.00    +0.030 C 
BRANCH  16  18
ATOM     18  N   LIG    1        0.822  -6.353   0.274  0.00  0.00    -0.510 NA
ATOM     19  C   LIG    1        0.202  -6.834  -0.968  0.00  0.00    +0.210 C 
BRANCH  18  20
ATOM     20  C   LIG    1        2.015  -7.143   0.607  0.00  0.00    +0.230 C 
BRANCH  20  21
ATOM     21  C   LIG    1        1.606  -8.556   0.934  0.00  0.00    -0.070 A 
ATOM     22  C   LIG    1        1.302  -8.904   2.237  0.00  0.00    +0.040 A 
ATOM     23  C   LIG    1        0.921 -10.199   2.537  0.00  0.00    +0.020 A 
ATOM     24  C   LIG    1        0.855 -11.149   1.535  0.00  0.00    +0.020 A 
ATOM     25  C   LIG    1        1.165 -10.803   0.232  0.00  0.00    -0.040 A 
ATOM     26 CL   LIG    1        1.081 -11.996  -1.026  0.00  0.00    -0.070 Cl
ATOM     27  C   LIG    1        1.540  -9.506  -0.068  0.00  0.00    +0.030 A 
ENDBRANCH  20  21
ENDBRANCH  18  20
ENDBRANCH  16  18
ENDBRANCH   3  16
TORSDOF 7
