REMARK  Name = ZINCrg000000swA7.0
REMARK                            x       y       z     vdW  Elec       q    Type
REMARK                         _______ _______ _______ _____ _____    ______ ____
ROOT
ATOM      1  C   LIG    1        2.877   4.203  -1.446  0.00  0.00    +0.280 C 
ENDROOT
BRANCH   1   2
ATOM      2  C   LIG    1        4.104   5.077  -1.455  0.00  0.00    +0.520 C 
ATOM      3  N   LIG    1        4.661   5.446  -2.626  0.00  0.00    -0.600 N 
ATOM      4  C   LIG    1        4.086   4.997  -3.902  0.00  0.00    +0.250 C 
ATOM      5  C   LIG    1        5.180   4.329  -4.733  0.00  0.00    +0.030 C 
ATOM      6  C   LIG    1        6.364   5.287  -4.879  0.00  0.00    +0.010 C 
ATOM      7  C   LIG    1        6.935   5.610  -3.496  0.00  0.00    +0.020 C 
ATOM      8  C   LIG    1        5.858   6.297  -2.651  0.00  0.00    +0.290 C 
ATOM      9  O   LIG    1        4.591   5.450  -0.409  0.00  0.00    -0.510 OA
BRANCH   6  10
ATOM     10  C   LIG    1        7.448   4.631  -5.737  0.00  0.00    +0.060 C 
BRANCH  10  11
ATOM     11  C   LIG    1        6.925   4.426  -7.135  0.00  0.00    +0.520 C 
ATOM     12  O   LIG    1        5.796   4.769  -7.418  0.00  0.00    -0.540 OA
ATOM     13  N   LIG    1        7.711   3.859  -8.072  0.00  0.00    -0.860 N 
ATOM     14  H   LIG    1        7.374   3.727  -8.972  0.00  0.00    +0.400 HD
ATOM     15  H   LIG    1        8.613   3.584  -7.847  0.00  0.00    +0.400 HD
ENDBRANCH  10  11
ENDBRANCH   6  10
ENDBRANCH   1   2
BRANCH   1  21
ATOM     16  C   LIG    1        1.448   3.083  -3.979  0.00  0.00    +0.210 C 
ATOM     17  C   LIG    1        2.568   2.438  -3.204  0.00  0.00    +0.190 A 
ATOM     18  N   LIG    1        3.138   1.286  -3.463  0.00  0.00    -0.290 NA
ATOM     19  N   LIG    1        4.049   1.084  -2.575  0.00  0.00    -0.070 NA
ATOM     20  N   LIG    1        4.080   2.080  -1.760  0.00  0.00    -0.080 NA
ATOM     21  N   LIG    1        3.177   2.933  -2.110  0.00  0.00    -0.300 N 
ENDBRANCH   1  21
BRANCH   1  22
ATOM     22  C   LIG    1        2.451   3.936  -0.001  0.00  0.00    +0.150 C 
BRANCH  22  23
ATOM     23  C   LIG    1        1.156   3.166   0.007  0.00  0.00    -0.110 A 
ATOM     24  C   LIG    1        1.175   1.783   0.000  0.00  0.00    +0.050 A 
ATOM     25  C   LIG    1       -0.013   1.076   0.008  0.00  0.00    -0.010 A 
ATOM     26  C   LIG    1       -1.221   1.752   0.017  0.00  0.00    +0.110 A 
ATOM     27  C   LIG    1       -1.238   3.136   0.030  0.00  0.00    -0.010 A 
ATOM     28  F   LIG    1       -2.382   1.062   0.019  0.00  0.00    -0.140 F 
ATOM     29  C   LIG    1       -0.050   3.842   0.022  0.00  0.00    +0.060 A 
ENDBRANCH  22  23
ENDBRANCH   1  22
TORSDOF 6
