REMARK  Name = ZINCvU00000004Nm.0
REMARK                            x       y       z     vdW  Elec       q    Type
REMARK                         _______ _______ _______ _____ _____    ______ ____
ROOT
ATOM      1  N   LIG    1        5.563   8.518   3.504  0.00  0.00    -0.660 N 
ATOM      2  H   LIG    1        4.985   8.521   4.283  0.00  0.00    +0.410 HD
ATOM      3  C   LIG    1        5.208   7.825   2.404  0.00  0.00    +0.560 C 
ATOM      4  O   LIG    1        5.974   7.745   1.463  0.00  0.00    -0.510 OA
ENDROOT
BRANCH   1  10
ATOM      5  C   LIG    1        6.880  10.388   4.298  0.00  0.00    +0.090 A 
ATOM      6  C   LIG    1        8.073  11.093   4.312  0.00  0.00    -0.040 A 
ATOM      7  C   LIG    1        9.145  10.653   3.558  0.00  0.00    +0.030 A 
ATOM      8  C   LIG    1        9.032   9.510   2.789  0.00  0.00    +0.000 A 
ATOM      9  C   LIG    1        7.847   8.797   2.773  0.00  0.00    +0.070 A 
ATOM     10  C   LIG    1        6.765   9.235   3.522  0.00  0.00    +0.120 A 
BRANCH   5  11
ATOM     11  O   LIG    1        5.825  10.819   5.039  0.00  0.00    -0.260 OA
BRANCH  11  16
ATOM     12  C   LIG    1        6.329  15.727   7.754  0.00  0.00    +0.090 C 
ATOM     13  C   LIG    1        6.194  14.414   7.028  0.00  0.00    -0.080 A 
ATOM     14  C   LIG    1        5.939  14.400   5.669  0.00  0.00    +0.020 A 
ATOM     15  C   LIG    1        5.815  13.197   5.001  0.00  0.00    +0.010 A 
ATOM     16  C   LIG    1        5.947  12.003   5.694  0.00  0.00    +0.080 A 
ATOM     17  C   LIG    1        6.197  12.020   7.059  0.00  0.00    +0.010 A 
ATOM     18  C   LIG    1        6.326  13.225   7.721  0.00  0.00    +0.020 A 
ENDBRANCH  11  16
ENDBRANCH   5  11
ENDBRANCH   1  10
BRANCH   3  19
ATOM     19  C   LIG    1        3.889   7.161   2.342  0.00  0.00    -0.120 A 
ATOM     20  C   LIG    1        3.008   7.252   3.421  0.00  0.00    +0.030 A 
ATOM     21  C   LIG    1        1.776   6.631   3.361  0.00  0.00    +0.040 A 
ATOM     22  C   LIG    1        1.411   5.919   2.234  0.00  0.00    +0.020 A 
ATOM     23  C   LIG    1        2.281   5.823   1.155  0.00  0.00    +0.140 A 
ATOM     24  C   LIG    1        3.522   6.438   1.207  0.00  0.00    +0.090 A 
BRANCH  23  25
ATOM     25  N   LIG    1        1.906   5.099   0.017  0.00  0.00    -0.670 N 
ATOM     26  H   LIG    1        1.387   4.285   0.108  0.00  0.00    +0.410 HD
ATOM     27  C   LIG    1        2.266   5.535  -1.207  0.00  0.00    +0.510 C 
ATOM     28  O   LIG    1        2.831   6.601  -1.330  0.00  0.00    -0.490 OA
BRANCH  27  29
ATOM     29  C   LIG    1        1.968   4.696  -2.423  0.00  0.00    +0.170 C 
ATOM     30  C   LIG    1        0.440   4.630  -2.670  0.00  0.00    +0.030 C 
ATOM     31  C   LIG    1        0.399   4.335  -4.194  0.00  0.00    +0.020 C 
ATOM     32  C   LIG    1        1.629   5.112  -4.711  0.00  0.00    +0.200 C 
ATOM     33  O   LIG    1        2.512   5.313  -3.600  0.00  0.00    -0.350 OA
ENDBRANCH  27  29
ENDBRANCH  23  25
ENDBRANCH   3  19
TORSDOF 6
