REMARK  Name = ZINCrD000006OIxn.1
REMARK                            x       y       z     vdW  Elec       q    Type
REMARK                         _______ _______ _______ _____ _____    ______ ____
ROOT
ATOM      1  N   LIG    1       -4.918   3.952   0.047  0.00  0.00    -0.490 N 
ATOM      2  C   LIG    1       -5.756   3.549  -1.091  0.00  0.00    +0.210 C 
ATOM      3  C   LIG    1       -7.110   4.257  -1.000  0.00  0.00    +0.190 C 
ATOM      4  N   LIG    1       -6.899   5.712  -0.993  0.00  0.00    -0.530 NA
ATOM      5  C   LIG    1       -6.062   6.114   0.145  0.00  0.00    +0.190 C 
ATOM      6  C   LIG    1       -4.708   5.406   0.054  0.00  0.00    +0.200 C 
ENDROOT
BRANCH   1  10
ATOM      7  C   LIG    1       -1.295   1.925   0.019  0.00  0.00    -0.210 A 
ATOM      8  C   LIG    1       -1.316   3.326   0.032  0.00  0.00    +0.090 A 
ATOM      9  C   LIG    1       -2.510   3.989   0.036  0.00  0.00    -0.060 A 
ATOM     10  C   LIG    1       -3.706   3.274   0.038  0.00  0.00    +0.150 A 
ATOM     11  C   LIG    1       -3.689   1.881   0.030  0.00  0.00    -0.030 A 
ATOM     12  C   LIG    1       -2.500   1.210   0.021  0.00  0.00    +0.100 A 
BRANCH   7  14
ATOM     13  C   LIG    1        1.280   1.980   0.001  0.00  0.00    +0.080 C 
ATOM     14  C   LIG    1       -0.014   1.209   0.009  0.00  0.00    +0.400 C 
ATOM     15  O   LIG    1        0.002  -0.004   0.002  0.00  0.00    -0.460 OA
ENDBRANCH   7  14
ENDBRANCH   1  10
BRANCH   4  16
ATOM     16  C   LIG    1       -8.181   6.429  -0.983  0.00  0.00    +0.240 C 
BRANCH  16  17
ATOM     17  C   LIG    1       -8.906   6.181  -2.281  0.00  0.00    -0.090 A 
ATOM     18  C   LIG    1       -8.709   7.030  -3.355  0.00  0.00    +0.060 A 
ATOM     19  C   LIG    1       -9.368   6.802  -4.547  0.00  0.00    -0.010 A 
ATOM     20  C   LIG    1      -10.236   5.726  -4.664  0.00  0.00    +0.160 A 
ATOM     21  C   LIG    1      -10.436   4.878  -3.583  0.00  0.00    +0.020 A 
ATOM     22  C   LIG    1       -9.771   5.107  -2.395  0.00  0.00    +0.040 A 
BRANCH  20  23
ATOM     23  N   LIG    1      -10.910   5.495  -5.872  0.00  0.00    -0.320 N 
ATOM     24  C   LIG    1      -10.811   6.242  -6.994  0.00  0.00    +0.230 A 
ATOM     25  C   LIG    1      -11.613   5.687  -7.931  0.00  0.00    -0.100 A 
ATOM     26  C   LIG    1      -12.230   4.568  -7.361  0.00  0.00    +0.250 A 
ATOM     27  N   LIG    1      -11.810   4.452  -6.127  0.00  0.00    -0.290 NA
ENDBRANCH  20  23
ENDBRANCH  16  17
ENDBRANCH   4  16
TORSDOF 5
