REMARK  Name = ZINCrD00000lagLp.0
REMARK                            x       y       z     vdW  Elec       q    Type
REMARK                         _______ _______ _______ _____ _____    ______ ____
ROOT
ATOM      1  C   LIG    1        1.887   3.149   0.001  0.00  0.00    +0.420 C 
ATOM      2  O   LIG    1        3.082   3.361  -0.010  0.00  0.00    -0.460 OA
ENDROOT
BRANCH   1   3
ATOM      3  C   LIG    1        1.388   1.772  -0.002  0.00  0.00    -0.270 A 
ATOM      4  C   LIG    1        2.140   0.613  -0.015  0.00  0.00    +0.120 A 
ATOM      5  N   LIG    1        1.297  -0.434  -0.013  0.00  0.00    -0.430 N 
ATOM      6  C   LIG    1        0.002  -0.004   0.002  0.00  0.00    +0.010 A 
ATOM      7  C   LIG    1       -1.214  -0.894   0.008  0.00  0.00    +0.120 C 
ATOM      8  C   LIG    1        3.646   0.537  -0.029  0.00  0.00    +0.150 C 
ATOM      9  C   LIG    1       -0.016   1.339   0.009  0.00  0.00    +0.000 A 
BRANCH   5  10
ATOM     10  C   LIG    1        1.711  -1.840  -0.024  0.00  0.00    +0.300 C 
BRANCH  10  11
ATOM     11  C   LIG    1        1.840  -2.322  -1.471  0.00  0.00    +0.110 C 
BRANCH  11  12
ATOM     12  C   LIG    1        2.265  -3.767  -1.482  0.00  0.00    -0.190 A 
ATOM     13  C   LIG    1        1.437  -4.813  -1.480  0.00  0.00    +0.010 A 
ATOM     14  C   LIG    1        2.058  -6.050  -1.493  0.00  0.00    +0.000 A 
ATOM     15  C   LIG    1        3.391  -6.009  -1.506  0.00  0.00    -0.040 A 
ATOM     16  S   LIG    1        3.930  -4.335  -1.510  0.00  0.00    +0.100 S 
ENDBRANCH  11  12
ENDBRANCH  10  11
ENDBRANCH   5  10
ENDBRANCH   1   3
BRANCH   1  17
ATOM     17  C   LIG    1        0.917   4.302   0.017  0.00  0.00    +0.340 C 
BRANCH  17  22
ATOM     18  C   LIG    1        2.765   7.461  -0.618  0.00  0.00    +0.120 C 
ATOM     19  N   LIG    1        2.715   7.344   0.850  0.00  0.00    -0.720 N 
ATOM     20  H   LIG    1        3.089   7.966   1.493  0.00  0.00    +0.440 HD
ATOM     21  C   LIG    1        2.046   6.210   1.123  0.00  0.00    +0.710 C 
ATOM     22  N   LIG    1        1.659   5.565   0.017  0.00  0.00    -0.570 N 
ATOM     23  O   LIG    1        1.822   5.813   2.250  0.00  0.00    -0.540 OA
ATOM     24  C   LIG    1        4.213   7.453  -1.110  0.00  0.00    +0.080 C 
ATOM     25  C   LIG    1        2.032   6.224  -1.099  0.00  0.00    +0.530 C 
ATOM     26  O   LIG    1        1.825   5.895  -2.247  0.00  0.00    -0.460 OA
BRANCH  18  28
ATOM     27  C   LIG    1        2.805   9.959  -0.588  0.00  0.00    +0.050 C 
ATOM     28  C   LIG    1        2.046   8.728  -1.086  0.00  0.00    +0.040 C 
ENDBRANCH  18  28
ENDBRANCH  17  22
ENDBRANCH   1  17
TORSDOF 7
