REMARK  Name = ZINCkj00000NEqaG.0
REMARK                            x       y       z     vdW  Elec       q    Type
REMARK                         _______ _______ _______ _____ _____    ______ ____
ROOT
ATOM      1  N   LIG    1       -2.972   5.187   3.101  0.00  0.00    -0.510 N 
ATOM      2  H   LIG    1       -3.150   5.223   2.109  0.00  0.00    +0.430 HD
ATOM      3  H   LIG    1       -2.131   5.703   3.311  0.00  0.00    +0.430 HD
ENDROOT
BRANCH   1   5
ATOM      4  C   LIG    1       -5.399   5.080   3.410  0.00  0.00    +0.110 C 
ATOM      5  C   LIG    1       -4.104   5.782   3.824  0.00  0.00    +0.190 C 
BRANCH   5   6
ATOM      6  C   LIG    1       -4.200   7.271   3.483  0.00  0.00    +0.210 C 
BRANCH   6   7
ATOM      7  C   LIG    1       -2.978   7.985   4.000  0.00  0.00    +0.120 A 
ATOM      8  N   LIG    1       -2.538   7.975   5.229  0.00  0.00    -0.270 NA
ATOM      9  N   LIG    1       -1.473   8.690   5.313  0.00  0.00    -0.280 NA
ATOM     10  C   LIG    1       -1.184   9.188   4.142  0.00  0.00    +0.410 A 
ATOM     11  N   LIG    1       -2.129   8.751   3.274  0.00  0.00    -0.580 N 
ATOM     12  H   LIG    1       -2.186   8.948   2.326  0.00  0.00    +0.430 HD
ENDBRANCH   6   7
ENDBRANCH   5   6
ENDBRANCH   1   5
BRANCH   1  13
ATOM     13  C   LIG    1       -2.805   3.789   3.519  0.00  0.00    +0.400 C 
BRANCH  13  14
ATOM     14  C   LIG    1       -1.644   3.178   2.778  0.00  0.00    +0.000 A 
ATOM     15  N   LIG    1       -1.691   2.644   1.584  0.00  0.00    -0.250 NA
ATOM     16  N   LIG    1       -0.406   2.190   1.257  0.00  0.00    -0.330 N 
ATOM     17  C   LIG    1        0.411   2.478   2.291  0.00  0.00    +0.270 A 
ATOM     18  C   LIG    1       -0.329   3.089   3.245  0.00  0.00    -0.080 A 
BRANCH  16  19
ATOM     19  C   LIG    1       -0.019   1.526   0.010  0.00  0.00    +0.250 C 
ATOM     20  C   LIG    1        1.317   0.779  -0.006  0.00  0.00    +0.140 C 
ATOM     21  C   LIG    1        0.002  -0.004   0.002  0.00  0.00    +0.210 C 
ATOM     22  F   LIG    1       -0.373  -0.649  -1.181  0.00  0.00    -0.140 F 
ATOM     23  F   LIG    1       -0.351  -0.661   1.185  0.00  0.00    -0.150 F 
ENDBRANCH  16  19
ENDBRANCH  13  14
ENDBRANCH   1  13
TORSDOF 6
