REMARK  Name = ZINCpk000004AOxe.0
REMARK                            x       y       z     vdW  Elec       q    Type
REMARK                         _______ _______ _______ _____ _____    ______ ____
ROOT
ATOM      1  C   LIG    1        1.142   1.656  -0.009  0.00  0.00    +0.520 C 
ATOM      2  N   LIG    1       -0.016   0.967  -0.007  0.00  0.00    -0.720 N 
ATOM      3  H   LIG    1       -0.003  -0.003  -0.013  0.00  0.00    +0.410 HD
ATOM      4  O   LIG    1        1.126   2.868  -0.002  0.00  0.00    -0.520 OA
ENDROOT
BRANCH   2   5
ATOM      5  C   LIG    1       -1.294   1.682  -0.002  0.00  0.00    +0.290 C 
ATOM      6  C   LIG    1       -2.343   0.805  -0.662  0.00  0.00    +0.090 C 
ATOM      7  C   LIG    1       -3.672   1.573  -0.725  0.00  0.00    -0.300 C 
ATOM      8  S   LIG    1       -4.313   1.661   0.974  0.00  0.00    +2.490 S 
ATOM      9  C   LIG    1       -2.898   2.106   1.931  0.00  0.00    -0.630 A 
ATOM     10  C   LIG    1       -3.102   2.495   3.248  0.00  0.00    +0.110 A 
ATOM     11  C   LIG    1       -2.034   2.823   4.058  0.00  0.00    +0.010 A 
ATOM     12  C   LIG    1       -0.751   2.763   3.546  0.00  0.00    +0.060 A 
ATOM     13  C   LIG    1       -0.550   2.387   2.237  0.00  0.00    +0.000 A 
ATOM     14  O   LIG    1       -5.200   2.761   1.121  0.00  0.00    -0.930 OA
ATOM     15  O   LIG    1       -4.665   0.366   1.444  0.00  0.00    -0.930 OA
ATOM     16  C   LIG    1       -1.625   2.060   1.411  0.00  0.00    -0.020 A 
ENDBRANCH   2   5
BRANCH   1  22
ATOM     17  C   LIG    1        4.024  -1.891  -1.472  0.00  0.00    +0.550 C 
ATOM     18  N   LIG    1        3.882  -0.558  -1.341  0.00  0.00    -0.610 N 
ATOM     19  C   LIG    1        5.060   0.316  -1.258  0.00  0.00    +0.260 C 
ATOM     20  C   LIG    1        4.943   1.182   0.000  0.00  0.00    +0.020 C 
ATOM     21  C   LIG    1        3.608   1.929  -0.021  0.00  0.00    +0.060 C 
ATOM     22  C   LIG    1        2.457   0.919  -0.021  0.00  0.00    -0.010 C 
ATOM     23  C   LIG    1        2.546   0.050  -1.279  0.00  0.00    +0.300 C 
ATOM     24  O   LIG    1        3.045  -2.613  -1.444  0.00  0.00    -0.540 OA
BRANCH  17  26
ATOM     25  C   LIG    1        5.495  -3.779  -1.875  0.00  0.00    +0.160 C 
ATOM     26  C   LIG    1        5.362  -2.475  -1.648  0.00  0.00    -0.090 C 
ENDBRANCH  17  26
ENDBRANCH   1  22
TORSDOF 3
