REMARK  Name = ZINCpe00000Gi5me.0
REMARK                            x       y       z     vdW  Elec       q    Type
REMARK                         _______ _______ _______ _____ _____    ______ ____
ROOT
ATOM      1  N   LIG    1       -0.460   1.535   1.105  0.00  0.00    -0.520 NA
ATOM      2  C   LIG    1       -0.567   3.001   1.093  0.00  0.00    +0.160 C 
ATOM      3  C   LIG    1       -1.050   3.461  -0.286  0.00  0.00    +0.230 C 
ATOM      4  O   LIG    1       -0.151   2.975  -1.286  0.00  0.00    -0.370 OA
ATOM      5  C   LIG    1       -0.024   1.551  -1.304  0.00  0.00    +0.150 C 
ATOM      6  C   LIG    1        0.469   1.071   0.064  0.00  0.00    +0.160 C 
ENDROOT
BRANCH   1   7
ATOM      7  C   LIG    1       -0.053   1.047   2.430  0.00  0.00    +0.210 C 
BRANCH   7  14
ATOM      8  C   LIG    1        1.352  -4.711   4.121  0.00  0.00    +0.030 C 
ATOM      9  C   LIG    1        1.490  -3.201   3.920  0.00  0.00    -0.040 C 
ATOM     10  C   LIG    1        2.051  -2.565   5.194  0.00  0.00    +0.020 C 
ATOM     11  C   LIG    1        2.220  -1.059   4.983  0.00  0.00    +0.010 C 
ATOM     12  C   LIG    1        0.858  -0.432   4.689  0.00  0.00    +0.250 C 
ATOM     13  N   LIG    1        0.243  -1.135   3.555  0.00  0.00    -0.610 N 
ATOM     14  C   LIG    1       -0.191  -0.453   2.477  0.00  0.00    +0.520 C 
ATOM     15  O   LIG    1       -0.693  -1.045   1.546  0.00  0.00    -0.520 OA
ATOM     16  C   LIG    1        0.115  -2.598   3.616  0.00  0.00    +0.280 C 
ENDBRANCH   7  14
ENDBRANCH   1   7
BRANCH   5  17
ATOM     17  C   LIG    1        0.981   1.140  -2.381  0.00  0.00    +0.310 C 
BRANCH  17  18
ATOM     18  N   LIG    1        0.508   1.599  -3.690  0.00  0.00    -0.590 N 
ATOM     19  C   LIG    1        0.892   2.925  -4.184  0.00  0.00    +0.310 C 
BRANCH  18  20
ATOM     20  C   LIG    1       -0.304   0.778  -4.464  0.00  0.00    +0.340 A 
ATOM     21  C   LIG    1       -0.751  -0.442  -3.957  0.00  0.00    -0.040 A 
ATOM     22  C   LIG    1       -1.563  -1.222  -4.766  0.00  0.00    +0.070 A 
ATOM     23  C   LIG    1       -1.871  -0.746  -6.033  0.00  0.00    +0.150 A 
ATOM     24  N   LIG    1       -1.400   0.418  -6.433  0.00  0.00    -0.200 NA
ATOM     25  N   LIG    1       -0.652   1.147  -5.688  0.00  0.00    -0.310 NA
ENDBRANCH  18  20
ENDBRANCH  17  18
ENDBRANCH   5  17
TORSDOF 5
