REMARK  Name = ZINCkj000005jmyJ.1
REMARK                            x       y       z     vdW  Elec       q    Type
REMARK                         _______ _______ _______ _____ _____    ______ ____
ROOT
ATOM      1  S   LIG    1       -2.777   3.996   0.050  0.00  0.00    +2.690 S 
ATOM      2  O   LIG    1       -2.512   5.280   0.598  0.00  0.00    -0.920 OA
ATOM      3  O   LIG    1       -3.732   3.098   0.599  0.00  0.00    -0.920 OA
ENDROOT
BRANCH   1   4
ATOM      4  C   LIG    1       -1.239   3.136   0.030  0.00  0.00    -0.790 A 
ATOM      5  C   LIG    1       -1.221   1.752   0.017  0.00  0.00    +0.250 A 
ATOM      6  C   LIG    1       -0.013   1.076   0.008  0.00  0.00    -0.050 A 
ATOM      7  C   LIG    1        1.177   1.784   0.000  0.00  0.00    +0.230 A 
ATOM      8  C   LIG    1        1.158   3.168   0.008  0.00  0.00    -0.050 A 
ATOM      9  F   LIG    1        2.356   1.125  -0.014  0.00  0.00    -0.100 F 
ATOM     10  F   LIG    1       -2.381   1.060   0.019  0.00  0.00    -0.100 F 
ATOM     11  C   LIG    1       -0.050   3.844   0.022  0.00  0.00    +0.270 A 
ATOM     12  F   LIG    1       -0.068   5.195   0.029  0.00  0.00    -0.090 F 
ENDBRANCH   1   4
BRANCH   1  13
ATOM     13  N   LIG    1       -3.220   4.243  -1.527  0.00  0.00    -1.110 NA
ATOM     14  H   LIG    1       -3.273   5.145  -1.880  0.00  0.00    +0.430 HD
BRANCH  13  23
ATOM     15  C   LIG    1       -5.925   3.800  -2.572  0.00  0.00    +0.070 C 
ATOM     16  C   LIG    1       -4.653   3.481  -3.360  0.00  0.00    +0.000 C 
ATOM     17  C   LIG    1       -4.919   2.310  -4.308  0.00  0.00    +0.270 C 
ATOM     18  N   LIG    1       -3.699   2.000  -5.063  0.00  0.00    -0.510 N 
ATOM     19  C   LIG    1       -2.641   1.565  -4.143  0.00  0.00    +0.280 C 
ATOM     20  C   LIG    1       -2.287   2.706  -3.187  0.00  0.00    +0.030 C 
ATOM     21  H   LIG    1       -3.393   2.824  -5.559  0.00  0.00    +0.430 HD
ATOM     22  H   LIG    1       -3.892   1.264  -5.725  0.00  0.00    +0.440 HD
ATOM     23  C   LIG    1       -3.532   3.100  -2.388  0.00  0.00    +0.250 C 
ENDBRANCH  13  23
ENDBRANCH   1  13
TORSDOF 3
