REMARK  Name = ZINCqH0000036QWw.0
REMARK                            x       y       z     vdW  Elec       q    Type
REMARK                         _______ _______ _______ _____ _____    ______ ____
ROOT
ATOM      1  C   LIG    1       -0.822   2.794   3.290  0.00  0.00    -0.090 A 
ATOM      2  C   LIG    1       -1.144   4.111   3.458  0.00  0.00    +0.140 A 
ATOM      3  N   LIG    1       -1.730   4.218   4.670  0.00  0.00    -0.310 N 
ATOM      4  N   LIG    1       -1.742   2.932   5.229  0.00  0.00    -0.050 NA
ATOM      5  N   LIG    1       -1.200   2.119   4.390  0.00  0.00    -0.190 NA
ENDROOT
BRANCH   1  12
ATOM      6  C   LIG    1       -3.441   1.258  -2.149  0.00  0.00    +0.020 C 
ATOM      7  C   LIG    1       -2.570   0.879  -0.950  0.00  0.00    -0.010 C 
ATOM      8  C   LIG    1       -3.135   1.526   0.316  0.00  0.00    +0.020 C 
ATOM      9  C   LIG    1       -2.280   1.117   1.520  0.00  0.00    +0.270 C 
ATOM     10  N   LIG    1       -0.874   1.457   1.243  0.00  0.00    -0.600 N 
ATOM     11  C   LIG    1       -0.262   0.961   0.003  0.00  0.00    +0.290 C 
ATOM     12  C   LIG    1       -0.164   2.211   2.106  0.00  0.00    +0.610 C 
ATOM     13  O   LIG    1        1.019   2.411   1.907  0.00  0.00    -0.520 OA
ATOM     14  C   LIG    1       -1.140   1.372  -1.183  0.00  0.00    -0.070 C 
ATOM     15  C   LIG    1       -0.587   0.750  -2.467  0.00  0.00    +0.040 C 
ATOM     16  C   LIG    1       -1.140   2.897  -1.313  0.00  0.00    +0.030 C 
ENDBRANCH   1  12
BRANCH   3  17
ATOM     17  C   LIG    1       -2.225   5.390   5.259  0.00  0.00    +0.160 A 
ATOM     18  C   LIG    1       -1.582   6.601   5.045  0.00  0.00    +0.020 A 
ATOM     19  C   LIG    1       -2.073   7.756   5.622  0.00  0.00    +0.080 A 
ATOM     20  C   LIG    1       -3.200   7.706   6.422  0.00  0.00    +0.010 A 
ATOM     21  C   LIG    1       -3.842   6.498   6.642  0.00  0.00    +0.120 A 
ATOM     22  F   LIG    1       -4.944   6.452   7.423  0.00  0.00    -0.130 F 
ATOM     23  C   LIG    1       -3.357   5.340   6.062  0.00  0.00    +0.010 A 
ENDBRANCH   3  17
BRANCH   2  24
ATOM     24  C   LIG    1       -0.896   5.228   2.478  0.00  0.00    +0.000 C 
ATOM     25  C   LIG    1       -0.438   4.844   1.070  0.00  0.00    +0.060 C 
ATOM     26  C   LIG    1        0.550   5.483   2.047  0.00  0.00    +0.070 C 
ENDBRANCH   2  24
TORSDOF 3
