REMARK  Name = ZINCqH00000029S7.0
REMARK                            x       y       z     vdW  Elec       q    Type
REMARK                         _______ _______ _______ _____ _____    ______ ____
ROOT
ATOM      1  S   LIG    1       -3.194   6.875   0.368  0.00  0.00    +0.020 S 
ENDROOT
BRANCH   1   5
ATOM      2  C   LIG    1       -1.543   2.990   0.463  0.00  0.00    +0.230 A 
ATOM      3  N   LIG    1       -1.064   3.751  -0.475  0.00  0.00    -0.280 NA
ATOM      4  N   LIG    1       -1.511   4.926  -0.563  0.00  0.00    -0.240 NA
ATOM      5  C   LIG    1       -2.421   5.294   0.291  0.00  0.00    -0.060 A 
ATOM      6  S   LIG    1       -2.747   3.923   1.354  0.00  0.00    +0.230 S 
BRANCH   2   8
ATOM      7  C   LIG    1       -1.815   0.964   1.670  0.00  0.00    +0.510 C 
ATOM      8  N   LIG    1       -1.176   1.670   0.716  0.00  0.00    -0.480 N 
ATOM      9  O   LIG    1       -2.710   1.478   2.307  0.00  0.00    -0.500 OA
BRANCH   8  10
ATOM     10  C   LIG    1       -0.095   1.050  -0.053  0.00  0.00    +0.190 C 
ATOM     11  C   LIG    1        0.340   1.743  -1.347  0.00  0.00    +0.070 C 
ATOM     12  C   LIG    1        1.244   1.789  -0.114  0.00  0.00    +0.040 C 
ENDBRANCH   8  10
BRANCH   7  14
ATOM     13  C   LIG    1       -2.293  -1.030   3.063  0.00  0.00    +0.070 C 
ATOM     14  C   LIG    1       -1.418  -0.463   1.944  0.00  0.00    +0.090 C 
ENDBRANCH   7  14
ENDBRANCH   2   8
ENDBRANCH   1   5
BRANCH   1  15
ATOM     15  C   LIG    1       -2.410   7.781  -0.994  0.00  0.00    +0.120 C 
BRANCH  15  16
ATOM     16  C   LIG    1       -2.983   9.197  -1.062  0.00  0.00    +0.090 C 
BRANCH  16  17
ATOM     17  C   LIG    1       -2.332   9.949  -2.193  0.00  0.00    +0.520 C 
ATOM     18  N   LIG    1       -2.683  11.226  -2.444  0.00  0.00    -0.670 N 
ATOM     19  H   LIG    1       -3.295  11.687  -1.849  0.00  0.00    +0.420 HD
ATOM     20  O   LIG    1       -1.491   9.406  -2.878  0.00  0.00    -0.510 OA
BRANCH  18  21
ATOM     21  C   LIG    1       -2.163  11.888  -3.564  0.00  0.00    +0.120 A 
ATOM     22  C   LIG    1       -1.727  11.160  -4.662  0.00  0.00    +0.050 A 
ATOM     23  C   LIG    1       -1.216  11.815  -5.766  0.00  0.00    +0.020 A 
ATOM     24  C   LIG    1       -1.138  13.195  -5.778  0.00  0.00    +0.030 A 
ATOM     25  C   LIG    1       -1.571  13.926  -4.687  0.00  0.00    +0.010 A 
ATOM     26  C   LIG    1       -2.090  13.277  -3.581  0.00  0.00    +0.070 A 
ATOM     27  F   LIG    1       -2.518  13.990  -2.517  0.00  0.00    -0.140 F 
ENDBRANCH  18  21
ENDBRANCH  16  17
ENDBRANCH  15  16
ENDBRANCH   1  15
TORSDOF 8
