REMARK  Name = ZINCpk00000KfKrD.0
REMARK                            x       y       z     vdW  Elec       q    Type
REMARK                         _______ _______ _______ _____ _____    ______ ____
ROOT
ATOM      1  N   LIG    1        0.704   2.437   2.860  0.00  0.00    -0.460 N 
ATOM      2  C   LIG    1        1.420   1.168   2.674  0.00  0.00    +0.210 C 
ATOM      3  C   LIG    1        2.850   1.311   3.202  0.00  0.00    +0.220 C 
ATOM      4  N   LIG    1        2.810   1.687   4.622  0.00  0.00    -0.490 N 
ATOM      5  C   LIG    1        2.093   2.956   4.808  0.00  0.00    +0.210 C 
ATOM      6  C   LIG    1        0.663   2.813   4.280  0.00  0.00    +0.250 C 
ENDROOT
BRANCH   4   7
ATOM      7  C   LIG    1        4.098   1.756   5.158  0.00  0.00    +0.140 A 
ATOM      8  C   LIG    1        4.942   0.656   5.085  0.00  0.00    -0.020 A 
ATOM      9  C   LIG    1        6.216   0.726   5.616  0.00  0.00    +0.080 A 
ATOM     10  C   LIG    1        6.651   1.891   6.219  0.00  0.00    -0.040 A 
ATOM     11  C   LIG    1        5.813   2.991   6.294  0.00  0.00    +0.130 A 
ATOM     12  F   LIG    1        6.241   4.128   6.885  0.00  0.00    -0.140 F 
ATOM     13  C   LIG    1        4.539   2.928   5.759  0.00  0.00    -0.070 A 
ENDBRANCH   4   7
BRANCH   1  18
ATOM     14  N   LIG    1       -0.899   2.386   1.016  0.00  0.00    -0.380 N 
ATOM     15  N   LIG    1       -2.301   2.300   0.983  0.00  0.00    -0.070 NA
ATOM     16  N   LIG    1       -2.700   2.230   2.206  0.00  0.00    -0.020 NA
ATOM     17  N   LIG    1       -1.696   2.273   3.006  0.00  0.00    -0.350 NA
ATOM     18  C   LIG    1       -0.573   2.368   2.329  0.00  0.00    +0.420 A 
BRANCH  14  19
ATOM     19  C   LIG    1        0.014   2.482  -0.126  0.00  0.00    +0.490 C 
BRANCH  19  24
ATOM     20  C   LIG    1        1.558   7.292  -0.744  0.00  0.00    +0.160 C 
ATOM     21  C   LIG    1        0.802   5.990  -0.813  0.00  0.00    +0.010 A 
ATOM     22  N   LIG    1       -0.284   5.755  -1.489  0.00  0.00    -0.350 NA
ATOM     23  O   LIG    1       -0.658   4.613  -1.348  0.00  0.00    +0.120 OA
ATOM     24  C   LIG    1        0.157   3.925  -0.536  0.00  0.00    -0.070 A 
ATOM     25  C   LIG    1        1.130   4.785  -0.151  0.00  0.00    -0.010 A 
ENDBRANCH  19  24
ENDBRANCH  14  19
ENDBRANCH   1  18
TORSDOF 4
