REMARK  Name = ZINCpe000000TXwH.0
REMARK                            x       y       z     vdW  Elec       q    Type
REMARK                         _______ _______ _______ _____ _____    ______ ____
ROOT
ATOM      1  N   LIG    1       -1.698   3.874  -3.188  0.00  0.00    -0.720 N 
ATOM      2  H   LIG    1       -0.763   4.116  -3.093  0.00  0.00    +0.400 HD
ATOM      3  C   LIG    1       -2.653   4.818  -3.083  0.00  0.00    +0.520 C 
ATOM      4  O   LIG    1       -3.822   4.515  -3.202  0.00  0.00    -0.530 OA
ENDROOT
BRANCH   1   5
ATOM      5  C   LIG    1       -2.070   2.481  -3.447  0.00  0.00    +0.340 C 
BRANCH   5  11
ATOM      6  C   LIG    1       -0.195   1.208  -2.357  0.00  0.00    +0.340 A 
ATOM      7  N   LIG    1        0.894   0.460  -2.417  0.00  0.00    -0.540 NA
ATOM      8  C   LIG    1        1.422   0.096  -3.570  0.00  0.00    +0.310 A 
ATOM      9  C   LIG    1        0.851   0.487  -4.765  0.00  0.00    -0.070 A 
ATOM     10  C   LIG    1       -0.293   1.273  -4.745  0.00  0.00    +0.120 A 
ATOM     11  C   LIG    1       -0.826   1.633  -3.520  0.00  0.00    -0.190 A 
BRANCH   6  12
ATOM     12  O   LIG    1       -0.704   1.559  -1.150  0.00  0.00    -0.300 OA
BRANCH  12  14
ATOM     13  C   LIG    1       -0.729   1.579   1.267  0.00  0.00    +0.070 C 
ATOM     14  C   LIG    1       -0.013   1.086   0.008  0.00  0.00    +0.210 C 
ENDBRANCH  12  14
ENDBRANCH   6  12
ENDBRANCH   5  11
ENDBRANCH   1   5
BRANCH   3  15
ATOM     15  C   LIG    1       -2.271   6.251  -2.816  0.00  0.00    +0.260 C 
BRANCH  15  16
ATOM     16  N   LIG    1       -3.483   7.077  -2.746  0.00  0.00    -0.460 N 
ATOM     17  C   LIG    1       -4.159   7.132  -4.049  0.00  0.00    +0.250 C 
BRANCH  16  18
ATOM     18  C   LIG    1       -3.191   8.350  -2.284  0.00  0.00    +0.400 A 
ATOM     19  C   LIG    1       -4.198   9.305  -2.137  0.00  0.00    -0.080 A 
ATOM     20  N   LIG    1       -5.560   9.333  -2.351  0.00  0.00    -0.570 N 
ATOM     21  H   LIG    1       -6.107   8.601  -2.679  0.00  0.00    +0.430 HD
ATOM     22  C   LIG    1       -5.991  10.570  -2.018  0.00  0.00    +0.530 A 
ATOM     23  N   LIG    1       -4.989  11.301  -1.616  0.00  0.00    -0.490 NA
ATOM     24  C   LIG    1       -3.852  10.582  -1.665  0.00  0.00    +0.310 A 
ATOM     25  N   LIG    1       -2.572  10.832  -1.373  0.00  0.00    -0.500 NA
ATOM     26  C   LIG    1       -1.657   9.900  -1.526  0.00  0.00    +0.540 A 
ATOM     27  N   LIG    1       -1.944   8.688  -1.964  0.00  0.00    -0.560 NA
ENDBRANCH  16  18
ENDBRANCH  15  16
ENDBRANCH   3  15
TORSDOF 7
