REMARK  Name = ZINCpe000000TXwH.1
REMARK                            x       y       z     vdW  Elec       q    Type
REMARK                         _______ _______ _______ _____ _____    ______ ____
ROOT
ATOM      1  N   LIG    1        4.643   6.860  -0.292  0.00  0.00    -0.720 N 
ATOM      2  H   LIG    1        3.937   7.510  -0.153  0.00  0.00    +0.400 HD
ATOM      3  C   LIG    1        4.364   5.543  -0.254  0.00  0.00    +0.510 C 
ATOM      4  O   LIG    1        5.247   4.730  -0.427  0.00  0.00    -0.520 OA
ENDROOT
BRANCH   1   5
ATOM      5  C   LIG    1        6.015   7.311  -0.542  0.00  0.00    +0.340 C 
BRANCH   5  11
ATOM      6  C   LIG    1        6.088   9.514   0.668  0.00  0.00    +0.340 A 
ATOM      7  N   LIG    1        6.125  10.836   0.680  0.00  0.00    -0.540 NA
ATOM      8  C   LIG    1        6.135  11.539  -0.438  0.00  0.00    +0.310 A 
ATOM      9  C   LIG    1        6.105  10.912  -1.667  0.00  0.00    -0.070 A 
ATOM     10  C   LIG    1        6.072   9.526  -1.723  0.00  0.00    +0.120 A 
ATOM     11  C   LIG    1        6.057   8.818  -0.534  0.00  0.00    -0.180 A 
BRANCH   6  12
ATOM     12  O   LIG    1        6.080   8.832   1.841  0.00  0.00    -0.300 OA
BRANCH  12  14
ATOM     13  C   LIG    1        6.099   8.670   4.252  0.00  0.00    +0.060 C 
ATOM     14  C   LIG    1        6.114   9.606   3.042  0.00  0.00    +0.210 C 
ENDBRANCH  12  14
ENDBRANCH   6  12
ENDBRANCH   5  11
ENDBRANCH   1   5
BRANCH   3  15
ATOM     15  C   LIG    1        2.953   5.079   0.003  0.00  0.00    +0.250 C 
BRANCH  15  16
ATOM     16  N   LIG    1        2.912   3.610  -0.005  0.00  0.00    -0.440 N 
ATOM     17  C   LIG    1        3.673   3.056   1.122  0.00  0.00    +0.260 C 
BRANCH  16  18
ATOM     18  C   LIG    1        1.606   3.151   0.004  0.00  0.00    +0.430 A 
ATOM     19  C   LIG    1        1.329   1.773  -0.001  0.00  0.00    -0.060 A 
ATOM     20  N   LIG    1        2.085   0.649  -0.014  0.00  0.00    -0.460 NA
ATOM     21  C   LIG    1        1.308  -0.395  -0.013  0.00  0.00    +0.500 A 
ATOM     22  N   LIG    1        0.002  -0.004   0.002  0.00  0.00    -0.580 N 
ATOM     23  H   LIG    1       -0.772  -0.589   0.007  0.00  0.00    +0.430 HD
ATOM     24  C   LIG    1       -0.017   1.368   0.010  0.00  0.00    +0.290 A 
ATOM     25  N   LIG    1       -0.970   2.293   0.028  0.00  0.00    -0.540 NA
ATOM     26  C   LIG    1       -0.663   3.573   0.029  0.00  0.00    +0.560 A 
ATOM     27  N   LIG    1        0.586   4.002   0.019  0.00  0.00    -0.570 NA
ENDBRANCH  16  18
ENDBRANCH  15  16
ENDBRANCH   3  15
TORSDOF 7
