REMARK  Name = ZINCrg00000fScfQ.0
REMARK                            x       y       z     vdW  Elec       q    Type
REMARK                         _______ _______ _______ _____ _____    ______ ____
ROOT
ATOM      1  C   LIG    1        1.445  -2.073  -0.024  0.00  0.00    -0.310 A 
ATOM      2  C   LIG    1        1.190  -0.699  -0.014  0.00  0.00    +0.400 A 
ATOM      3  N   LIG    1        0.002  -0.004   0.002  0.00  0.00    -0.620 N 
ATOM      4  H   LIG    1       -0.836  -0.492   0.007  0.00  0.00    +0.440 HD
ATOM      5  C   LIG    1       -0.016   1.345   0.009  0.00  0.00    +0.560 A 
ATOM      6  C   LIG    1        1.270   2.064   0.001  0.00  0.00    -0.170 A 
ATOM      7  C   LIG    1        1.324   3.457   0.011  0.00  0.00    +0.130 A 
ATOM      8  C   LIG    1        2.549   4.090   0.003  0.00  0.00    +0.020 A 
ATOM      9  C   LIG    1        3.721   3.350  -0.014  0.00  0.00    +0.090 A 
ATOM     10  C   LIG    1        3.681   1.970  -0.022  0.00  0.00    +0.030 A 
ATOM     11  C   LIG    1        2.458   1.315  -0.014  0.00  0.00    +0.190 A 
ATOM     12  O   LIG    1       -1.070   1.953   0.018  0.00  0.00    -0.480 OA
ATOM     13  N   LIG    1        2.386  -0.074  -0.022  0.00  0.00    -0.320 N 
ATOM     14  N   LIG    1        3.394  -1.048  -0.037  0.00  0.00    -0.270 NA
ATOM     15  C   LIG    1        2.849  -2.232  -0.038  0.00  0.00    +0.370 A 
ENDROOT
BRANCH   1  16
ATOM     16  C   LIG    1        0.446  -3.146  -0.020  0.00  0.00    +0.560 C 
ATOM     17  O   LIG    1       -0.739  -2.873  -0.008  0.00  0.00    -0.530 OA
BRANCH  16  18
ATOM     18  O   LIG    1        0.841  -4.435  -0.031  0.00  0.00    -0.320 OA
BRANCH  18  20
ATOM     19  C   LIG    1       -0.583  -5.791  -1.468  0.00  0.00    +0.070 C 
ATOM     20  C   LIG    1       -0.203  -5.445  -0.027  0.00  0.00    +0.190 C 
BRANCH  20  21
ATOM     21  C   LIG    1        0.298  -6.682   0.672  0.00  0.00    +0.520 C 
ATOM     22  N   LIG    1       -0.505  -7.757   0.797  0.00  0.00    -0.610 N 
ATOM     23  C   LIG    1       -1.865  -7.723   0.253  0.00  0.00    +0.290 C 
ATOM     24  O   LIG    1        1.423  -6.711   1.123  0.00  0.00    -0.510 OA
BRANCH  22  25
ATOM     25  C   LIG    1       -0.019  -8.960   1.476  0.00  0.00    +0.310 C 
BRANCH  25  26
ATOM     26  C   LIG    1       -0.339  -8.868   2.970  0.00  0.00    +0.180 C 
BRANCH  26  27
ATOM     27  C   LIG    1        0.150 -10.076   3.652  0.00  0.00    +0.210 C 
ATOM     28  N   LIG    1        0.527 -11.009   4.179  0.00  0.00    -0.420 NA
ENDBRANCH  26  27
ENDBRANCH  25  26
ENDBRANCH  22  25
ENDBRANCH  20  21
ENDBRANCH  18  20
ENDBRANCH  16  18
ENDBRANCH   1  16
TORSDOF 7
