REMARK  Name = ZINCrD00000476fZ.0
REMARK                            x       y       z     vdW  Elec       q    Type
REMARK                         _______ _______ _______ _____ _____    ______ ____
ROOT
ATOM      1  C   LIG    1        1.678   3.280   0.592  0.00  0.00    +0.240 C 
ATOM      2  C   LIG    1        3.169   3.613   0.708  0.00  0.00    +0.020 C 
ATOM      3  C   LIG    1        3.329   5.054   1.198  0.00  0.00    +0.020 C 
ATOM      4  C   LIG    1        2.696   6.012   0.186  0.00  0.00    +0.010 C 
ATOM      5  C   LIG    1        1.200   5.706   0.065  0.00  0.00    +0.270 C 
ATOM      6  N   LIG    1        1.034   4.284  -0.265  0.00  0.00    -0.610 N 
ATOM      7  C   LIG    1        0.305   3.907  -1.334  0.00  0.00    +0.510 C 
ATOM      8  O   LIG    1        0.083   2.732  -1.534  0.00  0.00    -0.520 OA
ENDROOT
BRANCH   1  14
ATOM      9  O   LIG    1        2.508  -1.935   1.431  0.00  0.00    -0.520 OA
ATOM     10  C   LIG    1        2.633  -1.594   0.270  0.00  0.00    +0.650 C 
ATOM     11  N   LIG    1        2.483  -0.298  -0.071  0.00  0.00    -0.610 N 
ATOM     12  C   LIG    1        2.607   0.249  -1.430  0.00  0.00    +0.240 C 
ATOM     13  C   LIG    1        2.330   1.765  -1.340  0.00  0.00    +0.040 C 
ATOM     14  C   LIG    1        1.510   1.891  -0.028  0.00  0.00    +0.030 C 
ATOM     15  C   LIG    1        2.170   0.804   0.857  0.00  0.00    +0.250 C 
BRANCH  10  16
ATOM     16  C   LIG    1        2.938  -2.568  -0.734  0.00  0.00    -0.220 C 
ATOM     17  C   LIG    1        3.188  -3.367  -1.557  0.00  0.00    -0.050 C 
BRANCH  17  18
ATOM     18  C   LIG    1        3.502  -4.368  -2.589  0.00  0.00    +0.070 C 
ATOM     19  C   LIG    1        4.395  -3.929  -3.751  0.00  0.00    +0.050 C 
ATOM     20  C   LIG    1        2.900  -4.162  -3.980  0.00  0.00    +0.050 C 
ENDBRANCH  17  18
ENDBRANCH  10  16
ENDBRANCH   1  14
BRANCH   7  21
ATOM     21  C   LIG    1       -0.236   4.947  -2.281  0.00  0.00    +0.050 C 
BRANCH  21  22
ATOM     22  C   LIG    1       -1.022   4.259  -3.400  0.00  0.00    +0.140 C 
BRANCH  22  23
ATOM     23  C   LIG    1       -1.562   5.299  -4.347  0.00  0.00    -0.180 A 
ATOM     24  C   LIG    1       -0.926   5.764  -5.423  0.00  0.00    +0.000 A 
ATOM     25  C   LIG    1       -1.623   6.716  -6.147  0.00  0.00    +0.010 A 
ATOM     26  C   LIG    1       -2.821   7.032  -5.653  0.00  0.00    -0.050 A 
ATOM     27  S   LIG    1       -3.125   6.092  -4.198  0.00  0.00    +0.100 S 
ENDBRANCH  22  23
ENDBRANCH  21  22
ENDBRANCH   7  21
TORSDOF 6
