REMARK  Name = ZINCpe000000UykF.2
REMARK                            x       y       z     vdW  Elec       q    Type
REMARK                         _______ _______ _______ _____ _____    ______ ____
ROOT
ATOM      1  C   LIG    1       -2.146   1.783   1.192  0.00  0.00    +0.340 C 
ENDROOT
BRANCH   1   2
ATOM      2  C   LIG    1       -2.857   0.515   1.590  0.00  0.00    +0.500 C 
ATOM      3  N   LIG    1       -4.203   0.485   1.641  0.00  0.00    -0.610 N 
ATOM      4  C   LIG    1       -4.992   1.681   1.311  0.00  0.00    +0.270 C 
ATOM      5  C   LIG    1       -5.947   1.976   2.472  0.00  0.00    +0.040 C 
ATOM      6  C   LIG    1       -6.787   0.731   2.766  0.00  0.00    +0.020 C 
ATOM      7  C   LIG    1       -5.867  -0.421   3.179  0.00  0.00    +0.260 C 
ATOM      8  C   LIG    1       -4.911  -0.745   2.021  0.00  0.00    +0.290 C 
ATOM      9  O   LIG    1       -2.217  -0.478   1.864  0.00  0.00    -0.520 OA
BRANCH   7  10
ATOM     10  N   LIG    1       -6.674  -1.603   3.490  0.00  0.00    -0.370 N 
ATOM     11  C   LIG    1       -7.124  -2.514   2.601  0.00  0.00    +0.220 A 
ATOM     12  C   LIG    1       -7.826  -3.446   3.286  0.00  0.00    -0.120 A 
ATOM     13  C   LIG    1       -7.805  -3.093   4.639  0.00  0.00    +0.230 A 
ATOM     14  N   LIG    1       -7.110  -1.992   4.763  0.00  0.00    -0.290 NA
ENDBRANCH   7  10
ENDBRANCH   1   2
BRANCH   1  16
ATOM     15  C   LIG    1       -0.013   1.086   0.008  0.00  0.00    +0.330 C 
ATOM     16  N   LIG    1       -0.698   1.558   1.213  0.00  0.00    -0.540 N 
BRANCH  16  17
ATOM     17  C   LIG    1        0.015   1.790   2.362  0.00  0.00    +0.540 A 
ATOM     18  C   LIG    1        1.403   1.572   2.395  0.00  0.00    -0.110 A 
ATOM     19  N   LIG    1        2.325   1.164   1.507  0.00  0.00    -0.500 NA
ATOM     20  C   LIG    1        3.497   1.157   2.106  0.00  0.00    +0.400 A 
ATOM     21  N   LIG    1        3.370   1.556   3.366  0.00  0.00    -0.540 NA
ATOM     22  C   LIG    1        2.095   1.830   3.599  0.00  0.00    +0.220 A 
ATOM     23  N   LIG    1        1.376   2.272   4.685  0.00  0.00    -0.540 N 
ATOM     24  H   LIG    1        1.825   2.453   5.526  0.00  0.00    +0.430 HD
ATOM     25  C   LIG    1        0.049   2.452   4.578  0.00  0.00    +0.650 A 
ATOM     26  N   LIG    1       -0.602   2.221   3.467  0.00  0.00    -0.580 NA
ENDBRANCH  16  17
ENDBRANCH   1  16
TORSDOF 4
