REMARK  Name = ZINCpe000000UykF.0
REMARK                            x       y       z     vdW  Elec       q    Type
REMARK                         _______ _______ _______ _____ _____    ______ ____
ROOT
ATOM      1  C   LIG    1       -3.141  -1.908   0.021  0.00  0.00    +0.270 C 
ENDROOT
BRANCH   1   2
ATOM      2  C   LIG    1       -4.578  -1.538   0.284  0.00  0.00    +0.520 C 
ATOM      3  N   LIG    1       -5.523  -2.498   0.330  0.00  0.00    -0.610 N 
ATOM      4  C   LIG    1       -5.168  -3.909   0.125  0.00  0.00    +0.280 C 
ATOM      5  C   LIG    1       -6.052  -4.484  -0.985  0.00  0.00    +0.030 C 
ATOM      6  C   LIG    1       -7.523  -4.252  -0.633  0.00  0.00    +0.020 C 
ATOM      7  C   LIG    1       -7.793  -2.749  -0.530  0.00  0.00    +0.260 C 
ATOM      8  C   LIG    1       -6.928  -2.154   0.591  0.00  0.00    +0.290 C 
ATOM      9  O   LIG    1       -4.885  -0.377   0.454  0.00  0.00    -0.520 OA
BRANCH   7  10
ATOM     10  N   LIG    1       -9.208  -2.526  -0.224  0.00  0.00    -0.370 N 
ATOM     11  C   LIG    1       -9.765  -2.531   1.006  0.00  0.00    +0.220 A 
ATOM     12  C   LIG    1      -11.088  -2.286   0.861  0.00  0.00    -0.120 A 
ATOM     13  C   LIG    1      -11.349  -2.126  -0.504  0.00  0.00    +0.230 A 
ATOM     14  N   LIG    1      -10.222  -2.264  -1.155  0.00  0.00    -0.290 NA
ENDBRANCH   7  10
ENDBRANCH   1   2
BRANCH   1  16
ATOM     15  C   LIG    1       -2.664   0.180  -1.109  0.00  0.00    +0.250 C 
ATOM     16  N   LIG    1       -2.316  -0.693   0.020  0.00  0.00    -0.460 N 
BRANCH  16  17
ATOM     17  C   LIG    1       -0.967  -1.009   0.005  0.00  0.00    +0.400 A 
ATOM     18  C   LIG    1        0.002  -0.004   0.002  0.00  0.00    -0.080 A 
ATOM     19  N   LIG    1       -0.017   1.375   0.010  0.00  0.00    -0.570 N 
ATOM     20  H   LIG    1       -0.805   1.940   0.017  0.00  0.00    +0.430 HD
ATOM     21  C   LIG    1        1.270   1.791  -0.000  0.00  0.00    +0.540 A 
ATOM     22  N   LIG    1        2.073   0.765  -0.014  0.00  0.00    -0.490 NA
ATOM     23  C   LIG    1        1.357  -0.375  -0.013  0.00  0.00    +0.310 A 
ATOM     24  N   LIG    1        1.665  -1.676  -0.024  0.00  0.00    -0.500 NA
ATOM     25  C   LIG    1        0.718  -2.587  -0.020  0.00  0.00    +0.540 A 
ATOM     26  N   LIG    1       -0.566  -2.278  -0.006  0.00  0.00    -0.560 NA
ENDBRANCH  16  17
ENDBRANCH   1  16
TORSDOF 4
