REMARK  Name = ZINCpe000000UykF.1
REMARK                            x       y       z     vdW  Elec       q    Type
REMARK                         _______ _______ _______ _____ _____    ______ ____
ROOT
ATOM      1  C   LIG    1       -0.822   3.023   1.213  0.00  0.00    +0.250 C 
ENDROOT
BRANCH   1   2
ATOM      2  C   LIG    1       -1.735   3.449   0.092  0.00  0.00    +0.520 C 
ATOM      3  N   LIG    1       -1.996   4.756  -0.105  0.00  0.00    -0.610 N 
ATOM      4  C   LIG    1       -1.398   5.779   0.764  0.00  0.00    +0.280 C 
ATOM      5  C   LIG    1       -2.516   6.663   1.326  0.00  0.00    +0.040 C 
ATOM      6  C   LIG    1       -3.344   7.228   0.169  0.00  0.00    +0.020 C 
ATOM      7  C   LIG    1       -3.984   6.078  -0.612  0.00  0.00    +0.260 C 
ATOM      8  C   LIG    1       -2.878   5.187  -1.198  0.00  0.00    +0.290 C 
ATOM      9  O   LIG    1       -2.234   2.615  -0.633  0.00  0.00    -0.510 OA
BRANCH   7  10
ATOM     10  N   LIG    1       -4.801   6.620  -1.699  0.00  0.00    -0.370 N 
ATOM     11  C   LIG    1       -4.359   6.973  -2.925  0.00  0.00    +0.220 A 
ATOM     12  C   LIG    1       -5.420   7.426  -3.631  0.00  0.00    -0.120 A 
ATOM     13  C   LIG    1       -6.550   7.347  -2.810  0.00  0.00    +0.230 A 
ATOM     14  N   LIG    1       -6.181   6.859  -1.653  0.00  0.00    -0.290 NA
ENDBRANCH   7  10
ENDBRANCH   1   2
BRANCH   1  16
ATOM     15  C   LIG    1       -0.013   1.086   0.008  0.00  0.00    +0.260 C 
ATOM     16  N   LIG    1       -0.700   1.560   1.217  0.00  0.00    -0.450 N 
BRANCH  16  17
ATOM     17  C   LIG    1       -0.056   1.118   2.359  0.00  0.00    +0.430 A 
ATOM     18  C   LIG    1        0.165  -0.252   2.576  0.00  0.00    -0.060 A 
ATOM     19  N   LIG    1       -0.116  -1.384   1.886  0.00  0.00    -0.460 NA
ATOM     20  C   LIG    1        0.318  -2.415   2.550  0.00  0.00    +0.500 A 
ATOM     21  N   LIG    1        0.918  -2.008   3.704  0.00  0.00    -0.580 N 
ATOM     22  H   LIG    1        1.322  -2.580   4.374  0.00  0.00    +0.430 HD
ATOM     23  C   LIG    1        0.831  -0.639   3.752  0.00  0.00    +0.290 A 
ATOM     24  N   LIG    1        1.213   0.296   4.615  0.00  0.00    -0.540 NA
ATOM     25  C   LIG    1        0.979   1.569   4.372  0.00  0.00    +0.560 A 
ATOM     26  N   LIG    1        0.363   1.981   3.280  0.00  0.00    -0.570 NA
ENDBRANCH  16  17
ENDBRANCH   1  16
TORSDOF 4
