REMARK  Name = ZINCpe00000MJImW.0
REMARK                            x       y       z     vdW  Elec       q    Type
REMARK                         _______ _______ _______ _____ _____    ______ ____
ROOT
ATOM      1  S   LIG    1       -2.734   0.844   0.016  0.00  0.00    +2.700 S 
ATOM      2  O   LIG    1       -2.440  -0.431  -0.539  0.00  0.00    -0.950 OA
ATOM      3  O   LIG    1       -3.721   1.715  -0.518  0.00  0.00    -0.950 OA
ENDROOT
BRANCH   1   4
ATOM      4  N   LIG    1       -3.149   0.581   1.598  0.00  0.00    -1.000 NA
ATOM      5  C   LIG    1       -2.702  -0.624   2.317  0.00  0.00    +0.320 C 
ATOM      6  C   LIG    1       -1.795  -0.165   3.466  0.00  0.00    +0.110 C 
ATOM      7  C   LIG    1       -2.425   0.972   4.222  0.00  0.00    -0.230 A 
ATOM      8  C   LIG    1       -3.407   1.753   3.713  0.00  0.00    +0.160 A 
ATOM      9  N   LIG    1       -3.898   2.762   4.448  0.00  0.00    -0.540 NA
ATOM     10  C   LIG    1       -3.469   3.012   5.653  0.00  0.00    +0.580 A 
ATOM     11  N   LIG    1       -2.504   2.262   6.222  0.00  0.00    -0.530 N 
ATOM     12  C   LIG    1       -2.047   2.559   7.582  0.00  0.00    +0.330 C 
ATOM     13  C   LIG    1       -1.962   1.237   5.534  0.00  0.00    +0.520 A 
ATOM     14  O   LIG    1       -1.087   0.549   6.033  0.00  0.00    -0.530 OA
ATOM     15  C   LIG    1       -3.983   1.535   2.337  0.00  0.00    +0.400 C 
ENDBRANCH   1   4
BRANCH   1  21
ATOM     16  C   LIG    1        2.486   6.461  -0.282  0.00  0.00    +0.070 C 
ATOM     17  C   LIG    1        1.744   5.336   0.443  0.00  0.00    +0.160 C 
ATOM     18  C   LIG    1        0.248   5.320   0.050  0.00  0.00    +0.090 C 
ATOM     19  C   LIG    1       -0.054   3.834   0.030  0.00  0.00    -0.200 A 
ATOM     20  C   LIG    1       -1.238   3.131   0.033  0.00  0.00    +0.170 A 
ATOM     21  C   LIG    1       -1.221   1.747   0.017  0.00  0.00    -0.710 A 
ATOM     22  C   LIG    1       -0.013   1.076   0.008  0.00  0.00    +0.170 A 
ATOM     23  C   LIG    1        1.175   1.778   0.000  0.00  0.00    -0.020 A 
ATOM     24  C   LIG    1        1.166   3.171   0.010  0.00  0.00    +0.170 A 
ATOM     25  O   LIG    1        2.205   4.050  -0.005  0.00  0.00    -0.300 OA
ENDBRANCH   1  21
TORSDOF 2
