REMARK  Name = ZINCrH000004pirj.0
REMARK                            x       y       z     vdW  Elec       q    Type
REMARK                         _______ _______ _______ _____ _____    ______ ____
ROOT
ATOM      1  N   LIG    1        4.069   0.165  -1.703  0.00  0.00    -0.730 N 
ATOM      2  H   LIG    1        4.626  -0.147  -0.973  0.00  0.00    +0.400 HD
ATOM      3  C   LIG    1        2.915   0.810  -1.442  0.00  0.00    +0.520 C 
ATOM      4  O   LIG    1        2.218   1.200  -2.356  0.00  0.00    -0.520 OA
ENDROOT
BRANCH   1   6
ATOM      5  C   LIG    1        5.223   1.165  -3.613  0.00  0.00    +0.040 C 
ATOM      6  C   LIG    1        4.482  -0.066  -3.090  0.00  0.00    +0.280 C 
BRANCH   6   7
ATOM      7  C   LIG    1        5.394  -1.265  -3.149  0.00  0.00    -0.100 A 
ATOM      8  C   LIG    1        6.347  -1.456  -2.166  0.00  0.00    +0.040 A 
ATOM      9  C   LIG    1        7.181  -2.556  -2.215  0.00  0.00    +0.010 A 
ATOM     10  C   LIG    1        7.069  -3.464  -3.259  0.00  0.00    +0.150 A 
ATOM     11  C   LIG    1        6.114  -3.267  -4.248  0.00  0.00    +0.030 A 
ATOM     12  C   LIG    1        5.280  -2.167  -4.190  0.00  0.00    +0.060 A 
BRANCH  10  13
ATOM     13  N   LIG    1        7.917  -4.579  -3.314  0.00  0.00    -0.330 N 
ATOM     14  C   LIG    1        8.888  -4.899  -2.437  0.00  0.00    +0.480 A 
ATOM     15  N   LIG    1        9.447  -6.012  -2.840  0.00  0.00    -0.530 NA
ATOM     16  C   LIG    1        8.870  -6.425  -3.968  0.00  0.00    +0.440 A 
ATOM     17  N   LIG    1        7.928  -5.581  -4.298  0.00  0.00    -0.310 NA
ENDBRANCH  10  13
ENDBRANCH   6   7
ENDBRANCH   1   6
BRANCH   3  18
ATOM     18  C   LIG    1        2.490   1.048  -0.016  0.00  0.00    +0.110 C 
BRANCH  18  19
ATOM     19  C   LIG    1        1.175   1.783   0.000  0.00  0.00    -0.040 A 
ATOM     20  C   LIG    1       -0.013   1.076   0.008  0.00  0.00    +0.020 A 
ATOM     21  C   LIG    1       -1.219   1.751   0.017  0.00  0.00    +0.070 A 
ATOM     22  C   LIG    1       -1.238   3.133   0.030  0.00  0.00    -0.180 A 
ATOM     23  C   LIG    1       -0.050   3.840   0.022  0.00  0.00    +0.070 A 
ATOM     24  C   LIG    1        1.156   3.165   0.008  0.00  0.00    +0.020 A 
BRANCH  22  25
ATOM     25  C   LIG    1       -2.553   3.869   0.045  0.00  0.00    +0.510 C 
ATOM     26  F   LIG    1       -2.396   5.090   0.709  0.00  0.00    -0.180 F 
ATOM     27  F   LIG    1       -3.511   3.096   0.710  0.00  0.00    -0.180 F 
ATOM     28  F   LIG    1       -2.972   4.102  -1.269  0.00  0.00    -0.180 F 
ENDBRANCH  22  25
ENDBRANCH  18  19
ENDBRANCH   3  18
TORSDOF 6
