REMARK  Name = ZINCkj00000dDvbz.0
REMARK                            x       y       z     vdW  Elec       q    Type
REMARK                         _______ _______ _______ _____ _____    ______ ____
ROOT
ATOM      1  N   LIG    1       -0.288   1.272  -2.443  0.00  0.00    -0.720 N 
ATOM      2  H   LIG    1        0.507   0.726  -2.543  0.00  0.00    +0.420 HD
ATOM      3  C   LIG    1       -0.742   1.585  -1.213  0.00  0.00    +0.520 C 
ATOM      4  O   LIG    1       -1.736   2.268  -1.088  0.00  0.00    -0.530 OA
ENDROOT
BRANCH   1  11
ATOM      5  C   LIG    1       -0.699   0.849  -4.841  0.00  0.00    +0.170 C 
ATOM      6  C   LIG    1       -0.017   1.775  -5.875  0.00  0.00    +0.260 C 
ATOM      7  N   LIG    1       -0.482   3.140  -5.519  0.00  0.00    -0.510 N 
ATOM      8  C   LIG    1       -0.474   3.153  -4.034  0.00  0.00    +0.270 C 
ATOM      9  H   LIG    1        0.153   3.836  -5.881  0.00  0.00    +0.440 HD
ATOM     10  H   LIG    1       -1.415   3.298  -5.868  0.00  0.00    +0.440 HD
ATOM     11  C   LIG    1       -0.997   1.758  -3.630  0.00  0.00    +0.260 C 
BRANCH   5  13
ATOM     12  C   LIG    1        0.005  -1.412  -5.212  0.00  0.00    +0.240 C 
ATOM     13  O   LIG    1        0.184  -0.208  -4.462  0.00  0.00    -0.360 OA
ENDBRANCH   5  13
ENDBRANCH   1  11
BRANCH   3  14
ATOM     14  C   LIG    1       -0.013   1.086   0.008  0.00  0.00    +0.060 C 
BRANCH  14  15
ATOM     15  C   LIG    1       -0.729   1.579   1.267  0.00  0.00    +0.100 C 
BRANCH  15  16
ATOM     16  C   LIG    1        0.000   1.080   2.488  0.00  0.00    -0.100 A 
ATOM     17  C   LIG    1       -0.410  -0.084   3.110  0.00  0.00    +0.010 A 
ATOM     18  C   LIG    1        0.258  -0.542   4.230  0.00  0.00    +0.000 A 
ATOM     19  C   LIG    1        1.338   0.164   4.727  0.00  0.00    -0.080 A 
ATOM     20  C   LIG    1        1.749   1.328   4.104  0.00  0.00    +0.000 A 
ATOM     21  C   LIG    1        2.067  -0.335   5.948  0.00  0.00    +0.090 C 
ATOM     22  C   LIG    1        1.083   1.783   2.982  0.00  0.00    -0.080 A 
ATOM     23  C   LIG    1        1.534   3.049   2.300  0.00  0.00    +0.080 C 
ENDBRANCH  15  16
ENDBRANCH  14  15
ENDBRANCH   3  14
TORSDOF 5
