REMARK  Name = ZINCnE000001OTiE.0
REMARK                            x       y       z     vdW  Elec       q    Type
REMARK                         _______ _______ _______ _____ _____    ______ ____
ROOT
ATOM      1  S   LIG    1        1.407   2.191   0.000  0.00  0.00    +2.560 S 
ATOM      2  O   LIG    1        2.005   1.857  -1.244  0.00  0.00    -1.010 OA
ATOM      3  O   LIG    1        2.029   1.844   1.230  0.00  0.00    -1.010 OA
ENDROOT
BRANCH   1   4
ATOM      4  N   LIG    1       -0.016   1.344   0.009  0.00  0.00    -1.130 NA
ATOM      5  C   LIG    1        0.002  -0.004   0.002  0.00  0.00    +0.530 C 
ATOM      6  O   LIG    1        1.060  -0.596  -0.011  0.00  0.00    -0.630 OA
BRANCH   5   7
ATOM      7  C   LIG    1       -1.293  -0.775   0.010  0.00  0.00    +0.000 C 
ATOM      8  C   LIG    1       -2.088  -0.423   1.269  0.00  0.00    +0.030 C 
ATOM      9  C   LIG    1       -3.402  -1.206   1.277  0.00  0.00    -0.010 C 
ATOM     10  C   LIG    1       -3.102  -2.707   1.266  0.00  0.00    +0.000 C 
ATOM     11  C   LIG    1       -2.307  -3.058   0.008  0.00  0.00    -0.070 C 
ATOM     12  C   LIG    1       -3.126  -2.693  -1.232  0.00  0.00    +0.020 C 
ATOM     13  C   LIG    1       -2.007  -4.559  -0.003  0.00  0.00    +0.010 C 
ATOM     14  C   LIG    1       -0.993  -2.276  -0.001  0.00  0.00    +0.030 C 
ENDBRANCH   5   7
ENDBRANCH   1   4
BRANCH   1  15
ATOM     15  C   LIG    1        0.897   3.932   0.015  0.00  0.00    -0.310 C 
BRANCH  15  21
ATOM     16  C   LIG    1        4.434   6.456   2.497  0.00  0.00    +0.090 C 
ATOM     17  C   LIG    1        3.811   6.021   1.195  0.00  0.00    -0.080 A 
ATOM     18  C   LIG    1        4.361   6.431  -0.005  0.00  0.00    -0.010 A 
ATOM     19  C   LIG    1        3.789   6.033  -1.199  0.00  0.00    -0.080 A 
ATOM     20  C   LIG    1        2.668   5.224  -1.193  0.00  0.00    +0.010 A 
ATOM     21  C   LIG    1        2.119   4.813   0.008  0.00  0.00    -0.070 A 
ATOM     22  C   LIG    1        4.388   6.480  -2.507  0.00  0.00    +0.090 C 
ATOM     23  C   LIG    1        2.688   5.216   1.202  0.00  0.00    +0.010 A 
ENDBRANCH  15  21
ENDBRANCH   1  15
TORSDOF 4
