REMARK  Name = ZINCyk0000000obT.0
REMARK                            x       y       z     vdW  Elec       q    Type
REMARK                         _______ _______ _______ _____ _____    ______ ____
ROOT
ATOM      1  N   LIG    1        7.838   1.635  -1.508  0.00  0.00    -0.670 N 
ATOM      2  H   LIG    1        8.473   1.229  -0.897  0.00  0.00    +0.420 HD
ATOM      3  C   LIG    1        6.524   1.642  -1.208  0.00  0.00    +0.510 C 
ATOM      4  O   LIG    1        5.742   2.232  -1.922  0.00  0.00    -0.490 OA
ENDROOT
BRANCH   1   8
ATOM      5  C   LIG    1        9.173   3.360  -5.064  0.00  0.00    +0.070 A 
ATOM      6  C   LIG    1        9.971   3.404  -3.928  0.00  0.00    +0.030 A 
ATOM      7  C   LIG    1        9.529   2.833  -2.751  0.00  0.00    +0.020 A 
ATOM      8  C   LIG    1        8.287   2.215  -2.703  0.00  0.00    +0.150 A 
ATOM      9  C   LIG    1        7.491   2.165  -3.840  0.00  0.00    +0.050 A 
ATOM     10  C   LIG    1        7.931   2.741  -5.015  0.00  0.00    -0.010 A 
BRANCH   5  15
ATOM     11  C   LIG    1        9.993   6.364  -9.676  0.00  0.00    +0.330 C 
ATOM     12  N   LIG    1        9.481   5.792  -8.424  0.00  0.00    -0.390 N 
ATOM     13  C   LIG    1        9.177   4.369  -8.624  0.00  0.00    +0.280 C 
ATOM     14  C   LIG    1        8.626   3.777  -7.325  0.00  0.00    +0.220 C 
ATOM     15  N   LIG    1        9.621   3.938  -6.256  0.00  0.00    -0.480 N 
ATOM     16  C   LIG    1        9.954   5.356  -6.061  0.00  0.00    +0.220 C 
ATOM     17  C   LIG    1       10.494   5.935  -7.370  0.00  0.00    +0.280 C 
ATOM     18  H   LIG    1        8.641   6.280  -8.151  0.00  0.00    +0.420 HD
ENDBRANCH   5  15
ENDBRANCH   1   8
BRANCH   3  19
ATOM     19  C   LIG    1        6.028   0.916   0.016  0.00  0.00    +0.290 C 
BRANCH  19  20
ATOM     20  N   LIG    1        4.575   1.073   0.121  0.00  0.00    -0.570 N 
ATOM     21  C   LIG    1        3.943   2.255   0.233  0.00  0.00    +0.580 C 
ATOM     22  C   LIG    1        2.488   2.005   0.312  0.00  0.00    -0.140 A 
ATOM     23  C   LIG    1        1.373   2.817   0.434  0.00  0.00    +0.100 A 
ATOM     24  C   LIG    1        0.109   2.248   0.482  0.00  0.00    +0.060 A 
ATOM     25  C   LIG    1       -0.043   0.876   0.409  0.00  0.00    +0.060 A 
ATOM     26  C   LIG    1        1.064   0.051   0.287  0.00  0.00    +0.100 A 
ATOM     27  C   LIG    1        2.332   0.606   0.238  0.00  0.00    -0.150 A 
ATOM     28  O   LIG    1        4.478   3.345   0.263  0.00  0.00    -0.440 OA
ATOM     29  C   LIG    1        3.697   0.053   0.117  0.00  0.00    +0.580 C 
ATOM     30  O   LIG    1        3.980  -1.125   0.027  0.00  0.00    -0.460 OA
ENDBRANCH  19  20
BRANCH  19  31
ATOM     31  C   LIG    1        6.695   1.502   1.262  0.00  0.00    +0.090 C 
BRANCH  31  32
ATOM     32  C   LIG    1        6.287   0.686   2.491  0.00  0.00    -0.340 C 
BRANCH  32  33
ATOM     33  S   LIG    1        7.078   1.381   3.968  0.00  0.00    +2.420 S 
ATOM     34  O   LIG    1        6.555   2.683   4.192  0.00  0.00    -0.930 OA
ATOM     35  O   LIG    1        8.484   1.208   3.852  0.00  0.00    -0.930 OA
ATOM     36  C   LIG    1        6.466   0.280   5.273  0.00  0.00    -0.250 C 
ENDBRANCH  32  33
ENDBRANCH  31  32
ENDBRANCH  19  31
ENDBRANCH   3  19
TORSDOF 7
