REMARK  Name = ZINCqH0000000YiE.0
REMARK                            x       y       z     vdW  Elec       q    Type
REMARK                         _______ _______ _______ _____ _____    ______ ____
ROOT
ATOM      1  C   LIG    1        3.127   8.932  -0.085  0.00  0.00    +0.500 C 
ATOM      2  N   LIG    1        3.733   7.732   0.005  0.00  0.00    -0.660 N 
ATOM      3  H   LIG    1        4.700   7.680   0.065  0.00  0.00    +0.410 HD
ATOM      4  O   LIG    1        1.916   9.002  -0.074  0.00  0.00    -0.490 OA
ENDROOT
BRANCH   2   5
ATOM      5  C   LIG    1        2.967   6.559   0.014  0.00  0.00    +0.080 A 
ATOM      6  C   LIG    1        1.719   6.537   0.632  0.00  0.00    +0.110 A 
ATOM      7  C   LIG    1        0.998   5.356   0.617  0.00  0.00    +0.010 A 
ATOM      8  C   LIG    1        1.538   4.240  -0.010  0.00  0.00    +0.350 A 
ATOM      9  N   LIG    1        2.730   4.296  -0.583  0.00  0.00    -0.490 NA
ATOM     10  C   LIG    1        3.443   5.405  -0.592  0.00  0.00    +0.280 A 
BRANCH   8  11
ATOM     11  N   LIG    1        0.817   3.042  -0.031  0.00  0.00    -0.330 N 
ATOM     12  C   LIG    1        1.216   1.877  -0.603  0.00  0.00    +0.260 A 
ATOM     13  C   LIG    1        0.239   0.964  -0.399  0.00  0.00    -0.100 A 
ATOM     14  C   LIG    1       -0.793   1.587   0.311  0.00  0.00    +0.260 A 
ATOM     15  N   LIG    1       -0.448   2.829   0.535  0.00  0.00    -0.290 NA
ENDBRANCH   8  11
ENDBRANCH   2   5
BRANCH   1  16
ATOM     16  C   LIG    1        3.953  10.187  -0.201  0.00  0.00    +0.220 C 
BRANCH  16  17
ATOM     17  C   LIG    1        4.749  10.383   1.064  0.00  0.00    -0.100 A 
ATOM     18  C   LIG    1        4.147  10.930   2.182  0.00  0.00    +0.050 A 
ATOM     19  C   LIG    1        4.875  11.105   3.343  0.00  0.00    +0.010 A 
ATOM     20  C   LIG    1        6.208  10.742   3.384  0.00  0.00    +0.020 A 
ATOM     21  C   LIG    1        6.812  10.200   2.265  0.00  0.00    +0.010 A 
ATOM     22  C   LIG    1        6.082  10.020   1.105  0.00  0.00    +0.010 A 
ENDBRANCH  16  17
BRANCH  16  23
ATOM     23  O   LIG    1        3.091  11.309  -0.400  0.00  0.00    -0.330 OA
BRANCH  23  25
ATOM     24  C   LIG    1        2.141  10.386  -2.421  0.00  0.00    +0.020 C 
ATOM     25  C   LIG    1        2.817  11.595  -1.772  0.00  0.00    +0.100 C 
ATOM     26  C   LIG    1        4.127  11.899  -2.501  0.00  0.00    +0.020 C 
ATOM     27  C   LIG    1        1.889  12.809  -1.865  0.00  0.00    +0.070 C 
ENDBRANCH  23  25
ENDBRANCH  16  23
ENDBRANCH   1  16
TORSDOF 6
