REMARK  Name = ZINCtj00000roFQC.1
REMARK                            x       y       z     vdW  Elec       q    Type
REMARK                         _______ _______ _______ _____ _____    ______ ____
ROOT
ATOM      1  N   LIG    1        1.097   3.398   0.009  0.00  0.00    -0.480 NA
ATOM      2  C   LIG    1        1.773   3.947  -1.194  0.00  0.00    +0.210 C 
ATOM      3  C   LIG    1        2.118   5.398  -0.775  0.00  0.00    +0.190 C 
ATOM      4  C   LIG    1        2.505   5.246   0.714  0.00  0.00    +0.270 C 
ATOM      5  C   LIG    1        1.841   3.934   1.170  0.00  0.00    +0.220 C 
ENDROOT
BRANCH   1   8
ATOM      6  C   LIG    1        0.002  -0.004   0.002  0.00  0.00    +0.630 C 
ATOM      7  N   LIG    1       -0.016   1.320   0.009  0.00  0.00    -0.500 NA
ATOM      8  C   LIG    1        1.119   2.013   0.002  0.00  0.00    +0.480 C 
ATOM      9  C   LIG    1        2.333   1.323  -0.013  0.00  0.00    -0.080 C 
ATOM     10  C   LIG    1        2.307  -0.058  -0.020  0.00  0.00    +0.440 C 
ATOM     11  N   LIG    1        1.139  -0.684  -0.013  0.00  0.00    -0.550 NA
ATOM     12  H   LIG    1        1.117  -1.653  -0.018  0.00  0.00    +0.450 HD
BRANCH   6  14
ATOM     13  C   LIG    1       -1.198  -2.160   0.002  0.00  0.00    +0.330 C 
ATOM     14  N   LIG    1       -1.197  -0.695   0.010  0.00  0.00    -0.660 NA
ATOM     15  H   LIG    1       -2.037  -0.209   0.021  0.00  0.00    +0.450 HD
ENDBRANCH   6  14
ENDBRANCH   1   8
BRANCH   4  16
ATOM     16  N   LIG    1        3.961   5.154   0.854  0.00  0.00    -0.720 N 
ATOM     17  H   LIG    1        4.500   4.833   0.114  0.00  0.00    +0.410 HD
ATOM     18  C   LIG    1        4.550   5.516   2.011  0.00  0.00    +0.560 C 
ATOM     19  O   LIG    1        3.874   5.918   2.938  0.00  0.00    -0.500 OA
BRANCH  18  20
ATOM     20  C   LIG    1        6.016   5.424   2.152  0.00  0.00    -0.150 A 
ATOM     21  C   LIG    1        6.799   4.957   1.091  0.00  0.00    +0.050 A 
ATOM     22  C   LIG    1        8.168   4.877   1.227  0.00  0.00    +0.020 A 
ATOM     23  C   LIG    1        8.779   5.249   2.415  0.00  0.00    +0.050 A 
ATOM     24  C   LIG    1        8.014   5.709   3.473  0.00  0.00    +0.060 A 
ATOM     25  O   LIG    1        8.610   6.077   4.644  0.00  0.00    -0.320 OA
ATOM     26  C   LIG    1        8.565   7.470   4.958  0.00  0.00    +0.230 C 
ATOM     27  C   LIG    1        7.254   7.827   5.641  0.00  0.00    +0.000 C 
ATOM     28  C   LIG    1        6.053   7.629   4.730  0.00  0.00    +0.240 C 
ATOM     29  O   LIG    1        5.891   6.248   4.397  0.00  0.00    -0.300 OA
ATOM     30  C   LIG    1        6.635   5.798   3.349  0.00  0.00    +0.130 A 
ENDBRANCH  18  20
ENDBRANCH   4  16
BRANCH   3  31
ATOM     31  O   LIG    1        3.220   5.896  -1.536  0.00  0.00    -0.370 OA
ATOM     32  C   LIG    1        2.840   6.583  -2.729  0.00  0.00    +0.230 C 
ENDBRANCH   3  31
TORSDOF 5
