REMARK  Name = ZINCpe00000MJLcN.0
REMARK                            x       y       z     vdW  Elec       q    Type
REMARK                         _______ _______ _______ _____ _____    ______ ____
ROOT
ATOM      1  C   LIG    1       -1.289   3.116  -1.151  0.00  0.00    +0.260 C 
ATOM      2  C   LIG    1       -0.051   4.010  -1.048  0.00  0.00    +0.030 C 
ATOM      3  C   LIG    1        1.211   3.150  -1.147  0.00  0.00    +0.040 C 
ATOM      4  C   LIG    1        1.237   2.153   0.015  0.00  0.00    +0.290 C 
ATOM      5  N   LIG    1       -0.017   1.387   0.010  0.00  0.00    -0.580 N 
ATOM      6  C   LIG    1       -1.291   2.118   0.006  0.00  0.00    +0.300 C 
ENDROOT
BRANCH   5   7
ATOM      7  C   LIG    1        0.002  -0.004   0.002  0.00  0.00    +0.400 A 
ATOM      8  N   LIG    1        1.148  -0.639  -0.112  0.00  0.00    -0.290 NA
ATOM      9  N   LIG    1        1.186  -2.034  -0.121  0.00  0.00    -0.160 N 
ATOM     10  N   LIG    1        2.223  -2.971  -0.226  0.00  0.00    -0.270 NA
ATOM     11  C   LIG    1        1.671  -4.164  -0.177  0.00  0.00    +0.230 A 
ATOM     12  N   LIG    1        0.360  -4.043  -0.050  0.00  0.00    -0.510 NA
ATOM     13  C   LIG    1        2.419  -5.471  -0.256  0.00  0.00    +0.210 C 
ATOM     14  C   LIG    1        0.031  -2.755  -0.012  0.00  0.00    +0.210 A 
ATOM     15  C   LIG    1       -1.195  -2.078   0.110  0.00  0.00    +0.170 A 
ATOM     16  C   LIG    1       -1.204  -0.717   0.122  0.00  0.00    +0.000 A 
ENDBRANCH   5   7
BRANCH   1  19
ATOM     17  C   LIG    1       -4.478   4.637  -1.462  0.00  0.00    -0.010 A 
ATOM     18  N   LIG    1       -3.580   3.712  -1.737  0.00  0.00    -0.260 NA
ATOM     19  N   LIG    1       -2.496   3.944  -1.088  0.00  0.00    -0.280 N 
ATOM     20  C   LIG    1       -2.627   5.063  -0.344  0.00  0.00    +0.170 A 
ATOM     21  C   LIG    1       -3.877   5.539  -0.553  0.00  0.00    -0.010 A 
BRANCH  17  25
ATOM     22  C   LIG    1       -7.649   3.866  -3.409  0.00  0.00    +0.290 C 
ATOM     23  N   LIG    1       -6.289   3.784  -2.870  0.00  0.00    -0.720 N 
ATOM     24  H   LIG    1       -5.706   3.056  -3.135  0.00  0.00    +0.410 HD
ATOM     25  C   LIG    1       -5.849   4.720  -2.006  0.00  0.00    +0.600 C 
ATOM     26  O   LIG    1       -6.580   5.633  -1.675  0.00  0.00    -0.530 OA
ENDBRANCH  17  25
ENDBRANCH   1  19
TORSDOF 3
