REMARK  Name = ZINCrH000004q6Wd.0
REMARK                            x       y       z     vdW  Elec       q    Type
REMARK                         _______ _______ _______ _____ _____    ______ ____
ROOT
ATOM      1  C   LIG    1        6.183   0.999   1.803  0.00  0.00    +0.600 C 
ATOM      2  N   LIG    1        5.132   0.783   0.987  0.00  0.00    -0.600 N 
ATOM      3  C   LIG    1        4.442  -0.509   1.009  0.00  0.00    +0.330 C 
ATOM      4  O   LIG    1        6.685   2.106   1.868  0.00  0.00    -0.520 OA
ENDROOT
BRANCH   1   7
ATOM      5  C   LIG    1        8.281   1.373   3.889  0.00  0.00    +0.140 C 
ATOM      6  C   LIG    1        7.664   0.039   3.558  0.00  0.00    +0.060 A 
ATOM      7  C   LIG    1        6.721  -0.098   2.613  0.00  0.00    -0.290 A 
ATOM      8  S   LIG    1        6.215  -1.775   2.488  0.00  0.00    +0.260 S 
ATOM      9  C   LIG    1        7.339  -2.258   3.752  0.00  0.00    +0.060 A 
ATOM     10  N   LIG    1        7.593  -3.465   4.296  0.00  0.00    -0.510 NA
ATOM     11  C   LIG    1        8.469  -3.630   5.241  0.00  0.00    +0.610 A 
ATOM     12  N   LIG    1        9.194  -2.604   5.753  0.00  0.00    -0.540 N 
ATOM     13  C   LIG    1       10.166  -2.860   6.819  0.00  0.00    +0.330 C 
ATOM     14  C   LIG    1        9.024  -1.350   5.287  0.00  0.00    +0.560 A 
ATOM     15  O   LIG    1        9.669  -0.420   5.740  0.00  0.00    -0.500 OA
ATOM     16  C   LIG    1        8.034  -1.135   4.212  0.00  0.00    -0.240 A 
ENDBRANCH   1   7
BRANCH   2  17
ATOM     17  C   LIG    1        4.680   1.840   0.079  0.00  0.00    +0.350 C 
ATOM     18  C   LIG    1        4.776   1.346  -1.366  0.00  0.00    +0.070 C 
BRANCH  17  19
ATOM     19  C   LIG    1        3.250   2.196   0.395  0.00  0.00    +0.070 A 
ATOM     20  N   LIG    1        2.325   1.338   0.607  0.00  0.00    -0.460 NA
ATOM     21  C   LIG    1        1.090   1.800   0.879  0.00  0.00    +0.080 A 
ATOM     22  C   LIG    1       -0.098   1.089   1.148  0.00  0.00    +0.080 A 
ATOM     23  C   LIG    1       -1.259   1.756   1.396  0.00  0.00    +0.030 A 
ATOM     24  C   LIG    1       -1.295   3.143   1.398  0.00  0.00    +0.040 A 
ATOM     25  C   LIG    1       -0.150   3.863   1.138  0.00  0.00    +0.060 A 
ATOM     26  C   LIG    1        1.046   3.198   0.877  0.00  0.00    -0.180 A 
ATOM     27  S   LIG    1        2.662   3.793   0.513  0.00  0.00    +0.130 S 
ENDBRANCH  17  19
ENDBRANCH   2  17
TORSDOF 3
