REMARK  Name = ZINCvU0000000JJs.0
REMARK                            x       y       z     vdW  Elec       q    Type
REMARK                         _______ _______ _______ _____ _____    ______ ____
ROOT
ATOM      1  N   LIG    1        0.180   2.575  -0.324  0.00  0.00    -0.460 N 
ATOM      2  C   LIG    1        1.574   2.636  -0.341  0.00  0.00    +0.110 A 
ATOM      3  C   LIG    1        2.195   3.866  -0.143  0.00  0.00    -0.020 A 
ATOM      4  C   LIG    1        3.572   3.961  -0.168  0.00  0.00    +0.010 A 
ATOM      5  C   LIG    1        4.345   2.837  -0.389  0.00  0.00    -0.010 A 
ATOM      6  C   LIG    1        3.740   1.609  -0.584  0.00  0.00    +0.050 A 
ATOM      7  C   LIG    1        2.358   1.506  -0.559  0.00  0.00    +0.140 A 
ATOM      8  N   LIG    1        1.753   0.250  -0.747  0.00  0.00    -0.530 N 
ATOM      9  C   LIG    1        0.298   0.219  -0.970  0.00  0.00    +0.300 C 
ATOM     10  C   LIG    1        2.480  -0.885  -0.725  0.00  0.00    +0.660 C 
ATOM     11  O   LIG    1        3.688  -0.830  -0.609  0.00  0.00    -0.540 OA
ATOM     12  C   LIG    1       -0.331   1.238  -0.009  0.00  0.00    +0.140 C 
ATOM     13  C   LIG    1       -1.853   1.220  -0.170  0.00  0.00    +0.050 C 
ENDROOT
BRANCH   1  14
ATOM     14  C   LIG    1       -0.381   3.581   0.588  0.00  0.00    +0.270 C 
BRANCH  14  17
ATOM     15  N   LIG    1       -0.298   4.101   3.005  0.00  0.00    -0.670 N 
ATOM     16  H   LIG    1       -0.905   4.839   2.835  0.00  0.00    +0.410 HD
ATOM     17  C   LIG    1        0.136   3.337   1.983  0.00  0.00    +0.470 C 
ATOM     18  O   LIG    1        0.942   2.454   2.185  0.00  0.00    -0.480 OA
BRANCH  15  23
ATOM     19  C   LIG    1        1.420   3.001   8.300  0.00  0.00    +0.100 C 
ATOM     20  C   LIG    1        0.964   3.293   6.893  0.00  0.00    -0.080 A 
ATOM     21  C   LIG    1        0.903   4.599   6.445  0.00  0.00    +0.030 A 
ATOM     22  C   LIG    1        0.491   4.870   5.154  0.00  0.00    -0.090 A 
ATOM     23  C   LIG    1        0.126   3.830   4.311  0.00  0.00    +0.150 A 
ATOM     24  C   LIG    1        0.188   2.517   4.764  0.00  0.00    -0.030 A 
ATOM     25 CL   LIG    1       -0.260   1.212   3.711  0.00  0.00    -0.040 Cl
ATOM     26  C   LIG    1        0.431   6.294   4.665  0.00  0.00    +0.100 C 
ATOM     27  C   LIG    1        0.607   2.253   6.054  0.00  0.00    +0.030 A 
ENDBRANCH  15  23
ENDBRANCH  14  17
ENDBRANCH   1  14
BRANCH  10  28
ATOM     28  O   LIG    1        1.867  -2.079  -0.831  0.00  0.00    -0.360 OA
BRANCH  28  29
ATOM     29  C   LIG    1        2.713  -3.259  -0.800  0.00  0.00    +0.140 C 
ATOM     30  C   LIG    1        3.709  -3.204  -1.959  0.00  0.00    +0.040 C 
ATOM     31  C   LIG    1        1.845  -4.512  -0.932  0.00  0.00    +0.080 C 
ATOM     32  C   LIG    1        3.475  -3.305   0.526  0.00  0.00    +0.040 C 
ENDBRANCH  28  29
ENDBRANCH  10  28
TORSDOF 5
