REMARK  Name = ZINCrD00000f3hEO.0
REMARK                            x       y       z     vdW  Elec       q    Type
REMARK                         _______ _______ _______ _____ _____    ______ ____
ROOT
ATOM      1  C   LIG    1        4.914   0.067   1.128  0.00  0.00    +0.310 C 
ATOM      2  C   LIG    1        6.287   0.742   1.099  0.00  0.00    +0.080 C 
ENDROOT
BRANCH   1   3
ATOM      3  N   LIG    1        4.210   0.335  -0.133  0.00  0.00    -0.500 NA
ATOM      4  C   LIG    1        4.906  -0.256  -1.251  0.00  0.00    +0.140 C 
ATOM      5  C   LIG    1        4.819   0.626  -2.509  0.00  0.00    +0.240 C 
ATOM      6  O   LIG    1        3.508   1.202  -2.698  0.00  0.00    -0.370 OA
ATOM      7  C   LIG    1        2.402   0.374  -2.467  0.00  0.00    +0.210 C 
ATOM      8  C   LIG    1        1.926   0.546  -1.004  0.00  0.00    -0.090 C 
ATOM      9  C   LIG    1        0.487   0.011  -0.920  0.00  0.00    +0.010 C 
ATOM     10  C   LIG    1       -0.077   0.307   0.470  0.00  0.00    +0.200 C 
ATOM     11  O   LIG    1       -0.038   1.715   0.711  0.00  0.00    -0.380 OA
ATOM     12  C   LIG    1        1.276   2.275   0.678  0.00  0.00    +0.200 C 
ATOM     13  C   LIG    1        1.888   2.055  -0.708  0.00  0.00    +0.030 C 
ATOM     14  C   LIG    1        2.822  -0.161  -0.079  0.00  0.00    +0.180 C 
ENDBRANCH   1   3
BRANCH   1  18
ATOM     15  C   LIG    1        5.162  -3.392   2.075  0.00  0.00    +0.210 A 
ATOM     16  N   LIG    1        5.529  -3.407   0.820  0.00  0.00    -0.370 NA
ATOM     17  O   LIG    1        5.488  -2.285   0.360  0.00  0.00    +0.080 OA
ATOM     18  C   LIG    1        5.090  -1.420   1.298  0.00  0.00    +0.150 A 
ATOM     19  N   LIG    1        4.876  -2.109   2.392  0.00  0.00    -0.460 NA
BRANCH  15  24
ATOM     20  C   LIG    1        4.829  -7.936   5.600  0.00  0.00    +0.110 C 
ATOM     21  C   LIG    1        4.916  -6.748   4.677  0.00  0.00    -0.100 A 
ATOM     22  C   LIG    1        4.590  -5.488   5.144  0.00  0.00    +0.050 A 
ATOM     23  C   LIG    1        4.673  -4.395   4.305  0.00  0.00    +0.060 A 
ATOM     24  C   LIG    1        5.076  -4.564   2.982  0.00  0.00    -0.000 A 
ATOM     25  C   LIG    1        5.404  -5.834   2.515  0.00  0.00    +0.030 A 
ATOM     26  C   LIG    1        5.323  -6.922   3.364  0.00  0.00    +0.100 A 
ATOM     27  F   LIG    1        5.641  -8.155   2.914  0.00  0.00    -0.130 F 
ENDBRANCH  15  24
ENDBRANCH   1  18
TORSDOF 3
