REMARK  Name = ZINCqH0000007k0Q.0
REMARK                            x       y       z     vdW  Elec       q    Type
REMARK                         _______ _______ _______ _____ _____    ______ ____
ROOT
ATOM      1  C   LIG    1       -1.187   1.624   0.017  0.00  0.00    +0.510 C 
ATOM      2  N   LIG    1       -0.011   0.966   0.007  0.00  0.00    -0.630 N 
ATOM      3  H   LIG    1        0.002  -0.004   0.002  0.00  0.00    +0.420 HD
ATOM      4  O   LIG    1       -1.204   2.837   0.023  0.00  0.00    -0.490 OA
ENDROOT
BRANCH   2   5
ATOM      5  C   LIG    1        1.181   1.676  -0.000  0.00  0.00    +0.050 A 
ATOM      6  C   LIG    1        2.422   1.109  -0.015  0.00  0.00    -0.110 A 
ATOM      7  C   LIG    1        3.503   2.081  -0.021  0.00  0.00    -0.040 A 
ATOM      8  C   LIG    1        3.055   3.340  -0.005  0.00  0.00    -0.240 A 
ATOM      9  C   LIG    1        3.928   4.577   0.005  0.00  0.00    +0.110 C 
ATOM     10  C   LIG    1        5.014   4.458  -1.064  0.00  0.00    +0.020 C 
ATOM     11  C   LIG    1        6.246   3.793  -0.457  0.00  0.00    +0.000 C 
ATOM     12  C   LIG    1        5.819   2.774   0.598  0.00  0.00    +0.030 C 
ATOM     13  C   LIG    1        4.970   1.688  -0.054  0.00  0.00    +0.090 C 
ATOM     14  S   LIG    1        1.296   3.374   0.001  0.00  0.00    +0.320 S 
BRANCH   6  15
ATOM     15  C   LIG    1        2.638  -0.307  -0.023  0.00  0.00    +0.270 C 
ATOM     16  N   LIG    1        2.810  -1.430  -0.030  0.00  0.00    -0.420 NA
ENDBRANCH   6  15
ENDBRANCH   2   5
BRANCH   1  17
ATOM     17  C   LIG    1       -2.482   0.853   0.018  0.00  0.00    +0.250 C 
ATOM     18  C   LIG    1       -2.545  -0.035   1.263  0.00  0.00    +0.050 C 
BRANCH  17  19
ATOM     19  N   LIG    1       -3.608   1.789   0.029  0.00  0.00    -0.730 N 
ATOM     20  H   LIG    1       -3.493   2.683   0.388  0.00  0.00    +0.410 HD
BRANCH  19  24
ATOM     21  C   LIG    1       -7.239   0.554  -1.487  0.00  0.00    +0.270 A 
ATOM     22  C   LIG    1       -7.139   1.845  -0.987  0.00  0.00    +0.000 A 
ATOM     23  C   LIG    1       -5.930   2.277  -0.469  0.00  0.00    +0.030 A 
ATOM     24  C   LIG    1       -4.851   1.395  -0.480  0.00  0.00    +0.130 A 
ATOM     25  C   LIG    1       -5.027   0.119  -0.996  0.00  0.00    +0.210 A 
ATOM     26  N   LIG    1       -6.196  -0.259  -1.477  0.00  0.00    -0.500 NA
BRANCH  21  28
ATOM     27  C   LIG    1       -8.462  -1.218  -2.493  0.00  0.00    +0.250 C 
ATOM     28  O   LIG    1       -8.422   0.120  -1.993  0.00  0.00    -0.310 OA
ENDBRANCH  21  28
ENDBRANCH  19  24
ENDBRANCH  17  19
ENDBRANCH   1  17
TORSDOF 6
