REMARK  Name = ZINCrH000004v6fV.0
REMARK                            x       y       z     vdW  Elec       q    Type
REMARK                         _______ _______ _______ _____ _____    ______ ____
ROOT
ATOM      1  C   LIG    1       -2.374   2.650   3.678  0.00  0.00    -0.080 A 
ATOM      2  C   LIG    1       -2.574   1.393   3.106  0.00  0.00    +0.080 A 
ATOM      3  C   LIG    1       -1.864   1.030   1.980  0.00  0.00    +0.120 A 
ATOM      4  C   LIG    1       -0.956   1.909   1.417  0.00  0.00    -0.650 A 
ATOM      5  C   LIG    1       -0.750   3.155   1.982  0.00  0.00    +0.120 A 
ATOM      6  C   LIG    1       -1.456   3.533   3.105  0.00  0.00    +0.030 A 
ENDROOT
BRANCH   1   8
ATOM      7  O   LIG    1       -3.930   2.275   5.381  0.00  0.00    -0.500 OA
ATOM      8  C   LIG    1       -3.131   3.046   4.884  0.00  0.00    +0.560 C 
ATOM      9  N   LIG    1       -2.936   4.261   5.434  0.00  0.00    -0.660 N 
ATOM     10  H   LIG    1       -2.242   4.844   5.088  0.00  0.00    +0.420 HD
BRANCH   9  11
ATOM     11  C   LIG    1       -3.734   4.681   6.506  0.00  0.00    +0.110 A 
ATOM     12  C   LIG    1       -5.001   4.144   6.681  0.00  0.00    +0.090 A 
ATOM     13  C   LIG    1       -5.785   4.556   7.742  0.00  0.00    +0.010 A 
ATOM     14  C   LIG    1       -5.312   5.513   8.623  0.00  0.00    +0.120 A 
ATOM     15  C   LIG    1       -4.050   6.055   8.449  0.00  0.00    -0.010 A 
ATOM     16  F   LIG    1       -6.084   5.917   9.656  0.00  0.00    -0.130 F 
ATOM     17  C   LIG    1       -3.260   5.642   7.393  0.00  0.00    +0.100 A 
ATOM     18  F   LIG    1       -2.029   6.172   7.221  0.00  0.00    -0.130 F 
ENDBRANCH   9  11
ENDBRANCH   1   8
BRANCH   4  19
ATOM     19  S   LIG    1       -0.054   1.438  -0.021  0.00  0.00    +2.680 S 
ATOM     20  O   LIG    1        1.124   2.233  -0.034  0.00  0.00    -0.950 OA
ATOM     21  O   LIG    1       -0.033   0.017  -0.033  0.00  0.00    -0.940 OA
BRANCH  19  22
ATOM     22  N   LIG    1       -0.948   1.904  -1.335  0.00  0.00    -0.990 NA
ATOM     23  C   LIG    1       -1.905   0.972  -1.888  0.00  0.00    +0.280 C 
ATOM     24  C   LIG    1       -1.224   0.091  -2.957  0.00  0.00    +0.010 C 
ATOM     25  C   LIG    1       -0.932   0.884  -4.161  0.00  0.00    +0.000 C 
ATOM     26  C   LIG    1        0.046   2.033  -3.936  0.00  0.00    +0.010 C 
ATOM     27  C   LIG    1       -0.707   3.241  -3.436  0.00  0.00    +0.020 C 
ATOM     28  C   LIG    1       -0.730   3.251  -1.897  0.00  0.00    +0.280 C 
ENDBRANCH  19  22
ENDBRANCH   4  19
TORSDOF 4
