REMARK  Name = ZINCtV00000L6kfi.0
REMARK                            x       y       z     vdW  Elec       q    Type
REMARK                         _______ _______ _______ _____ _____    ______ ____
ROOT
ATOM      1  C   LIG    1       -1.815   2.348  -1.344  0.00  0.00    +0.070 C 
ENDROOT
BRANCH   1   3
ATOM      2  N   LIG    1       -3.531   3.699  -2.506  0.00  0.00    -0.610 N 
ATOM      3  C   LIG    1       -2.989   3.294  -1.340  0.00  0.00    +0.520 C 
ATOM      4  O   LIG    1       -3.444   3.691  -0.289  0.00  0.00    -0.530 OA
ATOM      5  C   LIG    1       -2.980   3.220  -3.776  0.00  0.00    +0.280 C 
BRANCH   2   7
ATOM      6  C   LIG    1       -4.257   5.947  -3.138  0.00  0.00    +0.040 C 
ATOM      7  C   LIG    1       -4.671   4.619  -2.502  0.00  0.00    +0.290 C 
BRANCH   7   8
ATOM      8  C   LIG    1       -5.805   4.016  -3.291  0.00  0.00    -0.090 A 
ATOM      9  C   LIG    1       -6.079   4.473  -4.566  0.00  0.00    +0.060 A 
ATOM     10  C   LIG    1       -7.115   3.917  -5.293  0.00  0.00    +0.030 A 
ATOM     11  C   LIG    1       -7.886   2.910  -4.740  0.00  0.00    -0.020 A 
ATOM     12  C   LIG    1       -7.616   2.456  -3.461  0.00  0.00    +0.040 A 
ATOM     13 CL   LIG    1       -9.191   2.216  -5.650  0.00  0.00    -0.050 Cl
ATOM     14  C   LIG    1       -6.575   3.009  -2.737  0.00  0.00    -0.010 A 
ATOM     15 CL   LIG    1       -6.235   2.439  -1.132  0.00  0.00    -0.040 Cl
ENDBRANCH   7   8
ENDBRANCH   2   7
ENDBRANCH   1   3
BRANCH   1  16
ATOM     16  C   LIG    1       -1.396   2.050   0.097  0.00  0.00    +0.210 C 
BRANCH  16  17
ATOM     17  C   LIG    1       -0.223   1.104   0.094  0.00  0.00    +0.200 A 
ATOM     18  N   LIG    1        1.032   1.455   0.063  0.00  0.00    -0.470 NA
ATOM     19  C   LIG    1        1.792   0.349   0.065  0.00  0.00    +0.190 A 
ATOM     20  C   LIG    1        0.958  -0.721   0.098  0.00  0.00    -0.020 A 
ATOM     21  O   LIG    1       -0.302  -0.234   0.115  0.00  0.00    -0.190 OA
BRANCH  20  22
ATOM     22  C   LIG    1        1.352  -2.145   0.111  0.00  0.00    -0.090 A 
ATOM     23  C   LIG    1        1.020  -2.976  -0.963  0.00  0.00    +0.160 A 
ATOM     24  C   LIG    1        1.397  -4.306  -0.945  0.00  0.00    -0.010 A 
ATOM     25  C   LIG    1        2.091  -4.817   0.137  0.00  0.00    +0.110 A 
ATOM     26  C   LIG    1        2.418  -4.003   1.206  0.00  0.00    -0.010 A 
ATOM     27  F   LIG    1        0.338  -2.479  -2.018  0.00  0.00    -0.120 F 
ATOM     28  C   LIG    1        2.053  -2.670   1.200  0.00  0.00    +0.160 A 
ATOM     29  F   LIG    1        2.373  -1.876   2.245  0.00  0.00    -0.120 F 
ENDBRANCH  20  22
ENDBRANCH  16  17
ENDBRANCH   1  16
TORSDOF 6
