REMARK  Name = ZINCpk00000y6xMt.0
REMARK                            x       y       z     vdW  Elec       q    Type
REMARK                         _______ _______ _______ _____ _____    ______ ____
ROOT
ATOM      1  C   LIG    1       -1.308  -2.072   0.091  0.00  0.00    +0.130 C 
ATOM      2  C   LIG    1       -0.304  -2.664   1.083  0.00  0.00    -0.010 C 
ATOM      3  C   LIG    1        1.073  -2.043   0.835  0.00  0.00    +0.040 C 
ATOM      4  C   LIG    1        0.974  -0.522   0.973  0.00  0.00    +0.170 C 
ATOM      5  N   LIG    1        0.002  -0.004   0.002  0.00  0.00    -0.510 NA
ATOM      6  C   LIG    1       -1.338  -0.550   0.250  0.00  0.00    +0.210 C 
ENDROOT
BRANCH   1   7
ATOM      7  O   LIG    1       -0.916  -2.404  -1.243  0.00  0.00    -0.530 OA
ATOM      8  H   LIG    1       -0.875  -3.355  -1.415  0.00  0.00    +0.380 HD
ENDBRANCH   1   7
BRANCH   5   9
ATOM      9  C   LIG    1       -0.018   1.465   0.010  0.00  0.00    +0.300 C 
BRANCH   9  10
ATOM     10  C   LIG    1        1.396   1.986  -0.001  0.00  0.00    +0.220 A 
ATOM     11  N   LIG    1        2.100   2.256  -1.066  0.00  0.00    -0.460 NA
ATOM     12  C   LIG    1        3.312   2.700  -0.697  0.00  0.00    +0.160 A 
ATOM     13  C   LIG    1        3.365   2.707   0.649  0.00  0.00    +0.130 A 
ATOM     14  N   LIG    1        2.148   2.260   1.097  0.00  0.00    -0.420 N 
BRANCH  14  15
ATOM     15  C   LIG    1        1.757   2.111   2.435  0.00  0.00    +0.120 A 
ATOM     16  C   LIG    1        0.555   2.651   2.872  0.00  0.00    +0.010 A 
ATOM     17  C   LIG    1        0.169   2.498   4.189  0.00  0.00    +0.030 A 
ATOM     18  C   LIG    1        0.984   1.816   5.075  0.00  0.00    +0.020 A 
ATOM     19  C   LIG    1        2.184   1.282   4.644  0.00  0.00    +0.030 A 
ATOM     20  C   LIG    1        2.572   1.427   3.326  0.00  0.00    +0.020 A 
ENDBRANCH  14  15
ENDBRANCH   9  10
ENDBRANCH   5   9
BRANCH   1  21
ATOM     21  C   LIG    1       -2.700  -2.642   0.370  0.00  0.00    +0.300 C 
BRANCH  21  22
ATOM     22  N   LIG    1       -2.644  -4.106   0.335  0.00  0.00    -0.290 N 
ATOM     23  C   LIG    1       -3.042  -4.938   1.325  0.00  0.00    +0.140 A 
ATOM     24  C   LIG    1       -2.817  -6.194   0.874  0.00  0.00    +0.140 A 
ATOM     25  N   LIG    1       -2.293  -6.070  -0.351  0.00  0.00    -0.260 NA
ATOM     26  N   LIG    1       -2.204  -4.820  -0.641  0.00  0.00    -0.090 NA
ENDBRANCH  21  22
ENDBRANCH   1  21
TORSDOF 6
