REMARK  Name = ZINCvU0000000FkR.0
REMARK                            x       y       z     vdW  Elec       q    Type
REMARK                         _______ _______ _______ _____ _____    ______ ____
ROOT
ATOM      1  C   LIG    1       -1.197   3.738   0.518  0.00  0.00    +0.100 C 
ENDROOT
BRANCH   1   2
ATOM      2  C   LIG    1       -1.425   2.253   0.635  0.00  0.00    +0.450 C 
ATOM      3  O   LIG    1       -2.544   1.799   0.511  0.00  0.00    -0.460 OA
BRANCH   2   4
ATOM      4  C   LIG    1       -0.297   1.357   0.898  0.00  0.00    -0.270 A 
ATOM      5  C   LIG    1       -0.338  -0.018   1.032  0.00  0.00    +0.140 A 
ATOM      6  N   LIG    1        0.913  -0.454   1.260  0.00  0.00    -0.430 N 
ATOM      7  C   LIG    1        1.787   0.594   1.282  0.00  0.00    +0.000 A 
ATOM      8  C   LIG    1        3.273   0.487   1.512  0.00  0.00    +0.120 C 
ATOM      9  C   LIG    1       -1.571  -0.878   0.937  0.00  0.00    +0.150 C 
ATOM     10  C   LIG    1        1.113   1.735   1.067  0.00  0.00    +0.000 A 
BRANCH   6  11
ATOM     11  C   LIG    1        1.286  -1.857   1.457  0.00  0.00    +0.310 C 
BRANCH  11  12
ATOM     12  C   LIG    1        1.624  -2.490   0.106  0.00  0.00    +0.150 C 
ATOM     13  C   LIG    1        2.108  -3.949   0.301  0.00  0.00    +0.020 C 
ATOM     14  C   LIG    1        1.766  -4.560  -1.086  0.00  0.00    +0.020 C 
ATOM     15  C   LIG    1        0.478  -3.801  -1.471  0.00  0.00    +0.190 C 
ATOM     16  O   LIG    1        0.445  -2.590  -0.707  0.00  0.00    -0.370 OA
ENDBRANCH  11  12
ENDBRANCH   6  11
ENDBRANCH   2   4
ENDBRANCH   1   2
BRANCH   1  17
ATOM     17  S   LIG    1       -2.774   4.567   0.194  0.00  0.00    +0.060 S 
BRANCH  17  19
ATOM     18  N   LIG    1       -3.008   7.335  -0.129  0.00  0.00    -0.450 N 
ATOM     19  C   LIG    1       -2.227   6.240   0.106  0.00  0.00    +0.150 A 
ATOM     20  N   LIG    1       -0.992   6.665   0.250  0.00  0.00    -0.290 NA
ATOM     21  N   LIG    1       -0.949   7.944   0.127  0.00  0.00    -0.260 NA
ATOM     22  C   LIG    1       -2.153   8.413  -0.103  0.00  0.00    +0.220 A 
BRANCH  22  23
ATOM     23  C   LIG    1       -2.520   9.831  -0.303  0.00  0.00    -0.010 A 
ATOM     24  C   LIG    1       -1.541  10.766  -0.645  0.00  0.00    +0.090 A 
ATOM     25  C   LIG    1       -1.891  12.087  -0.834  0.00  0.00    +0.030 A 
ATOM     26  C   LIG    1       -3.207  12.488  -0.677  0.00  0.00    -0.020 A 
ATOM     27  C   LIG    1       -4.181  11.565  -0.333  0.00  0.00    +0.030 A 
ATOM     28 CL   LIG    1       -3.637  14.153  -0.910  0.00  0.00    -0.060 Cl
ATOM     29  C   LIG    1       -3.845  10.241  -0.146  0.00  0.00    +0.030 A 
ENDBRANCH  22  23
BRANCH  18  31
ATOM     30  C   LIG    1       -5.183   7.421   0.985  0.00  0.00    +0.050 C 
ATOM     31  C   LIG    1       -4.455   7.359  -0.359  0.00  0.00    +0.300 C 
ENDBRANCH  18  31
ENDBRANCH  17  19
ENDBRANCH   1  17
TORSDOF 8
