REMARK  Name = ZINCnE000001FJSw.0
REMARK                            x       y       z     vdW  Elec       q    Type
REMARK                         _______ _______ _______ _____ _____    ______ ____
ROOT
ATOM      1  S   LIG    1       -0.135   1.752  -0.211  0.00  0.00    +2.690 S 
ATOM      2  O   LIG    1       -0.364   0.496  -0.835  0.00  0.00    -0.960 OA
ATOM      3  O   LIG    1       -0.641   2.084   1.075  0.00  0.00    -0.950 OA
ENDROOT
BRANCH   1   4
ATOM      4  C   LIG    1       -0.746   2.978  -1.319  0.00  0.00    -0.700 A 
ATOM      5  C   LIG    1       -0.763   2.731  -2.680  0.00  0.00    +0.110 A 
ATOM      6  C   LIG    1       -1.242   3.688  -3.558  0.00  0.00    -0.040 A 
ATOM      7  C   LIG    1       -1.706   4.895  -3.080  0.00  0.00    +0.010 A 
ATOM      8  C   LIG    1       -1.692   5.152  -1.706  0.00  0.00    -0.160 A 
ATOM      9  C   LIG    1       -2.228   5.936  -4.037  0.00  0.00    +0.100 C 
ATOM     10  C   LIG    1       -1.212   4.179  -0.826  0.00  0.00    +0.160 A 
BRANCH   8  11
ATOM     11  C   LIG    1       -2.188   6.441  -1.188  0.00  0.00    +0.520 C 
ATOM     12  O   LIG    1       -2.555   7.312  -1.964  0.00  0.00    -0.670 OA
ATOM     13  O   LIG    1       -2.231   6.639   0.018  0.00  0.00    -0.680 OA
ENDBRANCH   8  11
ENDBRANCH   1   4
BRANCH   1  14
ATOM     14  N   LIG    1        1.509   1.940  -0.129  0.00  0.00    -1.060 N 
ATOM     15  H   LIG    1        1.929   2.170   0.714  0.00  0.00    +0.430 HD
BRANCH  14  19
ATOM     16  C   LIG    1        3.835   1.428  -3.544  0.00  0.00    -0.090 A 
ATOM     17  C   LIG    1        4.047   2.520  -2.723  0.00  0.00    +0.020 A 
ATOM     18  C   LIG    1        3.277   2.693  -1.589  0.00  0.00    +0.000 A 
ATOM     19  C   LIG    1        2.289   1.769  -1.275  0.00  0.00    +0.150 A 
ATOM     20  C   LIG    1        2.083   0.670  -2.100  0.00  0.00    +0.010 A 
ATOM     21  C   LIG    1        2.853   0.506  -3.234  0.00  0.00    +0.030 A 
BRANCH  16  22
ATOM     22  C   LIG    1        4.677   1.243  -4.780  0.00  0.00    +0.060 C 
BRANCH  22  24
ATOM     23  C   LIG    1        6.773   0.231  -5.688  0.00  0.00    +0.000 C 
ATOM     24  C   LIG    1        5.919   0.419  -4.433  0.00  0.00    +0.000 C 
ENDBRANCH  22  24
ENDBRANCH  16  22
ENDBRANCH  14  19
ENDBRANCH   1  14
TORSDOF 6
