REMARK  Name = ZINCrD00000F5Lmd.2
REMARK                            x       y       z     vdW  Elec       q    Type
REMARK                         _______ _______ _______ _____ _____    ______ ____
ROOT
ATOM      1  N   LIG    1       -2.030   0.927  -1.019  0.00  0.00    -0.530 NA
ENDROOT
BRANCH   1   2
ATOM      2  C   LIG    1       -2.636   1.721  -2.096  0.00  0.00    +0.180 C 
BRANCH   2   3
ATOM      3  C   LIG    1       -3.063   3.084  -1.548  0.00  0.00    +0.120 C 
BRANCH   3   6
ATOM      4  N   LIG    1       -4.249   5.161  -4.301  0.00  0.00    -0.370 N 
ATOM      5  C   LIG    1       -3.254   4.686  -3.523  0.00  0.00    +0.230 A 
ATOM      6  C   LIG    1       -3.805   3.845  -2.617  0.00  0.00    -0.240 A 
ATOM      7  C   LIG    1       -5.184   3.812  -2.844  0.00  0.00    +0.230 A 
ATOM      8  N   LIG    1       -5.452   4.600  -3.853  0.00  0.00    -0.290 NA
BRANCH   4  10
ATOM      9  C   LIG    1       -4.717   5.500  -6.678  0.00  0.00    +0.040 C 
ATOM     10  C   LIG    1       -4.098   6.102  -5.414  0.00  0.00    +0.310 C 
ENDBRANCH   4  10
ENDBRANCH   3   6
ENDBRANCH   2   3
ENDBRANCH   1   2
BRANCH   1  11
ATOM     11  C   LIG    1       -0.668   1.392  -0.724  0.00  0.00    +0.180 C 
BRANCH  11  12
ATOM     12  C   LIG    1       -0.165   0.720   0.555  0.00  0.00    -0.020 C 
ATOM     13  C   LIG    1        1.296   1.107   0.794  0.00  0.00    +0.030 C 
ATOM     14  C   LIG    1        1.799   0.434   2.072  0.00  0.00    +0.040 C 
ATOM     15  C   LIG    1        0.949   0.894   3.259  0.00  0.00    +0.030 C 
ATOM     16  C   LIG    1       -0.512   0.507   3.020  0.00  0.00    +0.040 C 
ATOM     17  C   LIG    1       -1.015   1.180   1.741  0.00  0.00    +0.040 C 
BRANCH  15  18
ATOM     18  C   LIG    1        1.444   0.232   4.518  0.00  0.00    +0.460 C 
ATOM     19  O   LIG    1        2.381  -0.530   4.472  0.00  0.00    -0.510 OA
BRANCH  18  20
ATOM     20  O   LIG    1        0.845   0.488   5.692  0.00  0.00    -0.360 OA
ATOM     21  C   LIG    1        1.375  -0.186   6.864  0.00  0.00    +0.250 C 
ENDBRANCH  18  20
ENDBRANCH  15  18
ENDBRANCH  11  12
ENDBRANCH   1  11
BRANCH   1  22
ATOM     22  C   LIG    1       -2.038  -0.504  -1.350  0.00  0.00    +0.280 C 
BRANCH  22  23
ATOM     23  C   LIG    1       -3.446  -1.033  -1.257  0.00  0.00    +0.130 A 
ATOM     24  N   LIG    1       -3.955  -1.418  -0.123  0.00  0.00    -0.440 NA
ATOM     25  S   LIG    1       -5.538  -1.940  -0.437  0.00  0.00    +0.250 S 
ATOM     26  C   LIG    1       -5.490  -1.624  -2.128  0.00  0.00    -0.020 A 
ATOM     27  C   LIG    1       -4.256  -1.127  -2.368  0.00  0.00    -0.050 A 
ENDBRANCH  22  23
ENDBRANCH   1  22
TORSDOF 10
