REMARK  Name = ZINCrD00000F5LmD.0
REMARK                            x       y       z     vdW  Elec       q    Type
REMARK                         _______ _______ _______ _____ _____    ______ ____
ROOT
ATOM      1  C   LIG    1       -1.571   2.658  -1.501  0.00  0.00    -0.660 A 
ATOM      2  C   LIG    1       -1.088   3.951  -1.582  0.00  0.00    +0.160 A 
ATOM      3  C   LIG    1       -1.166   4.656  -2.771  0.00  0.00    +0.070 A 
ATOM      4  C   LIG    1       -1.745   4.065  -3.889  0.00  0.00    -0.060 A 
ATOM      5  C   LIG    1       -1.843   4.806  -5.166  0.00  0.00    +0.430 C 
ATOM      6  C   LIG    1       -2.722   4.286  -6.236  0.00  0.00    -0.120 A 
ATOM      7  C   LIG    1       -3.059   5.083  -7.325  0.00  0.00    +0.070 A 
ATOM      8  C   LIG    1       -3.886   4.581  -8.316  0.00  0.00    +0.040 A 
ATOM      9  C   LIG    1       -4.378   3.292  -8.232  0.00  0.00    +0.050 A 
ATOM     10  C   LIG    1       -4.050   2.484  -7.155  0.00  0.00    +0.080 A 
ATOM     11  C   LIG    1       -3.221   2.973  -6.152  0.00  0.00    -0.120 A 
ATOM     12  C   LIG    1       -2.860   2.125  -4.994  0.00  0.00    +0.440 C 
ATOM     13  O   LIG    1       -3.067   0.928  -5.021  0.00  0.00    -0.420 OA
ATOM     14  O   LIG    1       -1.208   5.828  -5.334  0.00  0.00    -0.410 OA
ATOM     15  C   LIG    1       -2.243   2.752  -3.805  0.00  0.00    -0.140 A 
ATOM     16  C   LIG    1       -2.151   2.055  -2.605  0.00  0.00    +0.190 A 
ENDROOT
BRANCH   1  17
ATOM     17  S   LIG    1       -1.456   1.774   0.019  0.00  0.00    +2.690 S 
ATOM     18  O   LIG    1       -1.361   2.752   1.045  0.00  0.00    -0.940 OA
ATOM     19  O   LIG    1       -2.472   0.781  -0.017  0.00  0.00    -0.950 OA
BRANCH  17  20
ATOM     20  N   LIG    1       -0.011   0.966   0.007  0.00  0.00    -1.100 NA
ATOM     21  H   LIG    1        0.002  -0.004   0.002  0.00  0.00    +0.420 HD
BRANCH  20  28
ATOM     22  C   LIG    1        1.809   0.796   2.254  0.00  0.00    +0.030 C 
ATOM     23  C   LIG    1        2.298   0.957   0.813  0.00  0.00    +0.000 C 
ATOM     24  C   LIG    1        2.523  -0.424   0.194  0.00  0.00    +0.010 C 
ATOM     25  C   LIG    1        3.012  -0.263  -1.247  0.00  0.00    +0.000 C 
ATOM     26  C   LIG    1        1.961   0.495  -2.061  0.00  0.00    +0.000 C 
ATOM     27  C   LIG    1        1.736   1.876  -1.442  0.00  0.00    -0.000 C 
ATOM     28  C   LIG    1        1.248   1.716  -0.001  0.00  0.00    +0.250 C 
ENDBRANCH  20  28
ENDBRANCH  17  20
ENDBRANCH   1  17
TORSDOF 3
