REMARK  Name = ZINCqH0000001iAq.0
REMARK                            x       y       z     vdW  Elec       q    Type
REMARK                         _______ _______ _______ _____ _____    ______ ____
ROOT
ATOM      1  C   LIG    1        4.283  -0.947   0.023  0.00  0.00    +0.320 C 
ENDROOT
BRANCH   1   7
ATOM      2  C   LIG    1        3.849   0.993  -1.506  0.00  0.00    +0.140 A 
ATOM      3  C   LIG    1        3.368   1.519  -2.696  0.00  0.00    -0.070 A 
ATOM      4  C   LIG    1        2.800   0.685  -3.639  0.00  0.00    +0.050 A 
ATOM      5  C   LIG    1        2.712  -0.674  -3.399  0.00  0.00    -0.040 A 
ATOM      6  C   LIG    1        3.192  -1.201  -2.214  0.00  0.00    +0.050 A 
ATOM      7  C   LIG    1        3.760  -0.371  -1.268  0.00  0.00    -0.120 A 
BRANCH   2   8
ATOM      8  O   LIG    1        4.408   1.812  -0.577  0.00  0.00    -0.310 OA
BRANCH   8   9
ATOM      9  C   LIG    1        4.466   3.204  -0.890  0.00  0.00    +0.180 C 
BRANCH   9  11
ATOM     10  C   LIG    1        5.298   5.431  -0.119  0.00  0.00    +0.040 C 
ATOM     11  C   LIG    1        5.123   3.961   0.267  0.00  0.00    -0.010 C 
ATOM     12  C   LIG    1        4.236   3.862   1.510  0.00  0.00    +0.020 C 
ENDBRANCH   9  11
ENDBRANCH   8   9
ENDBRANCH   2   8
ENDBRANCH   1   7
BRANCH   1  13
ATOM     13  N   LIG    1        4.407  -2.401  -0.104  0.00  0.00    -0.680 N 
ATOM     14  H   LIG    1        3.611  -2.952  -0.163  0.00  0.00    +0.420 HD
BRANCH  13  15
ATOM     15  C   LIG    1        5.665  -2.991  -0.142  0.00  0.00    +0.410 A 
ATOM     16  N   LIG    1        6.738  -2.242  -0.019  0.00  0.00    -0.290 NA
ATOM     17  N   LIG    1        8.008  -2.818  -0.055  0.00  0.00    -0.170 N 
ATOM     18  N   LIG    1        9.313  -2.318   0.044  0.00  0.00    -0.050 NA
ATOM     19  N   LIG    1       10.112  -3.325  -0.058  0.00  0.00    -0.030 NA
ATOM     20  N   LIG    1        9.452  -4.418  -0.212  0.00  0.00    -0.290 NA
ATOM     21  C   LIG    1        8.150  -4.169  -0.217  0.00  0.00    +0.170 A 
ATOM     22  C   LIG    1        7.002  -4.971  -0.349  0.00  0.00    +0.180 A 
ATOM     23  C   LIG    1        5.775  -4.384  -0.305  0.00  0.00    +0.020 A 
ENDBRANCH  13  15
ENDBRANCH   1  13
BRANCH   1  24
ATOM     24  C   LIG    1        3.314  -0.615   1.160  0.00  0.00    +0.040 C 
BRANCH  24  25
ATOM     25  C   LIG    1        1.957  -1.262   0.877  0.00  0.00    -0.030 C 
ATOM     26  C   LIG    1        1.165  -0.385  -0.095  0.00  0.00    +0.010 C 
ATOM     27  C   LIG    1        1.177  -1.405   2.186  0.00  0.00    +0.020 C 
ENDBRANCH  24  25
ENDBRANCH   1  24
TORSDOF 8
