REMARK  Name = ZINCrH000004sEMh.1
REMARK                            x       y       z     vdW  Elec       q    Type
REMARK                         _______ _______ _______ _____ _____    ______ ____
ROOT
ATOM      1  C   LIG    1        1.425   1.718   3.778  0.00  0.00    +0.170 C 
ATOM      2  C   LIG    1        2.118   1.869   2.449  0.00  0.00    +0.120 A 
ATOM      3  N   LIG    1        3.317   2.346   2.259  0.00  0.00    -0.290 NA
ATOM      4  N   LIG    1        3.600   2.330   0.889  0.00  0.00    -0.310 N 
ATOM      5  C   LIG    1        2.537   1.822   0.240  0.00  0.00    +0.140 A 
ATOM      6  C   LIG    1        2.412   1.623  -1.249  0.00  0.00    +0.150 C 
ATOM      7  C   LIG    1        1.583   1.515   1.189  0.00  0.00    -0.280 A 
ENDROOT
BRANCH   4   8
ATOM      8  C   LIG    1        4.791   2.770   0.293  0.00  0.00    +0.130 A 
ATOM      9  C   LIG    1        6.013   2.479   0.884  0.00  0.00    +0.080 A 
ATOM     10  C   LIG    1        7.185   2.909   0.293  0.00  0.00    +0.020 A 
ATOM     11  C   LIG    1        7.141   3.638  -0.883  0.00  0.00    +0.110 A 
ATOM     12  C   LIG    1        5.923   3.934  -1.472  0.00  0.00    +0.020 A 
ATOM     13  F   LIG    1        8.288   4.062  -1.458  0.00  0.00    -0.130 F 
ATOM     14  C   LIG    1        4.749   3.501  -0.887  0.00  0.00    +0.050 A 
ENDBRANCH   4   8
BRANCH   7  15
ATOM     15  C   LIG    1        0.252   0.934   0.936  0.00  0.00    +0.600 C 
ATOM     16  N   LIG    1       -0.804   1.740   0.710  0.00  0.00    -0.710 N 
ATOM     17  H   LIG    1       -0.689   2.703   0.717  0.00  0.00    +0.410 HD
ATOM     18  O   LIG    1        0.108  -0.274   0.926  0.00  0.00    -0.530 OA
BRANCH  16  19
ATOM     19  C   LIG    1       -2.125   1.162   0.452  0.00  0.00    +0.270 C 
BRANCH  19  20
ATOM     20  C   LIG    1       -3.139   2.286   0.229  0.00  0.00    +0.250 C 
BRANCH  20  21
ATOM     21  C   LIG    1       -4.519   1.697   0.086  0.00  0.00    -0.220 A 
ATOM     22  C   LIG    1       -5.221   1.651  -1.047  0.00  0.00    +0.020 A 
ATOM     23  C   LIG    1       -6.467   1.058  -0.937  0.00  0.00    +0.000 A 
ATOM     24  C   LIG    1       -6.780   0.631   0.288  0.00  0.00    -0.060 A 
ATOM     25  S   LIG    1       -5.452   0.973   1.389  0.00  0.00    +0.120 S 
ENDBRANCH  20  21
BRANCH  20  26
ATOM     26  N   LIG    1       -3.114   3.203   1.377  0.00  0.00    -0.530 NA
ATOM     27  C   LIG    1       -3.154   2.461   2.644  0.00  0.00    +0.200 C 
ATOM     28  C   LIG    1       -4.215   4.173   1.299  0.00  0.00    +0.200 C 
ENDBRANCH  20  26
ENDBRANCH  19  20
ENDBRANCH  16  19
ENDBRANCH   7  15
TORSDOF 6
