REMARK  Name = ZINCtV00001bB39Z.0
REMARK                            x       y       z     vdW  Elec       q    Type
REMARK                         _______ _______ _______ _____ _____    ______ ____
ROOT
ATOM      1  C   LIG    1       -1.982  -0.762   1.490  0.00  0.00    +0.560 C 
ATOM      2  N   LIG    1       -1.218  -1.747   0.977  0.00  0.00    -0.600 N 
ATOM      3  O   LIG    1       -2.136   0.273   0.871  0.00  0.00    -0.530 OA
ENDROOT
BRANCH   1   5
ATOM      4  C   LIG    1       -3.368   0.039   3.314  0.00  0.00    +0.140 C 
ATOM      5  C   LIG    1       -2.628  -0.940   2.800  0.00  0.00    -0.100 C 
ENDBRANCH   1   5
BRANCH   2   6
ATOM      6  C   LIG    1       -1.128  -3.038   1.664  0.00  0.00    +0.280 C 
ATOM      7  C   LIG    1       -0.422  -2.852   3.009  0.00  0.00    +0.050 C 
BRANCH   6   8
ATOM      8  C   LIG    1       -2.514  -3.582   1.895  0.00  0.00    -0.050 A 
ATOM      9  C   LIG    1       -2.958  -3.819   3.182  0.00  0.00    +0.050 A 
ATOM     10  C   LIG    1       -4.229  -4.318   3.394  0.00  0.00    +0.080 A 
ATOM     11  C   LIG    1       -5.058  -4.579   2.318  0.00  0.00    -0.030 A 
ATOM     12  C   LIG    1       -4.614  -4.341   1.029  0.00  0.00    +0.090 A 
ATOM     13 CL   LIG    1       -6.655  -5.206   2.584  0.00  0.00    -0.050 Cl
ATOM     14  C   LIG    1       -3.344  -3.837   0.819  0.00  0.00    -0.160 A 
BRANCH  14  15
ATOM     15  C   LIG    1       -2.862  -3.572  -0.584  0.00  0.00    +0.510 C 
ATOM     16  F   LIG    1       -1.642  -4.226  -0.790  0.00  0.00    -0.170 F 
ATOM     17  F   LIG    1       -2.690  -2.196  -0.766  0.00  0.00    -0.160 F 
ATOM     18  F   LIG    1       -3.806  -4.049  -1.500  0.00  0.00    -0.170 F 
ENDBRANCH  14  15
ENDBRANCH   6   8
ENDBRANCH   2   6
BRANCH   2  19
ATOM     19  C   LIG    1       -0.477  -1.526  -0.268  0.00  0.00    +0.360 C 
BRANCH  19  20
ATOM     20  C   LIG    1        0.890  -0.980   0.052  0.00  0.00    -0.100 A 
ATOM     21  C   LIG    1        1.903  -1.837   0.461  0.00  0.00    +0.070 A 
ATOM     22  O   LIG    1        1.966  -3.169   0.661  0.00  0.00    -0.190 OA
ATOM     23  C   LIG    1        3.194  -3.536   1.065  0.00  0.00    +0.030 A 
ATOM     24  C   LIG    1        3.993  -2.464   1.148  0.00  0.00    -0.050 A 
ATOM     25  C   LIG    1        3.612  -4.950   1.379  0.00  0.00    +0.180 C 
ATOM     26  C   LIG    1        3.173  -1.312   0.754  0.00  0.00    -0.130 A 
ATOM     27  C   LIG    1        3.409   0.057   0.634  0.00  0.00    +0.060 A 
ATOM     28  C   LIG    1        2.391   0.890   0.227  0.00  0.00    -0.010 A 
ATOM     29  C   LIG    1        1.137   0.372  -0.063  0.00  0.00    +0.070 A 
ENDBRANCH  19  20
ENDBRANCH   2  19
TORSDOF 6
