REMARK  Name = ZINCpe000000ZcAv.1
REMARK                            x       y       z     vdW  Elec       q    Type
REMARK                         _______ _______ _______ _____ _____    ______ ____
ROOT
ATOM      1  C   LIG    1       -5.286   5.041   0.103  0.00  0.00    -0.030 C 
ATOM      2  C   LIG    1       -5.499   4.102   1.292  0.00  0.00    +0.020 C 
ATOM      3  C   LIG    1       -6.853   3.402   1.155  0.00  0.00    +0.030 C 
ATOM      4  C   LIG    1       -7.969   4.452   1.161  0.00  0.00    +0.280 C 
ATOM      5  N   LIG    1       -7.693   5.441   0.111  0.00  0.00    -0.580 N 
ATOM      6  C   LIG    1       -6.384   6.109   0.096  0.00  0.00    +0.320 C 
ENDROOT
BRANCH   5   7
ATOM      7  C   LIG    1       -8.639   5.737  -0.837  0.00  0.00    +0.680 A 
ATOM      8  N   LIG    1       -8.319   6.542  -1.825  0.00  0.00    -0.600 NA
ATOM      9  C   LIG    1       -9.207   6.858  -2.778  0.00  0.00    +0.390 A 
ATOM     10  C   LIG    1      -10.505   6.327  -2.715  0.00  0.00    -0.390 A 
ATOM     11  C   LIG    1      -10.836   5.464  -1.640  0.00  0.00    +0.600 A 
ATOM     12  O   LIG    1      -11.951   4.982  -1.546  0.00  0.00    -0.520 OA
ATOM     13  C   LIG    1      -11.213   6.827  -3.827  0.00  0.00    +0.340 A 
ATOM     14  N   LIG    1      -10.413   7.596  -4.511  0.00  0.00    -0.280 NA
ATOM     15  N   LIG    1       -9.159   7.639  -3.889  0.00  0.00    -0.460 N 
ATOM     16  H   LIG    1       -8.389   8.141  -4.199  0.00  0.00    +0.450 HD
ATOM     17  N   LIG    1       -9.883   5.191  -0.722  0.00  0.00    -0.670 N 
ATOM     18  H   LIG    1      -10.084   4.603   0.023  0.00  0.00    +0.410 HD
ENDBRANCH   5   7
BRANCH   1  19
ATOM     19  C   LIG    1       -3.918   5.715   0.224  0.00  0.00    +0.290 C 
BRANCH  19  22
ATOM     20  O   LIG    1       -1.275   6.240   0.352  0.00  0.00    -0.520 OA
ATOM     21  C   LIG    1       -1.568   5.070   0.187  0.00  0.00    +0.610 C 
ATOM     22  N   LIG    1       -2.863   4.705   0.110  0.00  0.00    -0.720 N 
ATOM     23  H   LIG    1       -3.097   3.772  -0.021  0.00  0.00    +0.410 HD
BRANCH  21  24
ATOM     24  C   LIG    1       -0.512   4.059   0.073  0.00  0.00    -0.090 A 
ATOM     25  C   LIG    1        0.832   4.292   0.134  0.00  0.00    +0.050 A 
ATOM     26  C   LIG    1        1.464   3.048  -0.021  0.00  0.00    -0.060 A 
ATOM     27  C   LIG    1        0.490   2.122  -0.167  0.00  0.00    +0.210 A 
ATOM     28  O   LIG    1       -0.699   2.736  -0.116  0.00  0.00    -0.170 OA
ENDBRANCH  21  24
ENDBRANCH  19  22
ENDBRANCH   1  19
TORSDOF 4
