REMARK  Name = ZINCpe000000ZcAv.0
REMARK                            x       y       z     vdW  Elec       q    Type
REMARK                         _______ _______ _______ _____ _____    ______ ____
ROOT
ATOM      1  C   LIG    1       -5.365   4.711   0.079  0.00  0.00    -0.030 C 
ATOM      2  C   LIG    1       -5.639   3.977   1.393  0.00  0.00    +0.020 C 
ATOM      3  C   LIG    1       -7.080   3.461   1.400  0.00  0.00    +0.010 C 
ATOM      4  C   LIG    1       -8.043   4.647   1.299  0.00  0.00    +0.310 C 
ATOM      5  N   LIG    1       -7.693   5.441   0.114  0.00  0.00    -0.590 N 
ATOM      6  C   LIG    1       -6.309   5.912  -0.038  0.00  0.00    +0.290 C 
ENDROOT
BRANCH   5   7
ATOM      7  C   LIG    1       -8.640   5.740  -0.835  0.00  0.00    +0.670 A 
ATOM      8  N   LIG    1       -9.825   5.202  -0.709  0.00  0.00    -0.560 NA
ATOM      9  C   LIG    1      -10.814   5.451  -1.609  0.00  0.00    +0.340 A 
ATOM     10  N   LIG    1      -12.063   5.072  -1.746  0.00  0.00    -0.290 NA
ATOM     11  N   LIG    1      -12.598   5.666  -2.895  0.00  0.00    -0.450 N 
ATOM     12  H   LIG    1      -13.505   5.544  -3.215  0.00  0.00    +0.450 HD
ATOM     13  C   LIG    1      -11.668   6.431  -3.487  0.00  0.00    +0.370 A 
ATOM     14  C   LIG    1      -10.519   6.348  -2.739  0.00  0.00    -0.380 A 
ATOM     15  C   LIG    1       -9.170   6.917  -2.821  0.00  0.00    +0.610 A 
ATOM     16  O   LIG    1       -8.856   7.666  -3.728  0.00  0.00    -0.520 OA
ATOM     17  N   LIG    1       -8.290   6.584  -1.849  0.00  0.00    -0.680 N 
ATOM     18  H   LIG    1       -7.392   6.949  -1.875  0.00  0.00    +0.410 HD
ENDBRANCH   5   7
BRANCH   1  19
ATOM     19  C   LIG    1       -3.914   5.198   0.059  0.00  0.00    +0.280 C 
BRANCH  19  22
ATOM     20  O   LIG    1       -1.222   5.361   0.025  0.00  0.00    -0.520 OA
ATOM     21  C   LIG    1       -1.677   4.232   0.035  0.00  0.00    +0.610 C 
ATOM     22  N   LIG    1       -3.012   4.044   0.052  0.00  0.00    -0.720 N 
ATOM     23  H   LIG    1       -3.375   3.144   0.060  0.00  0.00    +0.410 HD
BRANCH  21  24
ATOM     24  C   LIG    1       -0.774   3.077   0.028  0.00  0.00    -0.090 A 
ATOM     25  C   LIG    1        0.591   3.126   0.010  0.00  0.00    +0.050 A 
ATOM     26  C   LIG    1        1.042   1.796   0.010  0.00  0.00    -0.070 A 
ATOM     27  C   LIG    1       -0.053   1.005   0.026  0.00  0.00    +0.210 A 
ATOM     28  O   LIG    1       -1.145   1.780   0.031  0.00  0.00    -0.170 OA
ENDBRANCH  21  24
ENDBRANCH  19  22
ENDBRANCH   1  19
TORSDOF 4
