REMARK  Name = ZINCrD00000cC7au.0
REMARK                            x       y       z     vdW  Elec       q    Type
REMARK                         _______ _______ _______ _____ _____    ______ ____
ROOT
ATOM      1  C   LIG    1        4.680   0.352   3.402  0.00  0.00    +0.270 C 
ENDROOT
BRANCH   1   2
ATOM      2  N   LIG    1        3.520   1.115   2.935  0.00  0.00    -0.620 N 
ATOM      3  C   LIG    1        3.056   0.937   1.683  0.00  0.00    +0.520 C 
ATOM      4  O   LIG    1        3.599   0.146   0.941  0.00  0.00    -0.520 OA
ATOM      5  C   LIG    1        2.864   2.071   3.831  0.00  0.00    +0.280 C 
BRANCH   3   6
ATOM      6  C   LIG    1        1.862   1.722   1.203  0.00  0.00    +0.000 C 
ATOM      7  C   LIG    1        0.621   1.363   2.046  0.00  0.00    +0.060 C 
ATOM      8  C   LIG    1       -0.547   1.376   1.028  0.00  0.00    +0.060 C 
ATOM      9  C   LIG    1        0.100   0.766  -0.240  0.00  0.00    -0.020 C 
ATOM     10  C   LIG    1        1.530   1.342  -0.251  0.00  0.00    +0.080 C 
BRANCH   9  11
ATOM     11  C   LIG    1       -0.662   1.200  -1.494  0.00  0.00    +0.460 C 
ATOM     12  F   LIG    1       -0.698   2.597  -1.558  0.00  0.00    -0.180 F 
ATOM     13  F   LIG    1       -1.968   0.701  -1.443  0.00  0.00    -0.180 F 
ATOM     14  F   LIG    1       -0.015   0.699  -2.629  0.00  0.00    -0.180 F 
ENDBRANCH   9  11
ENDBRANCH   3   6
ENDBRANCH   1   2
BRANCH   1  15
ATOM     15  C   LIG    1        5.960   1.131   3.091  0.00  0.00    +0.270 C 
BRANCH  15  17
ATOM     16  C   LIG    1        7.725  -0.512   2.733  0.00  0.00    +0.600 C 
ATOM     17  N   LIG    1        7.121   0.368   3.557  0.00  0.00    -0.600 N 
ATOM     18  C   LIG    1        7.626   0.561   4.919  0.00  0.00    +0.300 C 
ATOM     19  O   LIG    1        7.262  -0.727   1.630  0.00  0.00    -0.520 OA
BRANCH  16  21
ATOM     20  C   LIG    1        9.719  -2.038   2.413  0.00  0.00    +0.060 A 
ATOM     21  C   LIG    1        8.946  -1.212   3.170  0.00  0.00    -0.080 A 
ATOM     22  N   LIG    1        9.516  -1.151   4.404  0.00  0.00    -0.460 NA
ATOM     23  C   LIG    1       10.575  -1.904   4.407  0.00  0.00    +0.430 A 
ATOM     24  O   LIG    1       10.726  -2.458   3.196  0.00  0.00    -0.190 OA
BRANCH  20  26
ATOM     25  C   LIG    1       10.692  -1.970   0.133  0.00  0.00    +0.040 C 
ATOM     26  C   LIG    1        9.489  -2.409   0.971  0.00  0.00    +0.100 C 
ATOM     27  C   LIG    1        9.314  -3.925   0.857  0.00  0.00    +0.040 C 
ENDBRANCH  20  26
ENDBRANCH  16  21
ENDBRANCH  15  17
ENDBRANCH   1  15
TORSDOF 7
