REMARK  Name = ZINCnE000008JjxM.0
REMARK                            x       y       z     vdW  Elec       q    Type
REMARK                         _______ _______ _______ _____ _____    ______ ____
ROOT
ATOM      1  C   LIG    1       -0.698   8.066  -0.149  0.00  0.00    +0.170 A 
ATOM      2  N   LIG    1        0.542   7.999   0.282  0.00  0.00    -0.300 NA
ATOM      3  N   LIG    1        0.907   6.771   0.386  0.00  0.00    -0.260 NA
ATOM      4  C   LIG    1       -0.074   5.979   0.020  0.00  0.00    +0.200 A 
ATOM      5  N   LIG    1       -1.133   6.785  -0.331  0.00  0.00    -0.460 N 
ENDROOT
BRANCH   4   6
ATOM      6  C   LIG    1       -0.048   4.502  -0.005  0.00  0.00    +0.000 A 
ATOM      7  C   LIG    1        1.171   3.823  -0.021  0.00  0.00    +0.080 A 
ATOM      8  C   LIG    1        1.190   2.444  -0.044  0.00  0.00    +0.030 A 
ATOM      9  C   LIG    1        0.001   1.733  -0.053  0.00  0.00    -0.030 A 
ATOM     10  C   LIG    1       -1.212   2.401  -0.044  0.00  0.00    +0.040 A 
ATOM     11 CL   LIG    1        0.032  -0.003  -0.084  0.00  0.00    -0.070 Cl
ATOM     12  C   LIG    1       -1.242   3.780  -0.014  0.00  0.00    +0.030 A 
ENDBRANCH   4   6
BRANCH   1  13
ATOM     13  S   LIG    1       -1.626   9.536  -0.438  0.00  0.00    +0.060 S 
BRANCH  13  14
ATOM     14  C   LIG    1       -0.394  10.780   0.021  0.00  0.00    +0.010 C 
BRANCH  14  16
ATOM     15  O   LIG    1       -2.129  12.285  -0.548  0.00  0.00    -0.680 OA
ATOM     16  C   LIG    1       -0.983  12.157  -0.152  0.00  0.00    +0.510 C 
ATOM     17  O   LIG    1       -0.313  13.143   0.105  0.00  0.00    -0.670 OA
ENDBRANCH  14  16
ENDBRANCH  13  14
ENDBRANCH   1  13
BRANCH   5  18
ATOM     18  C   LIG    1       -2.453   6.356  -0.800  0.00  0.00    +0.440 C 
BRANCH  18  19
ATOM     19  C   LIG    1       -3.411   6.315   0.362  0.00  0.00    -0.070 A 
ATOM     20  C   LIG    1       -4.183   7.334   0.783  0.00  0.00    +0.010 A 
ATOM     21  C   LIG    1       -4.918   6.859   1.893  0.00  0.00    -0.060 A 
ATOM     22  C   LIG    1       -4.553   5.579   2.084  0.00  0.00    +0.180 A 
ATOM     23  O   LIG    1       -3.644   5.253   1.151  0.00  0.00    -0.170 OA
ENDBRANCH  18  19
ENDBRANCH   5  18
TORSDOF 6
