REMARK  Name = ZINCrD000000AEVR.0
REMARK                            x       y       z     vdW  Elec       q    Type
REMARK                         _______ _______ _______ _____ _____    ______ ____
ROOT
ATOM      1  O   LIG    1        1.130   2.868   0.007  0.00  0.00    -0.510 OA
ATOM      2  C   LIG    1        1.147   1.655   0.000  0.00  0.00    +0.510 C 
ATOM      3  N   LIG    1       -0.011   0.966   0.007  0.00  0.00    -0.720 N 
ATOM      4  H   LIG    1        0.002  -0.004   0.002  0.00  0.00    +0.400 HD
ENDROOT
BRANCH   3   5
ATOM      5  C   LIG    1       -1.290   1.681   0.017  0.00  0.00    +0.340 C 
BRANCH   5   6
ATOM      6  C   LIG    1       -1.661   2.027   1.436  0.00  0.00    -0.090 A 
ATOM      7  C   LIG    1       -1.441   1.113   2.450  0.00  0.00    +0.020 A 
ATOM      8  C   LIG    1       -1.777   1.432   3.753  0.00  0.00    +0.000 A 
ATOM      9  C   LIG    1       -2.343   2.660   4.040  0.00  0.00    +0.000 A 
ATOM     10  C   LIG    1       -2.567   3.572   3.025  0.00  0.00    +0.000 A 
ATOM     11  C   LIG    1       -2.226   3.255   1.723  0.00  0.00    +0.020 A 
ENDBRANCH   5   6
BRANCH   5  12
ATOM     12  C   LIG    1       -2.360   0.806  -0.583  0.00  0.00    -0.090 A 
ATOM     13  C   LIG    1       -2.384  -0.548  -0.302  0.00  0.00    +0.010 A 
ATOM     14  C   LIG    1       -3.368  -1.350  -0.848  0.00  0.00    +0.020 A 
ATOM     15  C   LIG    1       -4.322  -0.800  -1.685  0.00  0.00    +0.020 A 
ATOM     16  C   LIG    1       -4.295   0.552  -1.970  0.00  0.00    +0.020 A 
ATOM     17  C   LIG    1       -3.313   1.355  -1.419  0.00  0.00    +0.030 A 
ENDBRANCH   5  12
ENDBRANCH   3   5
BRANCH   2  18
ATOM     18  C   LIG    1        2.462   0.920  -0.017  0.00  0.00    +0.410 C 
BRANCH  18  19
ATOM     19  N   LIG    1        3.562   1.887  -0.022  0.00  0.00    -0.200 N 
ATOM     20  N   LIG    1        4.131   2.394  -1.062  0.00  0.00    +0.010 NA
ATOM     21  N   LIG    1        5.057   3.208  -0.697  0.00  0.00    -0.290 NA
ATOM     22  C   LIG    1        5.125   3.249   0.638  0.00  0.00    +0.260 A 
ATOM     23  N   LIG    1        4.200   2.432   1.105  0.00  0.00    -0.290 NA
BRANCH  22  24
ATOM     24  C   LIG    1        6.065   4.066   1.445  0.00  0.00    -0.030 A 
ATOM     25  C   LIG    1        6.066   4.057   2.791  0.00  0.00    +0.000 A 
ATOM     26  S   LIG    1        7.317   5.142   3.385  0.00  0.00    +0.140 S 
ATOM     27  C   LIG    1        7.778   5.566   1.742  0.00  0.00    -0.040 A 
ATOM     28  C   LIG    1        7.016   4.908   0.872  0.00  0.00    +0.040 A 
ENDBRANCH  22  24
ENDBRANCH  18  19
ENDBRANCH   2  18
TORSDOF 6
