REMARK  Name = ZINCpe00000MJMqS.0
REMARK                            x       y       z     vdW  Elec       q    Type
REMARK                         _______ _______ _______ _____ _____    ______ ____
ROOT
ATOM      1  C   LIG    1       -1.319   2.141   0.171  0.00  0.00    +0.130 C 
ATOM      2  C   LIG    1       -0.015   1.390   0.082  0.00  0.00    -0.190 A 
ATOM      3  C   LIG    1        1.189   2.066   0.071  0.00  0.00    +0.350 A 
ATOM      4  N   LIG    1        2.318   1.377  -0.014  0.00  0.00    -0.550 NA
ATOM      5  C   LIG    1        2.305   0.054  -0.088  0.00  0.00    +0.500 A 
ATOM      6  N   LIG    1        1.171  -0.631  -0.081  0.00  0.00    -0.550 NA
ATOM      7  C   LIG    1        0.002  -0.004   0.002  0.00  0.00    +0.360 A 
ENDROOT
BRANCH   5   8
ATOM      8  N   LIG    1        3.505  -0.629  -0.175  0.00  0.00    -0.460 N 
ATOM      9  C   LIG    1        3.536  -1.490  -1.365  0.00  0.00    +0.230 C 
ATOM     10  C   LIG    1        4.844  -2.286  -1.382  0.00  0.00    +0.210 C 
ATOM     11  N   LIG    1        5.981  -1.355  -1.380  0.00  0.00    -0.680 NA
ATOM     12  H   LIG    1        6.856  -1.853  -1.443  0.00  0.00    +0.360 HD
ATOM     13  C   LIG    1        5.950  -0.493  -0.189  0.00  0.00    +0.110 C 
ATOM     14  C   LIG    1        4.642   0.302  -0.172  0.00  0.00    +0.250 C 
BRANCH  13  15
ATOM     15  C   LIG    1        7.135   0.473  -0.228  0.00  0.00    +0.390 C 
ATOM     16  F   LIG    1        7.054   1.265  -1.378  0.00  0.00    -0.190 F 
ATOM     17  F   LIG    1        8.330  -0.255  -0.245  0.00  0.00    -0.200 F 
ENDBRANCH  13  15
ENDBRANCH   5   8
BRANCH   7  18
ATOM     18  N   LIG    1       -1.182  -0.723   0.009  0.00  0.00    -0.480 N 
ATOM     19  C   LIG    1       -1.253  -1.610   1.179  0.00  0.00    +0.200 C 
ATOM     20  C   LIG    1       -2.606  -2.325   1.192  0.00  0.00    +0.200 C 
ATOM     21  N   LIG    1       -2.766  -3.088  -0.054  0.00  0.00    -0.680 NA
ATOM     22  H   LIG    1       -3.629  -3.611  -0.049  0.00  0.00    +0.360 HD
ATOM     23  C   LIG    1       -2.696  -2.200  -1.224  0.00  0.00    +0.120 C 
ATOM     24  C   LIG    1       -1.343  -1.485  -1.237  0.00  0.00    +0.230 C 
BRANCH  23  25
ATOM     25  C   LIG    1       -2.849  -3.028  -2.502  0.00  0.00    +0.390 C 
ATOM     26  F   LIG    1       -2.665  -2.202  -3.616  0.00  0.00    -0.200 F 
ATOM     27  F   LIG    1       -4.129  -3.590  -2.543  0.00  0.00    -0.200 F 
ENDBRANCH  23  25
ENDBRANCH   7  18
TORSDOF 4
