REMARK  Name = ZINCpe00000VVGrP.0
REMARK                            x       y       z     vdW  Elec       q    Type
REMARK                         _______ _______ _______ _____ _____    ______ ____
ROOT
ATOM      1  C   LIG    1       -1.040  -0.315  -4.550  0.00  0.00    +0.210 C 
ENDROOT
BRANCH   1   5
ATOM      2  C   LIG    1       -4.207  -1.216  -7.278  0.00  0.00    +0.060 C 
ATOM      3  C   LIG    1       -2.874  -0.691  -7.817  0.00  0.00    +0.030 C 
ATOM      4  C   LIG    1       -1.779  -0.924  -6.774  0.00  0.00    +0.170 C 
ATOM      5  N   LIG    1       -2.132  -0.229  -5.529  0.00  0.00    -0.520 NA
ATOM      6  C   LIG    1       -3.385  -0.750  -4.967  0.00  0.00    +0.170 C 
ATOM      7  C   LIG    1       -4.528  -0.511  -5.957  0.00  0.00    +0.030 C 
BRANCH   2  10
ATOM      8  N   LIG    1       -6.931  -1.207  -9.702  0.00  0.00    -0.370 N 
ATOM      9  C   LIG    1       -6.080  -1.860  -8.884  0.00  0.00    +0.220 A 
ATOM     10  C   LIG    1       -5.300  -0.936  -8.277  0.00  0.00    -0.230 A 
ATOM     11  C   LIG    1       -5.692   0.326  -8.735  0.00  0.00    +0.240 A 
ATOM     12  N   LIG    1       -6.666   0.165  -9.594  0.00  0.00    -0.290 NA
BRANCH   8  14
ATOM     13  C   LIG    1       -9.317  -1.206 -10.240  0.00  0.00    +0.040 C 
ATOM     14  C   LIG    1       -7.952  -1.822 -10.554  0.00  0.00    +0.300 C 
ENDBRANCH   8  14
ENDBRANCH   2  10
ENDBRANCH   1   5
BRANCH   1  15
ATOM     15  C   LIG    1       -1.330   0.605  -3.393  0.00  0.00    +0.520 C 
ATOM     16  N   LIG    1       -0.459   0.692  -2.367  0.00  0.00    -0.710 N 
ATOM     17  H   LIG    1        0.353   0.162  -2.374  0.00  0.00    +0.400 HD
ATOM     18  O   LIG    1       -2.345   1.268  -3.384  0.00  0.00    -0.520 OA
BRANCH  16  19
ATOM     19  C   LIG    1       -0.741   1.587  -1.242  0.00  0.00    +0.240 C 
ATOM     20  C   LIG    1       -0.013   1.086   0.008  0.00  0.00    +0.040 C 
ATOM     21  C   LIG    1       -0.711   1.569   1.266  0.00  0.00    +0.020 C 
ATOM     22  C   LIG    1       -0.638   3.071   1.468  0.00  0.00    +0.010 C 
ATOM     23  C   LIG    1       -1.441   3.804   0.391  0.00  0.00    +0.270 C 
ATOM     24  N   LIG    1       -0.578   4.009  -0.783  0.00  0.00    -0.720 N 
ATOM     25  H   LIG    1       -0.251   4.898  -0.991  0.00  0.00    +0.400 HD
ATOM     26  C   LIG    1       -0.242   2.980  -1.562  0.00  0.00    +0.510 C 
ATOM     27  O   LIG    1        0.466   3.161  -2.530  0.00  0.00    -0.540 OA
ENDBRANCH  16  19
ENDBRANCH   1  15
TORSDOF 5
