REMARK  Name = ZINCpe00000IFEAw.0
REMARK                            x       y       z     vdW  Elec       q    Type
REMARK                         _______ _______ _______ _____ _____    ______ ____
ROOT
ATOM      1  C   LIG    1       -2.220   1.858  -0.687  0.00  0.00    +0.240 C 
ATOM      2  C   LIG    1       -0.786   1.611  -1.219  0.00  0.00    +0.020 C 
ATOM      3  C   LIG    1       -0.013   1.086   0.008  0.00  0.00    +0.020 C 
ATOM      4  C   LIG    1       -0.761   1.596   1.252  0.00  0.00    +0.020 C 
ATOM      5  C   LIG    1       -1.965   2.413   0.737  0.00  0.00    +0.240 C 
ENDROOT
BRANCH   1   7
ATOM      6  C   LIG    1       -3.580   2.454  -2.619  0.00  0.00    +0.610 C 
ATOM      7  N   LIG    1       -2.917   2.847  -1.513  0.00  0.00    -0.710 N 
ATOM      8  H   LIG    1       -2.901   3.784  -1.264  0.00  0.00    +0.410 HD
ATOM      9  O   LIG    1       -3.600   1.280  -2.930  0.00  0.00    -0.530 OA
BRANCH   6  13
ATOM     10  C   LIG    1       -6.318   4.668  -6.265  0.00  0.00    +0.150 C 
ATOM     11  C   LIG    1       -5.475   4.400  -5.044  0.00  0.00    +0.010 A 
ATOM     12  C   LIG    1       -5.013   3.195  -4.636  0.00  0.00    -0.020 A 
ATOM     13  C   LIG    1       -4.283   3.452  -3.451  0.00  0.00    -0.020 A 
ATOM     14  N   LIG    1       -4.345   4.750  -3.235  0.00  0.00    -0.260 NA
ATOM     15  N   LIG    1       -5.037   5.318  -4.156  0.00  0.00    -0.280 N 
ATOM     16  C   LIG    1       -5.312   6.755  -4.232  0.00  0.00    +0.370 C 
ENDBRANCH   6  13
ENDBRANCH   1   7
BRANCH   5  17
ATOM     17  N   LIG    1       -3.136   2.194   1.589  0.00  0.00    -0.710 N 
ATOM     18  H   LIG    1       -3.754   1.474   1.390  0.00  0.00    +0.410 HD
ATOM     19  C   LIG    1       -3.355   2.995   2.651  0.00  0.00    +0.610 C 
ATOM     20  O   LIG    1       -2.581   3.898   2.902  0.00  0.00    -0.530 OA
BRANCH  19  21
ATOM     21  C   LIG    1       -4.536   2.774   3.511  0.00  0.00    -0.020 A 
ATOM     22  N   LIG    1       -5.452   1.839   3.360  0.00  0.00    -0.260 NA
ATOM     23  N   LIG    1       -6.337   1.936   4.287  0.00  0.00    -0.280 N 
ATOM     24  C   LIG    1       -6.040   2.962   5.112  0.00  0.00    +0.010 A 
ATOM     25  C   LIG    1       -6.832   3.400   6.316  0.00  0.00    +0.150 C 
ATOM     26  C   LIG    1       -7.502   1.058   4.428  0.00  0.00    +0.370 C 
ATOM     27  C   LIG    1       -4.894   3.523   4.657  0.00  0.00    -0.020 A 
ENDBRANCH  19  21
ENDBRANCH   5  17
TORSDOF 4
