REMARK  Name = ZINCpk000000nua2.0
REMARK                            x       y       z     vdW  Elec       q    Type
REMARK                         _______ _______ _______ _____ _____    ______ ____
ROOT
ATOM      1  C   LIG    1        1.219   2.326  -0.554  0.00  0.00    +0.240 C 
ATOM      2  C   LIG    1        2.345   1.497  -1.213  0.00  0.00    +0.170 C 
ATOM      3  S   LIG    1        1.701  -0.216  -1.006  0.00  0.00    -0.240 S 
ATOM      4  C   LIG    1       -0.062   0.294  -1.146  0.00  0.00    +0.370 C 
ATOM      5  N   LIG    1       -0.060   1.634  -0.527  0.00  0.00    -0.600 N 
ATOM      6  C   LIG    1       -1.165   2.179   0.019  0.00  0.00    +0.560 C 
ATOM      7  O   LIG    1       -1.094   3.241   0.600  0.00  0.00    -0.510 OA
ENDROOT
BRANCH   6   8
ATOM      8  C   LIG    1       -2.489   1.468  -0.091  0.00  0.00    -0.010 C 
ATOM      9  C   LIG    1       -2.755   0.596   1.158  0.00  0.00    +0.080 C 
ATOM     10  C   LIG    1       -4.243   0.733   1.396  0.00  0.00    +0.520 C 
ATOM     11  N   LIG    1       -4.725   1.787   0.715  0.00  0.00    -0.610 N 
ATOM     12  O   LIG    1       -4.904  -0.002   2.099  0.00  0.00    -0.520 OA
ATOM     13  C   LIG    1       -3.662   2.472  -0.030  0.00  0.00    +0.300 C 
BRANCH  11  14
ATOM     14  C   LIG    1       -6.131   2.199   0.717  0.00  0.00    +0.240 C 
ATOM     15  C   LIG    1       -6.601   2.468   2.161  0.00  0.00    +0.010 C 
ATOM     16  C   LIG    1       -8.061   1.951   2.189  0.00  0.00    +0.020 C 
ATOM     17  C   LIG    1       -7.990   0.681   1.305  0.00  0.00    +0.010 C 
ATOM     18  C   LIG    1       -7.014   1.062   0.172  0.00  0.00    +0.010 C 
ENDBRANCH  11  14
ENDBRANCH   6   8
BRANCH   1  21
ATOM     19  N   LIG    1        2.111   4.439  -1.480  0.00  0.00    -0.730 N 
ATOM     20  H   LIG    1        2.974   4.202  -1.107  0.00  0.00    +0.400 HD
ATOM     21  C   LIG    1        1.057   3.615  -1.317  0.00  0.00    +0.510 C 
ATOM     22  O   LIG    1       -0.022   3.912  -1.784  0.00  0.00    -0.510 OA
BRANCH  19  23
ATOM     23  C   LIG    1        1.953   5.692  -2.222  0.00  0.00    +0.260 C 
BRANCH  23  25
ATOM     24  C   LIG    1        4.305   5.615  -3.062  0.00  0.00    +0.020 C 
ATOM     25  C   LIG    1        3.290   6.434  -2.261  0.00  0.00    -0.030 C 
ATOM     26  C   LIG    1        3.098   7.799  -2.926  0.00  0.00    +0.030 C 
ENDBRANCH  23  25
ENDBRANCH  19  23
ENDBRANCH   1  21
TORSDOF 5
