REMARK  Name = ZINCrD000000Arma.0
REMARK                            x       y       z     vdW  Elec       q    Type
REMARK                         _______ _______ _______ _____ _____    ______ ____
ROOT
ATOM      1  O   LIG    1       -2.006   8.355  -0.243  0.00  0.00    -0.480 OA
ATOM      2  C   LIG    1       -0.898   8.847  -0.198  0.00  0.00    +0.510 C 
ATOM      3  N   LIG    1       -0.754  10.187  -0.210  0.00  0.00    -0.660 N 
ATOM      4  H   LIG    1        0.133  10.579  -0.231  0.00  0.00    +0.410 HD
ENDROOT
BRANCH   3   5
ATOM      5  C   LIG    1       -1.882  11.010  -0.192  0.00  0.00    +0.140 A 
ATOM      6  C   LIG    1       -3.088  10.551  -0.678  0.00  0.00    +0.050 A 
ATOM      7  C   LIG    1       -4.219  11.363  -0.660  0.00  0.00    +0.030 A 
ATOM      8  C   LIG    1       -4.166  12.634  -0.174  0.00  0.00    +0.040 A 
ATOM      9  C   LIG    1       -2.956  13.142   0.325  0.00  0.00    -0.100 A 
ATOM     10  C   LIG    1       -2.850  14.445   0.836  0.00  0.00    +0.320 A 
ATOM     11  N   LIG    1       -1.697  14.878   1.292  0.00  0.00    -0.490 NA
ATOM     12  C   LIG    1       -0.602  14.131   1.295  0.00  0.00    +0.230 A 
ATOM     13  C   LIG    1       -0.601  12.854   0.821  0.00  0.00    -0.030 A 
ATOM     14  C   LIG    1       -1.799  12.321   0.316  0.00  0.00    -0.040 A 
ENDBRANCH   3   5
BRANCH   2  15
ATOM     15  C   LIG    1        0.318   7.959  -0.127  0.00  0.00    +0.240 C 
BRANCH  15  16
ATOM     16  O   LIG    1       -0.092   6.590  -0.127  0.00  0.00    -0.290 OA
BRANCH  16  17
ATOM     17  C   LIG    1        0.890   5.652  -0.067  0.00  0.00    +0.160 A 
ATOM     18  C   LIG    1        2.220   6.043  -0.009  0.00  0.00    -0.110 A 
ATOM     19  C   LIG    1        3.220   5.090   0.052  0.00  0.00    +0.080 A 
ATOM     20  C   LIG    1        2.898   3.747   0.062  0.00  0.00    -0.060 A 
ATOM     21  C   LIG    1        1.569   3.350  -0.002  0.00  0.00    +0.210 A 
ATOM     22  C   LIG    1        0.564   4.305  -0.063  0.00  0.00    -0.020 A 
BRANCH  21  23
ATOM     23  N   LIG    1        1.243   1.989   0.003  0.00  0.00    -0.560 N 
ATOM     24  C   LIG    1        2.227   0.902  -0.049  0.00  0.00    +0.260 C 
ATOM     25  C   LIG    1        1.469  -0.363   0.411  0.00  0.00    +0.060 C 
ATOM     26  C   LIG    1        0.009  -0.003   0.052  0.00  0.00    +0.070 C 
ATOM     27  C   LIG    1       -0.012   1.510   0.054  0.00  0.00    +0.510 C 
ATOM     28  O   LIG    1       -1.015   2.191   0.091  0.00  0.00    -0.500 OA
ENDBRANCH  21  23
ENDBRANCH  16  17
ENDBRANCH  15  16
ENDBRANCH   2  15
TORSDOF 5
