REMARK  Name = ZINCrH000004mrI8.0
REMARK                            x       y       z     vdW  Elec       q    Type
REMARK                         _______ _______ _______ _____ _____    ______ ____
ROOT
ATOM      1  C   LIG    1       -0.081   5.351   0.032  0.00  0.00    +0.280 C 
ATOM      2  C   LIG    1        0.133   5.871   1.469  0.00  0.00    +0.050 C 
ATOM      3  C   LIG    1       -0.830   7.088   1.543  0.00  0.00    +0.040 C 
ATOM      4  C   LIG    1       -2.017   6.601   0.675  0.00  0.00    +0.250 C 
ATOM      5  N   LIG    1       -1.395   5.833  -0.419  0.00  0.00    -0.610 N 
ATOM      6  C   LIG    1       -1.940   5.608  -1.631  0.00  0.00    +0.530 C 
ATOM      7  O   LIG    1       -1.335   4.959  -2.457  0.00  0.00    -0.490 OA
ENDROOT
BRANCH   1  14
ATOM      8  C   LIG    1        1.155   3.169   0.008  0.00  0.00    +0.150 A 
ATOM      9  C   LIG    1        1.175   1.782   0.000  0.00  0.00    -0.060 A 
ATOM     10  C   LIG    1       -0.013   1.076   0.008  0.00  0.00    +0.090 A 
ATOM     11  C   LIG    1       -1.220   1.751   0.017  0.00  0.00    -0.120 A 
ATOM     12  C   LIG    1       -1.242   3.134   0.031  0.00  0.00    +0.100 A 
ATOM     13 BR   LIG    1       -2.844   0.781   0.020  0.00  0.00    -0.050 Br
ATOM     14  C   LIG    1       -0.057   3.844   0.023  0.00  0.00    -0.110 A 
BRANCH   8  16
ATOM     15  C   LIG    1        3.532   3.106  -0.016  0.00  0.00    +0.240 C 
ATOM     16  O   LIG    1        2.322   3.866   0.000  0.00  0.00    -0.310 OA
ENDBRANCH   8  16
ENDBRANCH   1  14
BRANCH   6  17
ATOM     17  C   LIG    1       -3.302   6.165  -1.959  0.00  0.00    +0.150 C 
ATOM     18  C   LIG    1       -3.278   7.712  -1.976  0.00  0.00    +0.100 C 
ATOM     19  C   LIG    1       -4.207   8.043  -3.128  0.00  0.00    +0.140 C 
ATOM     20  N   LIG    1       -4.381   6.973  -3.828  0.00  0.00    -0.260 NA
ATOM     21  O   LIG    1       -3.669   5.862  -3.320  0.00  0.00    -0.150 OA
BRANCH  19  22
ATOM     22  C   LIG    1       -4.807   9.364  -3.404  0.00  0.00    +0.170 A 
ATOM     23  C   LIG    1       -5.643   9.528  -4.508  0.00  0.00    +0.020 A 
ATOM     24  C   LIG    1       -6.202  10.772  -4.750  0.00  0.00    +0.070 A 
ATOM     25  C   LIG    1       -5.899  11.813  -3.886  0.00  0.00    -0.010 A 
ATOM     26  C   LIG    1       -5.058  11.582  -2.811  0.00  0.00    +0.280 A 
ATOM     27  N   LIG    1       -4.543  10.389  -2.600  0.00  0.00    -0.460 NA
ENDBRANCH  19  22
ENDBRANCH   6  17
TORSDOF 4
