REMARK  Name = ZINCpk000000nSUV.0
REMARK                            x       y       z     vdW  Elec       q    Type
REMARK                         _______ _______ _______ _____ _____    ______ ____
ROOT
ATOM      1  C   LIG    1       -3.820   5.356   0.066  0.00  0.00    +0.190 C 
ATOM      2  C   LIG    1       -3.557   6.201  -1.182  0.00  0.00    +0.030 C 
ENDROOT
BRANCH   1   3
ATOM      3  N   LIG    1       -5.224   4.924   0.077  0.00  0.00    -0.520 NA
ATOM      4  C   LIG    1       -5.545   4.143  -1.126  0.00  0.00    +0.200 C 
ATOM      5  C   LIG    1       -6.990   3.647  -1.038  0.00  0.00    +0.210 C 
ATOM      6  N   LIG    1       -7.894   4.798  -0.904  0.00  0.00    -0.470 N 
ATOM      7  C   LIG    1       -7.573   5.579   0.299  0.00  0.00    +0.220 C 
ATOM      8  C   LIG    1       -6.128   6.075   0.211  0.00  0.00    +0.190 C 
BRANCH   6   9
ATOM      9  C   LIG    1       -9.222   4.390  -0.893  0.00  0.00    +0.270 A 
ATOM     10  C   LIG    1       -9.730   3.634  -1.948  0.00  0.00    +0.210 A 
ATOM     11  N   LIG    1      -10.991   3.249  -1.934  0.00  0.00    -0.420 NA
ATOM     12  C   LIG    1      -11.774   3.578  -0.920  0.00  0.00    +0.180 A 
ATOM     13  C   LIG    1      -11.274   4.327   0.129  0.00  0.00    +0.250 A 
ATOM     14  N   LIG    1      -10.010   4.713   0.124  0.00  0.00    -0.480 NA
ENDBRANCH   6   9
ENDBRANCH   1   3
BRANCH   1  17
ATOM     15  N   LIG    1       -1.584   4.299   0.040  0.00  0.00    -0.650 N 
ATOM     16  H   LIG    1       -1.198   5.189   0.040  0.00  0.00    +0.410 HD
ATOM     17  C   LIG    1       -2.923   4.145   0.052  0.00  0.00    +0.530 C 
ATOM     18  O   LIG    1       -3.405   3.032   0.051  0.00  0.00    -0.480 OA
BRANCH  15  23
ATOM     19  N   LIG    1        0.599   3.187   0.013  0.00  0.00    -0.380 N 
ATOM     20  N   LIG    1        1.038   1.856   0.002  0.00  0.00    -0.280 NA
ATOM     21  C   LIG    1       -0.013   1.076   0.008  0.00  0.00    +0.250 A 
ATOM     22  C   LIG    1       -1.157   1.879   0.017  0.00  0.00    -0.110 A 
ATOM     23  C   LIG    1       -0.753   3.179   0.026  0.00  0.00    +0.300 A 
BRANCH  19  25
ATOM     24  C   LIG    1        2.349   4.362   1.253  0.00  0.00    +0.050 C 
ATOM     25  C   LIG    1        1.454   4.376   0.012  0.00  0.00    +0.250 C 
ATOM     26  C   LIG    1        2.326   4.377  -1.245  0.00  0.00    +0.050 C 
ENDBRANCH  19  25
ENDBRANCH  15  23
ENDBRANCH   1  17
TORSDOF 5
