REMARK  Name = ZINCqH0000034SaD.0
REMARK                            x       y       z     vdW  Elec       q    Type
REMARK                         _______ _______ _______ _____ _____    ______ ____
ROOT
ATOM      1  N   LIG    1       -0.181   0.073   1.454  0.00  0.00    -0.720 N 
ATOM      2  H   LIG    1       -1.024  -0.406   1.472  0.00  0.00    +0.400 HD
ATOM      3  C   LIG    1       -0.166   1.402   1.227  0.00  0.00    +0.530 C 
ATOM      4  O   LIG    1        0.888   2.001   1.203  0.00  0.00    -0.530 OA
ENDROOT
BRANCH   1   5
ATOM      5  C   LIG    1        1.077  -0.646   1.672  0.00  0.00    +0.350 C 
BRANCH   5   6
ATOM      6  C   LIG    1        1.675  -1.026   0.342  0.00  0.00    -0.200 A 
ATOM      7  C   LIG    1        2.974  -0.974   0.040  0.00  0.00    +0.020 A 
ATOM      8  C   LIG    1        3.290  -1.373  -1.247  0.00  0.00    +0.000 A 
ATOM      9  C   LIG    1        2.248  -1.749  -1.991  0.00  0.00    -0.040 A 
ATOM     10  S   LIG    1        0.770  -1.613  -1.047  0.00  0.00    +0.110 S 
ENDBRANCH   5   6
BRANCH   5  11
ATOM     11  C   LIG    1        0.805  -1.911   2.488  0.00  0.00    +0.120 C 
BRANCH  11  12
ATOM     12  C   LIG    1        0.322  -1.528   3.863  0.00  0.00    +0.460 C 
ATOM     13  O   LIG    1        0.206  -0.362   4.159  0.00  0.00    -0.490 OA
BRANCH  12  15
ATOM     14  C   LIG    1       -0.440  -2.038   6.063  0.00  0.00    +0.260 C 
ATOM     15  O   LIG    1        0.020  -2.481   4.759  0.00  0.00    -0.360 OA
ENDBRANCH  12  15
ENDBRANCH  11  12
ENDBRANCH   5  11
ENDBRANCH   1   5
BRANCH   3  16
ATOM     16  C   LIG    1       -1.459   2.141   0.996  0.00  0.00    +0.070 C 
BRANCH  16  17
ATOM     17  C   LIG    1       -1.164   3.624   0.765  0.00  0.00    +0.070 C 
BRANCH  17  18
ATOM     18  C   LIG    1       -2.457   4.364   0.535  0.00  0.00    +0.400 C 
ATOM     19  O   LIG    1       -3.510   3.763   0.553  0.00  0.00    -0.450 OA
BRANCH  18  20
ATOM     20  C   LIG    1       -2.441   5.814   0.287  0.00  0.00    -0.170 A 
ATOM     21  C   LIG    1       -1.245   6.531   0.389  0.00  0.00    +0.060 A 
ATOM     22  C   LIG    1       -1.239   7.891   0.155  0.00  0.00    -0.110 A 
ATOM     23  C   LIG    1       -2.412   8.544  -0.179  0.00  0.00    +0.050 A 
ATOM     24  C   LIG    1       -3.599   7.841  -0.281  0.00  0.00    +0.000 A 
ATOM     25  C   LIG    1        0.049   8.666   0.265  0.00  0.00    +0.090 C 
ATOM     26  C   LIG    1       -3.622   6.481  -0.057  0.00  0.00    -0.030 A 
ATOM     27  C   LIG    1       -4.915   5.717  -0.175  0.00  0.00    +0.110 C 
ENDBRANCH  18  20
ENDBRANCH  17  18
ENDBRANCH  16  17
ENDBRANCH   3  16
TORSDOF 9
