REMARK  Name = ZINCqH0000035GTe.0
REMARK                            x       y       z     vdW  Elec       q    Type
REMARK                         _______ _______ _______ _____ _____    ______ ____
ROOT
ATOM      1  N   LIG    1       -3.489  -2.217   0.027  0.00  0.00    -0.710 N 
ATOM      2  H   LIG    1       -2.626  -2.660   0.016  0.00  0.00    +0.410 HD
ATOM      3  C   LIG    1       -3.554  -0.871   0.035  0.00  0.00    +0.570 C 
ATOM      4  O   LIG    1       -4.635  -0.315   0.049  0.00  0.00    -0.530 OA
ENDROOT
BRANCH   3   5
ATOM      5  C   LIG    1       -2.308  -0.067   0.025  0.00  0.00    +0.110 A 
ATOM      6  N   LIG    1       -1.143  -0.685   0.010  0.00  0.00    -0.440 NA
ATOM      7  C   LIG    1        0.002  -0.004   0.002  0.00  0.00    +0.120 A 
ATOM      8  C   LIG    1        1.242  -0.671  -0.014  0.00  0.00    +0.050 A 
ATOM      9  C   LIG    1        2.396   0.050  -0.021  0.00  0.00    +0.030 A 
ATOM     10  C   LIG    1        2.373   1.444  -0.014  0.00  0.00    +0.030 A 
ATOM     11  C   LIG    1        1.194   2.125   0.002  0.00  0.00    +0.030 A 
ATOM     12  C   LIG    1       -0.017   1.415   0.010  0.00  0.00    -0.090 A 
ATOM     13  C   LIG    1       -1.256   2.084   0.031  0.00  0.00    +0.090 A 
ATOM     14  C   LIG    1       -2.395   1.333   0.034  0.00  0.00    +0.020 A 
ENDBRANCH   3   5
BRANCH   1  15
ATOM     15  C   LIG    1       -4.720  -3.010   0.036  0.00  0.00    +0.320 C 
BRANCH  15  18
ATOM     16  C   LIG    1       -3.882  -6.502   1.210  0.00  0.00    +0.120 A 
ATOM     17  C   LIG    1       -4.201  -5.154   1.218  0.00  0.00    -0.020 A 
ATOM     18  C   LIG    1       -4.372  -4.477   0.025  0.00  0.00    -0.090 A 
ATOM     19  C   LIG    1       -4.231  -5.143  -1.178  0.00  0.00    +0.030 A 
ATOM     20  C   LIG    1       -3.908  -6.487  -1.193  0.00  0.00    -0.010 A 
ATOM     21  C   LIG    1       -3.735  -7.172  -0.001  0.00  0.00    +0.090 A 
BRANCH  16  23
ATOM     22  C   LIG    1       -3.878  -6.418   3.587  0.00  0.00    +0.240 C 
ATOM     23  O   LIG    1       -3.712  -7.169   2.383  0.00  0.00    -0.300 OA
ENDBRANCH  16  23
BRANCH  21  24
ATOM     24  O   LIG    1       -3.422  -8.495  -0.015  0.00  0.00    -0.310 OA
BRANCH  24  25
ATOM     25  C   LIG    1       -3.287  -9.117  -1.294  0.00  0.00    +0.590 C 
ATOM     26  F   LIG    1       -2.270  -8.483  -2.016  0.00  0.00    -0.200 F 
ATOM     27  F   LIG    1       -4.493  -9.008  -1.995  0.00  0.00    -0.200 F 
ENDBRANCH  24  25
ENDBRANCH  21  24
ENDBRANCH  15  18
ENDBRANCH   1  15
TORSDOF 6
