REMARK  Name = ZINCrm00000IMNIL.0
REMARK                            x       y       z     vdW  Elec       q    Type
REMARK                         _______ _______ _______ _____ _____    ______ ____
ROOT
ATOM      1  C   LIG    1       -4.885   0.605   2.857  0.00  0.00    +0.200 C 
ATOM      2  C   LIG    1       -5.233  -0.889   3.025  0.00  0.00    +0.230 C 
ATOM      3  N   LIG    1       -5.482  -1.373   1.642  0.00  0.00    -0.430 NA
ATOM      4  C   LIG    1       -4.446  -0.690   0.825  0.00  0.00    +0.260 C 
ATOM      5  C   LIG    1       -4.367   0.736   1.410  0.00  0.00    +0.190 C 
ENDROOT
BRANCH   3   6
ATOM      6  C   LIG    1       -5.347  -2.749   1.566  0.00  0.00    +0.450 C 
ATOM      7  C   LIG    1       -6.222  -3.587   2.261  0.00  0.00    -0.040 C 
ATOM      8  C   LIG    1       -6.050  -4.953   2.156  0.00  0.00    +0.460 C 
ATOM      9  N   LIG    1       -5.067  -5.426   1.403  0.00  0.00    -0.560 NA
ATOM     10  C   LIG    1       -4.251  -4.608   0.755  0.00  0.00    +0.630 C 
ATOM     11  H   LIG    1       -4.943  -6.385   1.327  0.00  0.00    +0.450 HD
ATOM     12  N   LIG    1       -4.386  -3.293   0.825  0.00  0.00    -0.560 NA
BRANCH  10  13
ATOM     13  N   LIG    1       -3.237  -5.142  -0.021  0.00  0.00    -0.560 NA
ATOM     14  C   LIG    1       -2.324  -4.254  -0.746  0.00  0.00    +0.360 C 
ATOM     15  C   LIG    1       -3.075  -6.595  -0.116  0.00  0.00    +0.350 C 
ENDBRANCH  10  13
ENDBRANCH   3   6
BRANCH   5  16
ATOM     16  N   LIG    1       -2.977   1.212   1.406  0.00  0.00    -0.500 N 
ATOM     17  H   LIG    1       -2.924   2.098   1.886  0.00  0.00    +0.440 HD
ATOM     18  H   LIG    1       -2.390   0.540   1.876  0.00  0.00    +0.430 HD
BRANCH  16  19
ATOM     19  C   LIG    1       -2.520   1.378   0.020  0.00  0.00    +0.410 C 
BRANCH  19  20
ATOM     20  C   LIG    1       -1.094   1.867   0.017  0.00  0.00    -0.060 A 
ATOM     21  C   LIG    1       -0.013   1.076   0.008  0.00  0.00    +0.060 A 
ATOM     22  C   LIG    1        1.147   1.973   0.002  0.00  0.00    -0.210 A 
ATOM     23  C   LIG    1        2.530   1.789  -0.013  0.00  0.00    +0.140 A 
ATOM     24  C   LIG    1        3.335   2.914  -0.014  0.00  0.00    -0.020 A 
ATOM     25  C   LIG    1        2.747   4.169  -0.002  0.00  0.00    +0.370 A 
ATOM     26  N   LIG    1        1.439   4.318   0.011  0.00  0.00    -0.470 NA
ATOM     27  C   LIG    1        0.619   3.277   0.013  0.00  0.00    +0.290 A 
ATOM     28  O   LIG    1       -0.724   3.159   0.025  0.00  0.00    -0.180 OA
ENDBRANCH  19  20
ENDBRANCH  16  19
ENDBRANCH   5  16
BRANCH   1  30
ATOM     29  C   LIG    1       -4.366   1.542   5.002  0.00  0.00    +0.260 C 
ATOM     30  O   LIG    1       -3.866   0.984   3.785  0.00  0.00    -0.400 OA
ENDBRANCH   1  30
TORSDOF 6
