REMARK  Name = ZINCrH000004vFKf.0
REMARK                            x       y       z     vdW  Elec       q    Type
REMARK                         _______ _______ _______ _____ _____    ______ ____
ROOT
ATOM      1  O   LIG    1       -6.224   5.813   5.474  0.00  0.00    -0.530 OA
ATOM      2  C   LIG    1       -5.208   5.593   4.840  0.00  0.00    +0.620 C 
ATOM      3  N   LIG    1       -4.801   4.325   4.637  0.00  0.00    -0.590 N 
ATOM      4  C   LIG    1       -5.477   3.205   5.307  0.00  0.00    +0.290 C 
ATOM      5  C   LIG    1       -5.905   2.184   4.249  0.00  0.00    +0.030 C 
ATOM      6  C   LIG    1       -4.687   1.775   3.417  0.00  0.00    +0.030 C 
ATOM      7  C   LIG    1       -4.121   3.004   2.701  0.00  0.00    +0.260 C 
ATOM      8  C   LIG    1       -3.672   4.035   3.742  0.00  0.00    +0.300 C 
ENDROOT
BRANCH   2   9
ATOM      9  C   LIG    1       -4.429   6.707   4.300  0.00  0.00    +0.090 A 
ATOM     10  N   LIG    1       -3.246   6.605   3.709  0.00  0.00    -0.380 NA
ATOM     11  C   LIG    1       -2.826   7.800   3.337  0.00  0.00    -0.000 A 
ATOM     12  C   LIG    1       -3.791   8.732   3.719  0.00  0.00    +0.070 A 
ATOM     13  C   LIG    1       -3.888  10.127   3.595  0.00  0.00    +0.070 A 
ATOM     14  C   LIG    1       -4.990  10.763   4.083  0.00  0.00    +0.060 A 
ATOM     15  C   LIG    1       -6.005  10.016   4.700  0.00  0.00    +0.040 A 
ATOM     16  C   LIG    1       -5.895   8.673   4.811  0.00  0.00    +0.250 A 
ATOM     17 BR   LIG    1       -1.200   8.182   2.451  0.00  0.00    +0.040 Br
ATOM     18  N   LIG    1       -4.799   8.026   4.327  0.00  0.00    -0.310 N 
ENDBRANCH   2   9
BRANCH   7  19
ATOM     19  N   LIG    1       -2.974   2.607   1.881  0.00  0.00    -0.340 N 
ATOM     20  C   LIG    1       -1.699   2.482   2.306  0.00  0.00    +0.260 A 
ATOM     21  C   LIG    1       -0.948   2.098   1.248  0.00  0.00    -0.070 A 
ATOM     22  C   LIG    1       -1.792   1.985   0.139  0.00  0.00    -0.020 A 
ATOM     23  N   LIG    1       -3.006   2.295   0.516  0.00  0.00    -0.230 NA
BRANCH  22  24
ATOM     24  C   LIG    1       -1.374   1.581  -1.252  0.00  0.00    +0.560 C 
ATOM     25  F   LIG    1       -2.213   2.196  -2.187  0.00  0.00    -0.170 F 
ATOM     26  F   LIG    1       -0.053   1.982  -1.476  0.00  0.00    -0.160 F 
ATOM     27  F   LIG    1       -1.469   0.192  -1.383  0.00  0.00    -0.170 F 
ENDBRANCH  22  24
ENDBRANCH   7  19
TORSDOF 3
