REMARK  Name = ZINCqH0000000tI5.0
REMARK                            x       y       z     vdW  Elec       q    Type
REMARK                         _______ _______ _______ _____ _____    ______ ____
ROOT
ATOM      1  S   LIG    1        2.707   0.911  -0.040  0.00  0.00    +2.690 S 
ATOM      2  O   LIG    1        2.415  -0.434   0.312  0.00  0.00    -0.950 OA
ATOM      3  O   LIG    1        3.634   1.718   0.673  0.00  0.00    -0.950 OA
ENDROOT
BRANCH   1   7
ATOM      4  C   LIG    1       -1.238   3.136   0.024  0.00  0.00    +0.210 A 
ATOM      5  C   LIG    1       -1.218   1.760  -0.164  0.00  0.00    +0.000 A 
ATOM      6  C   LIG    1       -0.013   1.084  -0.178  0.00  0.00    +0.150 A 
ATOM      7  C   LIG    1        1.172   1.777  -0.015  0.00  0.00    -0.690 A 
ATOM      8  C   LIG    1        1.156   3.147   0.168  0.00  0.00    +0.150 A 
ATOM      9  C   LIG    1       -0.045   3.829   0.188  0.00  0.00    -0.040 A 
BRANCH   4  12
ATOM     10  C   LIG    1       -4.893   3.921   0.456  0.00  0.00    +0.110 C 
ATOM     11  C   LIG    1       -3.557   3.229   0.543  0.00  0.00    +0.510 C 
ATOM     12  N   LIG    1       -2.456   3.823   0.043  0.00  0.00    -0.680 N 
ATOM     13  H   LIG    1       -2.508   4.728  -0.303  0.00  0.00    +0.420 HD
ATOM     14  O   LIG    1       -3.474   2.136   1.064  0.00  0.00    -0.520 OA
ENDBRANCH   4  12
ENDBRANCH   1   7
BRANCH   1  15
ATOM     15  N   LIG    1        3.227   0.881  -1.612  0.00  0.00    -1.110 NA
ATOM     16  H   LIG    1        3.296   0.036  -2.084  0.00  0.00    +0.420 HD
BRANCH  15  17
ATOM     17  C   LIG    1        3.581   2.130  -2.291  0.00  0.00    +0.390 C 
BRANCH  17  18
ATOM     18  C   LIG    1        4.731   1.881  -3.233  0.00  0.00    -0.090 A 
ATOM     19  C   LIG    1        4.777   0.716  -3.975  0.00  0.00    +0.010 A 
ATOM     20  C   LIG    1        5.830   0.490  -4.842  0.00  0.00    +0.010 A 
ATOM     21  C   LIG    1        6.842   1.425  -4.959  0.00  0.00    +0.010 A 
ATOM     22  C   LIG    1        6.798   2.587  -4.212  0.00  0.00    +0.010 A 
ATOM     23  C   LIG    1        5.743   2.815  -3.349  0.00  0.00    +0.030 A 
ENDBRANCH  17  18
BRANCH  17  24
ATOM     24  C   LIG    1        2.393   2.632  -3.071  0.00  0.00    -0.200 A 
ATOM     25  C   LIG    1        2.020   3.909  -3.168  0.00  0.00    +0.020 A 
ATOM     26  C   LIG    1        0.894   4.131  -3.941  0.00  0.00    +0.010 A 
ATOM     27  C   LIG    1        0.352   3.034  -4.473  0.00  0.00    -0.050 A 
ATOM     28  S   LIG    1        1.290   1.624  -4.000  0.00  0.00    +0.120 S 
ENDBRANCH  17  24
ENDBRANCH  15  17
ENDBRANCH   1  15
TORSDOF 6
