REMARK  Name = ZINCpe00000gMBmw.0
REMARK                            x       y       z     vdW  Elec       q    Type
REMARK                         _______ _______ _______ _____ _____    ______ ____
ROOT
ATOM      1  C   LIG    1        6.058   2.226   0.173  0.00  0.00    +0.370 C 
ENDROOT
BRANCH   1   2
ATOM      2  N   LIG    1        7.180   1.288   0.254  0.00  0.00    -0.530 N 
ATOM      3  C   LIG    1        7.785   0.866  -0.876  0.00  0.00    +0.570 A 
ATOM      4  C   LIG    1        8.909  -0.077  -0.763  0.00  0.00    -0.200 A 
ATOM      5  C   LIG    1        9.291  -0.484   0.500  0.00  0.00    +0.430 A 
ATOM      6  N   LIG    1        8.623  -0.006   1.584  0.00  0.00    -0.490 N 
ATOM      7  O   LIG    1        7.408   1.256  -1.966  0.00  0.00    -0.480 OA
ATOM      8  C   LIG    1        7.604   0.857   1.455  0.00  0.00    +0.710 A 
ATOM      9  O   LIG    1        7.043   1.259   2.456  0.00  0.00    -0.520 OA
BRANCH   6  10
ATOM     10  C   LIG    1        9.030  -0.439   2.923  0.00  0.00    +0.220 C 
ATOM     11  C   LIG    1       10.320  -1.254   3.041  0.00  0.00    +0.060 C 
ATOM     12  C   LIG    1        8.964  -1.936   3.233  0.00  0.00    +0.060 C 
ENDBRANCH   6  10
BRANCH   4  13
ATOM     13  C   LIG    1        9.588  -0.557  -1.929  0.00  0.00    +0.280 C 
ATOM     14  N   LIG    1       10.126  -0.938  -2.853  0.00  0.00    -0.400 NA
ENDBRANCH   4  13
ENDBRANCH   1   2
BRANCH   1  17
ATOM     15  N   LIG    1        3.594   2.116  -0.021  0.00  0.00    -0.660 N 
ATOM     16  H   LIG    1        3.586   3.083  -0.096  0.00  0.00    +0.420 HD
ATOM     17  C   LIG    1        4.766   1.457   0.067  0.00  0.00    +0.510 C 
ATOM     18  O   LIG    1        4.782   0.244   0.060  0.00  0.00    -0.510 OA
BRANCH  15  24
ATOM     19  C   LIG    1        1.246   1.951  -0.587  0.00  0.00    +0.100 A 
ATOM     20  C   LIG    1        0.055   1.243  -0.565  0.00  0.00    -0.060 A 
ATOM     21  C   LIG    1        0.001  -0.001   0.036  0.00  0.00    +0.030 A 
ATOM     22  C   LIG    1        1.132  -0.543   0.616  0.00  0.00    +0.000 A 
ATOM     23  C   LIG    1        2.325   0.157   0.599  0.00  0.00    +0.060 A 
ATOM     24  C   LIG    1        2.387   1.405  -0.002  0.00  0.00    +0.120 A 
BRANCH  19  26
ATOM     25  C   LIG    1        0.093   3.670  -1.757  0.00  0.00    +0.250 C 
ATOM     26  O   LIG    1        1.301   3.174  -1.178  0.00  0.00    -0.320 OA
ENDBRANCH  19  26
ENDBRANCH  15  24
ENDBRANCH   1  17
TORSDOF 6
