REMARK  Name = ZINCtV000002Fgo1.0
REMARK                            x       y       z     vdW  Elec       q    Type
REMARK                         _______ _______ _______ _____ _____    ______ ____
ROOT
ATOM      1  C   LIG    1        1.178   4.100   0.050  0.00  0.00    +0.140 A 
ATOM      2  C   LIG    1       -0.060   4.726  -0.012  0.00  0.00    +0.030 A 
ATOM      3  C   LIG    1       -1.216   3.971  -0.036  0.00  0.00    +0.060 A 
ATOM      4  C   LIG    1       -1.141   2.585  -0.004  0.00  0.00    +0.150 A 
ATOM      5  C   LIG    1        0.098   1.958   0.063  0.00  0.00    -0.050 A 
ATOM      6 CL   LIG    1        0.193   0.225   0.109  0.00  0.00    -0.050 Cl
ATOM      7  C   LIG    1        1.254   2.713   0.087  0.00  0.00    +0.070 A 
ENDROOT
BRANCH   1   9
ATOM      8  C   LIG    1        3.410   4.452   0.794  0.00  0.00    +0.610 C 
ATOM      9  N   LIG    1        2.349   4.866   0.074  0.00  0.00    -0.660 N 
ATOM     10  H   LIG    1        2.397   5.695  -0.428  0.00  0.00    +0.420 HD
ATOM     11  O   LIG    1        3.382   3.371   1.353  0.00  0.00    -0.490 OA
BRANCH   8  14
ATOM     12  C   LIG    1        5.977   3.740   2.399  0.00  0.00    +0.140 C 
ATOM     13  C   LIG    1        5.723   4.995   1.605  0.00  0.00    -0.060 A 
ATOM     14  C   LIG    1        4.601   5.305   0.905  0.00  0.00    -0.040 A 
ATOM     15  O   LIG    1        4.744   6.518   0.330  0.00  0.00    -0.180 OA
ATOM     16  C   LIG    1        5.949   7.048   0.619  0.00  0.00    +0.080 A 
ATOM     17  C   LIG    1        6.569   8.244   0.279  0.00  0.00    +0.050 A 
ATOM     18  C   LIG    1        7.840   8.513   0.739  0.00  0.00    +0.080 A 
ATOM     19  C   LIG    1        8.514   7.599   1.540  0.00  0.00    -0.050 A 
ATOM     20  C   LIG    1        7.923   6.416   1.887  0.00  0.00    +0.090 A 
ATOM     21 CL   LIG    1       10.114   7.962   2.104  0.00  0.00    -0.060 Cl
ATOM     22  C   LIG    1        6.635   6.125   1.432  0.00  0.00    -0.140 A 
ENDBRANCH   8  14
ENDBRANCH   1   9
BRANCH   4  23
ATOM     23  N   LIG    1       -2.313   1.819  -0.034  0.00  0.00    -0.660 N 
ATOM     24  H   LIG    1       -2.289   0.909  -0.368  0.00  0.00    +0.420 HD
ATOM     25  C   LIG    1       -3.474   2.347   0.400  0.00  0.00    +0.610 C 
ATOM     26  O   LIG    1       -3.487   3.452   0.911  0.00  0.00    -0.500 OA
BRANCH  25  27
ATOM     27  C   LIG    1       -4.722   1.592   0.257  0.00  0.00    -0.090 A 
ATOM     28  C   LIG    1       -5.962   2.007   0.652  0.00  0.00    +0.060 A 
ATOM     29  C   LIG    1       -6.856   0.976   0.323  0.00  0.00    -0.070 A 
ATOM     30  C   LIG    1       -6.133  -0.011  -0.251  0.00  0.00    +0.220 A 
ATOM     31  O   LIG    1       -4.848   0.366  -0.294  0.00  0.00    -0.170 OA
ENDBRANCH  25  27
ENDBRANCH   4  23
TORSDOF 4
