REMARK  Name = ZINC9p0000006kvI.0
REMARK                            x       y       z     vdW  Elec       q    Type
REMARK                         _______ _______ _______ _____ _____    ______ ____
ROOT
ATOM      1  C   LIG    1       -0.013   1.086   0.008  0.00  0.00    +0.070 C 
ATOM      2  C   LIG    1       -0.729   1.579   1.267  0.00  0.00    -0.070 C 
ATOM      3  C   LIG    1       -0.695   3.120   1.324  0.00  0.00    +0.060 C 
ATOM      4  C   LIG    1       -0.512   3.441   2.829  0.00  0.00    +0.020 C 
ATOM      5  C   LIG    1        0.460   2.330   3.299  0.00  0.00    +0.060 C 
ATOM      6  C   LIG    1       -2.177   1.085   1.273  0.00  0.00    +0.040 C 
ATOM      7  C   LIG    1        0.005   1.076   2.522  0.00  0.00    +0.060 C 
ATOM      8  C   LIG    1        1.222   0.240   2.119  0.00  0.00    +0.090 C 
ENDROOT
BRANCH   7   9
ATOM      9  N   LIG    1       -0.905   0.274   3.350  0.00  0.00    -0.630 N 
ATOM     10  H   LIG    1       -1.692   0.840   3.630  0.00  0.00    +0.430 HD
ATOM     11  H   LIG    1       -0.415  -0.051   4.170  0.00  0.00    +0.430 HD
ATOM     12  H   LIG    1       -1.233  -0.518   2.818  0.00  0.00    +0.430 HD
ENDBRANCH   7   9
TORSDOF 1
