REMARK  Name = ZINCrD0000071Tfg.0
REMARK                            x       y       z     vdW  Elec       q    Type
REMARK                         _______ _______ _______ _____ _____    ______ ____
ROOT
ATOM      1  C   LIG    1       -1.136   0.730  -2.160  0.00  0.00    +0.560 C 
ATOM      2  N   LIG    1       -1.470   1.369  -1.022  0.00  0.00    -0.610 N 
ATOM      3  C   LIG    1       -1.534   0.647   0.258  0.00  0.00    +0.280 C 
ATOM      4  C   LIG    1       -2.883   0.942   0.921  0.00  0.00    +0.190 C 
ATOM      5  N   LIG    1       -3.071   2.397   1.014  0.00  0.00    -0.490 N 
ATOM      6  C   LIG    1       -3.122   3.017  -0.317  0.00  0.00    +0.190 C 
ATOM      7  C   LIG    1       -1.780   2.806  -1.026  0.00  0.00    +0.300 C 
ATOM      8  O   LIG    1       -1.190   1.315  -3.224  0.00  0.00    -0.520 OA
ENDROOT
BRANCH   5   9
ATOM      9  C   LIG    1       -4.216   2.707   1.755  0.00  0.00    +0.100 A 
ATOM     10  C   LIG    1       -5.204   3.513   1.204  0.00  0.00    +0.000 A 
ATOM     11  C   LIG    1       -6.335   3.814   1.936  0.00  0.00    +0.020 A 
ATOM     12  C   LIG    1       -6.480   3.323   3.223  0.00  0.00    +0.070 A 
ATOM     13  C   LIG    1       -5.494   2.524   3.776  0.00  0.00    +0.010 A 
ATOM     14  F   LIG    1       -7.586   3.623   3.939  0.00  0.00    -0.140 F 
ATOM     15  C   LIG    1       -4.363   2.216   3.045  0.00  0.00    +0.030 A 
ENDBRANCH   5   9
BRANCH   1  20
ATOM     16  C   LIG    1       -0.572  -2.859  -3.135  0.00  0.00    +0.150 A 
ATOM     17  C   LIG    1        0.111  -3.333  -2.023  0.00  0.00    +0.030 A 
ATOM     18  C   LIG    1        0.386  -2.490  -0.962  0.00  0.00    +0.040 A 
ATOM     19  C   LIG    1       -0.011  -1.169  -1.004  0.00  0.00    +0.030 A 
ATOM     20  C   LIG    1       -0.704  -0.684  -2.115  0.00  0.00    -0.110 A 
ATOM     21  C   LIG    1       -0.981  -1.535  -3.185  0.00  0.00    +0.090 A 
BRANCH  16  23
ATOM     22  C   LIG    1       -0.829  -3.247  -5.469  0.00  0.00    +0.650 C 
ATOM     23  N   LIG    1       -0.849  -3.717  -4.206  0.00  0.00    -0.650 N 
ATOM     24  H   LIG    1       -1.054  -4.650  -4.039  0.00  0.00    +0.420 HD
ATOM     25  O   LIG    1       -0.655  -2.062  -5.673  0.00  0.00    -0.550 OA
BRANCH  22  26
ATOM     26  O   LIG    1       -1.003  -4.090  -6.504  0.00  0.00    -0.370 OA
BRANCH  26  28
ATOM     27  C   LIG    1       -1.183  -4.618  -8.874  0.00  0.00    +0.080 C 
ATOM     28  C   LIG    1       -0.970  -3.514  -7.836  0.00  0.00    +0.220 C 
ENDBRANCH  26  28
ENDBRANCH  22  26
ENDBRANCH  16  23
ENDBRANCH   1  20
TORSDOF 5
