REMARK  Name = ZINCkj000005jJgf.0
REMARK                            x       y       z     vdW  Elec       q    Type
REMARK                         _______ _______ _______ _____ _____    ______ ____
ROOT
ATOM      1  N   LIG    1        0.581   0.917   3.160  0.00  0.00    -0.700 N 
ATOM      2  H   LIG    1        1.231   1.588   2.898  0.00  0.00    +0.420 HD
ATOM      3  C   LIG    1       -0.548   0.755   2.442  0.00  0.00    +0.510 C 
ATOM      4  O   LIG    1       -1.360  -0.084   2.770  0.00  0.00    -0.520 OA
ENDROOT
BRANCH   3   5
ATOM      5  C   LIG    1       -0.801   1.617   1.232  0.00  0.00    +0.180 C 
ATOM      6  C   LIG    1       -0.013   1.086   0.008  0.00  0.00    +0.130 C 
ATOM      7  C   LIG    1       -0.822   1.629  -1.192  0.00  0.00    +0.200 C 
ATOM      8  C   LIG    1       -2.231   1.904  -0.635  0.00  0.00    +0.250 C 
ATOM      9  N   LIG    1       -2.220   1.507   0.790  0.00  0.00    -0.500 N 
ATOM     10  H   LIG    1       -2.543   0.557   0.889  0.00  0.00    +0.440 HD
ATOM     11  H   LIG    1       -2.801   2.131   1.329  0.00  0.00    +0.440 HD
BRANCH   7  12
ATOM     12  O   LIG    1       -0.237   2.838  -1.679  0.00  0.00    -0.550 OA
ATOM     13  H   LIG    1       -0.703   3.224  -2.433  0.00  0.00    +0.400 HD
ENDBRANCH   7  12
ENDBRANCH   3   5
BRANCH   1  15
ATOM     14  C   LIG    1        1.469  -1.239   3.899  0.00  0.00    +0.060 C 
ATOM     15  C   LIG    1        0.827   0.080   4.337  0.00  0.00    +0.360 C 
BRANCH  15  16
ATOM     16  C   LIG    1        1.754   0.800   5.281  0.00  0.00    -0.010 A 
ATOM     17  C   LIG    1        1.637   0.806   6.616  0.00  0.00    -0.010 A 
ATOM     18  C   LIG    1        2.745   1.625   7.121  0.00  0.00    -0.140 A 
ATOM     19  C   LIG    1        3.171   2.012   8.390  0.00  0.00    +0.060 A 
ATOM     20  C   LIG    1        4.286   2.812   8.520  0.00  0.00    +0.010 A 
ATOM     21  C   LIG    1        4.981   3.230   7.394  0.00  0.00    +0.060 A 
ATOM     22  C   LIG    1        4.569   2.855   6.133  0.00  0.00    +0.020 A 
ATOM     23  C   LIG    1        3.449   2.049   5.981  0.00  0.00    +0.060 A 
ATOM     24  O   LIG    1        2.822   1.526   4.907  0.00  0.00    -0.190 OA
ENDBRANCH  15  16
ENDBRANCH   1  15
TORSDOF 4
