REMARK  Name = ZINCrH000004snbj.0
REMARK                            x       y       z     vdW  Elec       q    Type
REMARK                         _______ _______ _______ _____ _____    ______ ____
ROOT
ATOM      1  C   LIG    1        3.448   2.108   0.606  0.00  0.00    +0.560 C 
ATOM      2  N   LIG    1        4.600   1.455   0.859  0.00  0.00    -0.670 N 
ATOM      3  H   LIG    1        4.636   0.489   0.786  0.00  0.00    +0.410 HD
ATOM      4  O   LIG    1        3.428   3.323   0.594  0.00  0.00    -0.490 OA
ENDROOT
BRANCH   1  11
ATOM      5  C   LIG    1        1.050   3.504  -0.205  0.00  0.00    +0.160 C 
ATOM      6  C   LIG    1        1.043   2.005  -0.049  0.00  0.00    +0.210 A 
ATOM      7  N   LIG    1       -0.061   1.331  -0.284  0.00  0.00    -0.480 NA
ATOM      8  C   LIG    1       -0.114   0.010  -0.160  0.00  0.00    +0.210 A 
ATOM      9  C   LIG    1        1.011  -0.718   0.227  0.00  0.00    -0.030 A 
ATOM     10  C   LIG    1        2.192  -0.049   0.483  0.00  0.00    +0.110 A 
ATOM     11  C   LIG    1        2.211   1.346   0.343  0.00  0.00    -0.200 A 
BRANCH   8  12
ATOM     12  C   LIG    1       -1.385  -0.701  -0.438  0.00  0.00    -0.060 A 
ATOM     13  C   LIG    1       -2.516   0.015  -0.826  0.00  0.00    +0.080 A 
ATOM     14  C   LIG    1       -3.697  -0.652  -1.083  0.00  0.00    +0.020 A 
ATOM     15  C   LIG    1       -3.759  -2.028  -0.957  0.00  0.00    +0.070 A 
ATOM     16  C   LIG    1       -2.639  -2.744  -0.573  0.00  0.00    -0.100 A 
ATOM     17 BR   LIG    1       -2.734  -4.625  -0.404  0.00  0.00    -0.040 Br
ATOM     18  C   LIG    1       -1.451  -2.088  -0.317  0.00  0.00    +0.070 A 
ENDBRANCH   8  12
ENDBRANCH   1  11
BRANCH   2  19
ATOM     19  C   LIG    1        5.743   2.172   1.227  0.00  0.00    +0.130 A 
ATOM     20  C   LIG    1        7.003   1.696   0.888  0.00  0.00    +0.050 A 
ATOM     21  C   LIG    1        8.129   2.410   1.247  0.00  0.00    +0.020 A 
ATOM     22  C   LIG    1        8.005   3.591   1.955  0.00  0.00    +0.120 A 
ATOM     23  C   LIG    1        6.752   4.065   2.300  0.00  0.00    -0.660 A 
ATOM     24  C   LIG    1        5.621   3.359   1.938  0.00  0.00    +0.130 A 
BRANCH  23  25
ATOM     25  S   LIG    1        6.598   5.570   3.203  0.00  0.00    +2.700 S 
ATOM     26  O   LIG    1        5.296   6.070   2.932  0.00  0.00    -0.950 OA
ATOM     27  O   LIG    1        7.784   6.312   2.950  0.00  0.00    -0.960 OA
BRANCH  25  28
ATOM     28  N   LIG    1        6.625   5.182   4.812  0.00  0.00    -1.250 NA
ATOM     29  H   LIG    1        6.284   4.324   5.110  0.00  0.00    +0.420 HD
ATOM     30  H   LIG    1        6.981   5.813   5.458  0.00  0.00    +0.420 HD
ENDBRANCH  25  28
ENDBRANCH  23  25
ENDBRANCH   2  19
TORSDOF 5
