REMARK  Name = ZINCah0000002JCA.0
REMARK                            x       y       z     vdW  Elec       q    Type
REMARK                         _______ _______ _______ _____ _____    ______ ____
ROOT
ATOM      1  C   LIG    1        1.286   1.562  -0.002  0.00  0.00    +0.210 C 
ATOM      2  C   LIG    1        2.066   1.173  -1.281  0.00  0.00    +0.220 C 
ATOM      3  O   LIG    1        1.757   2.251  -2.181  0.00  0.00    -0.300 OA
ATOM      4  C   LIG    1        1.490   3.376  -1.462  0.00  0.00    +0.120 A 
ATOM      5  C   LIG    1        1.483   4.710  -1.861  0.00  0.00    -0.010 A 
ATOM      6  C   LIG    1        1.173   5.704  -0.956  0.00  0.00    +0.060 A 
ATOM      7  C   LIG    1        0.865   5.385   0.354  0.00  0.00    -0.020 A 
ATOM      8  C   LIG    1        0.873   4.062   0.759  0.00  0.00    +0.080 A 
ATOM      9  C   LIG    1        1.187   3.068  -0.141  0.00  0.00    -0.180 A 
ENDROOT
BRANCH   1  10
ATOM     10  O   LIG    1       -0.011   0.963   0.007  0.00  0.00    -0.550 OA
ATOM     11  H   LIG    1        0.002  -0.004   0.002  0.00  0.00    +0.380 HD
ENDBRANCH   1  10
TORSDOF 1
