REMARK  Name = ZINCpe000000YmCT.0
REMARK                            x       y       z     vdW  Elec       q    Type
REMARK                         _______ _______ _______ _____ _____    ______ ____
ROOT
ATOM      1  C   LIG    1       -0.014   1.213   0.009  0.00  0.00    +0.620 C 
ATOM      2  N   LIG    1        1.143   1.903   0.001  0.00  0.00    -0.640 N 
ATOM      3  C   LIG    1        1.528   3.325   0.005  0.00  0.00    +0.270 C 
ATOM      4  C   LIG    1        2.825   2.911  -0.678  0.00  0.00    -0.110 C 
ATOM      5  C   LIG    1        4.126   3.684  -0.479  0.00  0.00    +0.060 C 
ATOM      6  C   LIG    1        4.529   3.190  -1.881  0.00  0.00    +0.010 C 
ATOM      7  C   LIG    1        3.026   3.047  -2.184  0.00  0.00    +0.050 C 
ATOM      8  C   LIG    1        2.577   1.563  -0.007  0.00  0.00    +0.270 C 
ATOM      9  O   LIG    1        0.002  -0.004   0.002  0.00  0.00    -0.490 OA
ENDROOT
BRANCH   1  15
ATOM     10  C   LIG    1       -6.702   0.542   0.038  0.00  0.00    +0.330 C 
ATOM     11  N   LIG    1       -5.278   0.883   0.032  0.00  0.00    -0.550 N 
ATOM     12  C   LIG    1       -4.349  -0.110   0.022  0.00  0.00    +0.590 A 
ATOM     13  N   LIG    1       -3.069   0.111   0.017  0.00  0.00    -0.480 NA
ATOM     14  C   LIG    1       -2.566   1.365   0.022  0.00  0.00    +0.100 A 
ATOM     15  C   LIG    1       -1.292   1.928   0.019  0.00  0.00    -0.020 A 
ATOM     16  N   LIG    1       -1.476   3.286   0.033  0.00  0.00    -0.340 N 
ATOM     17  H   LIG    1       -0.762   3.942   0.038  0.00  0.00    +0.450 HD
ATOM     18  N   LIG    1       -2.732   3.567   0.035  0.00  0.00    -0.180 NA
ATOM     19  C   LIG    1       -3.460   2.475   0.032  0.00  0.00    -0.070 A 
ATOM     20  C   LIG    1       -4.902   2.183   0.038  0.00  0.00    +0.590 A 
ATOM     21  O   LIG    1       -5.727   3.078   0.048  0.00  0.00    -0.490 OA
ENDBRANCH   1  15
BRANCH   8  22
ATOM     22  C   LIG    1        3.187   1.455   1.391  0.00  0.00    +0.150 C 
ATOM     23  C   LIG    1        2.834   0.090   2.013  0.00  0.00    +0.010 C 
ATOM     24  C   LIG    1        4.208  -0.559   2.309  0.00  0.00    +0.010 C 
ATOM     25  C   LIG    1        5.148   0.672   2.343  0.00  0.00    +0.200 C 
ATOM     26  O   LIG    1        4.620   1.527   1.306  0.00  0.00    -0.360 OA
ENDBRANCH   8  22
TORSDOF 2
