REMARK  Name = ZINCvU0000000BFK.0
REMARK                            x       y       z     vdW  Elec       q    Type
REMARK                         _______ _______ _______ _____ _____    ______ ____
ROOT
ATOM      1  C   LIG    1       -1.744   4.218   0.052  0.00  0.00    +0.110 C 
ENDROOT
BRANCH   1   2
ATOM      2  C   LIG    1       -0.754   3.082   0.063  0.00  0.00    -0.160 A 
ATOM      3  C   LIG    1       -1.042   1.772   0.095  0.00  0.00    +0.230 A 
ATOM      4  N   LIG    1        0.114   1.040   0.099  0.00  0.00    -0.590 N 
ATOM      5  H   LIG    1        0.160   0.071   0.122  0.00  0.00    +0.420 HD
ATOM      6  C   LIG    1        1.202   1.882   0.059  0.00  0.00    +0.100 A 
ATOM      7  C   LIG    1        2.576   1.671   0.039  0.00  0.00    -0.010 A 
ATOM      8  C   LIG    1        3.433   2.749  -0.003  0.00  0.00    +0.030 A 
ATOM      9  C   LIG    1        2.939   4.046  -0.026  0.00  0.00    -0.020 A 
ATOM     10  C   LIG    1        1.593   4.276  -0.008  0.00  0.00    +0.050 A 
ATOM     11  C   LIG    1        0.706   3.199   0.035  0.00  0.00    -0.100 A 
ENDBRANCH   1   2
BRANCH   1  12
ATOM     12  C   LIG    1       -2.632   4.099  -1.161  0.00  0.00    -0.070 A 
ATOM     13  C   LIG    1       -3.409   2.970  -1.340  0.00  0.00    +0.010 A 
ATOM     14  C   LIG    1       -4.226   2.862  -2.450  0.00  0.00    +0.000 A 
ATOM     15  C   LIG    1       -4.259   3.879  -3.385  0.00  0.00    +0.000 A 
ATOM     16  C   LIG    1       -3.478   5.006  -3.208  0.00  0.00    +0.010 A 
ATOM     17  C   LIG    1       -2.664   5.116  -2.096  0.00  0.00    +0.010 A 
ENDBRANCH   1  12
BRANCH   1  18
ATOM     18  C   LIG    1       -2.601   4.161   1.318  0.00  0.00    +0.280 C 
BRANCH  18  19
ATOM     19  N   LIG    1       -3.482   5.330   1.365  0.00  0.00    -0.710 N 
ATOM     20  H   LIG    1       -3.453   5.988   0.653  0.00  0.00    +0.410 HD
BRANCH  19  24
ATOM     21  C   LIG    1       -6.081   5.846   4.502  0.00  0.00    -0.260 A 
ATOM     22  C   LIG    1       -5.254   4.713   4.492  0.00  0.00    +0.120 A 
ATOM     23  C   LIG    1       -4.393   4.543   3.442  0.00  0.00    -0.120 A 
ATOM     24  C   LIG    1       -4.355   5.497   2.427  0.00  0.00    +0.430 A 
ATOM     25  N   LIG    1       -5.148   6.559   2.461  0.00  0.00    -0.550 NA
ATOM     26  C   LIG    1       -5.994   6.759   3.449  0.00  0.00    +0.390 A 
BRANCH  21  28
ATOM     27  O   LIG    1       -7.641   7.119   5.685  0.00  0.00    -0.540 OA
ATOM     28  C   LIG    1       -7.030   6.071   5.610  0.00  0.00    +0.590 C 
ATOM     29  N   LIG    1       -7.218   5.113   6.540  0.00  0.00    -0.620 N 
ATOM     30  C   LIG    1       -6.478   3.846   6.628  0.00  0.00    +0.250 C 
ATOM     31  C   LIG    1       -7.050   3.063   7.828  0.00  0.00    +0.030 C 
ATOM     32  C   LIG    1       -8.465   3.677   7.998  0.00  0.00    +0.040 C 
ATOM     33  C   LIG    1       -8.206   5.160   7.633  0.00  0.00    +0.260 C 
ENDBRANCH  21  28
ENDBRANCH  19  24
ENDBRANCH  18  19
ENDBRANCH   1  18
TORSDOF 6
