REMARK  Name = ZINCpe00000FU9kK.0
REMARK                            x       y       z     vdW  Elec       q    Type
REMARK                         _______ _______ _______ _____ _____    ______ ____
ROOT
ATOM      1  C   LIG    1       -6.022   6.139   2.394  0.00  0.00    +0.180 C 
ATOM      2  C   LIG    1       -6.449   5.752   0.971  0.00  0.00    +0.300 C 
ATOM      3  N   LIG    1       -5.306   4.827   0.936  0.00  0.00    -0.640 N 
ATOM      4  C   LIG    1       -5.006   3.678   0.299  0.00  0.00    +0.560 C 
ATOM      5  O   LIG    1       -5.806   3.183  -0.466  0.00  0.00    -0.500 OA
ATOM      6  C   LIG    1       -4.636   5.705   1.907  0.00  0.00    +0.270 C 
ENDROOT
BRANCH   4   7
ATOM      7  C   LIG    1       -3.678   3.007   0.539  0.00  0.00    +0.200 C 
ATOM      8  C   LIG    1       -2.553   3.903   0.032  0.00  0.00    +0.100 C 
ATOM      9  C   LIG    1       -1.246   3.155   0.027  0.00  0.00    -0.040 A 
ATOM     10  C   LIG    1       -0.054   3.852   0.022  0.00  0.00    +0.020 A 
ATOM     11  C   LIG    1        1.150   3.169   0.009  0.00  0.00    +0.050 A 
ATOM     12  C   LIG    1        1.171   1.786   0.001  0.00  0.00    +0.010 A 
ATOM     13  C   LIG    1       -0.013   1.076   0.008  0.00  0.00    +0.090 A 
ATOM     14  C   LIG    1       -1.227   1.760   0.017  0.00  0.00    -0.180 A 
ATOM     15  C   LIG    1       -2.507   1.014   0.028  0.00  0.00    +0.530 C 
ATOM     16  O   LIG    1       -2.539  -0.187   0.204  0.00  0.00    -0.440 OA
ATOM     17  O   LIG    1       -3.642   1.732  -0.166  0.00  0.00    -0.330 OA
ENDBRANCH   4   7
BRANCH   1  18
ATOM     18  O   LIG    1       -6.136   7.535   2.680  0.00  0.00    -0.360 OA
BRANCH  18  19
ATOM     19  C   LIG    1       -6.409   7.827   4.052  0.00  0.00    +0.370 C 
BRANCH  19  24
ATOM     20  C   LIG    1       -8.085  12.534   4.385  0.00  0.00    +0.200 C 
ATOM     21  C   LIG    1       -7.202  11.313   4.381  0.00  0.00    +0.170 A 
ATOM     22  N   LIG    1       -5.924  11.288   4.613  0.00  0.00    -0.380 NA
ATOM     23  O   LIG    1       -5.505  10.152   4.536  0.00  0.00    +0.090 OA
ATOM     24  C   LIG    1       -6.507   9.319   4.238  0.00  0.00    +0.180 A 
ATOM     25  N   LIG    1       -7.591  10.050   4.132  0.00  0.00    -0.460 NA
ENDBRANCH  19  24
ENDBRANCH  18  19
ENDBRANCH   1  18
TORSDOF 4
