REMARK  Name = ZINCrH000004rQXD.0
REMARK                            x       y       z     vdW  Elec       q    Type
REMARK                         _______ _______ _______ _____ _____    ______ ____
ROOT
ATOM      1  N   LIG    1        3.175  10.718  -0.349  0.00  0.00    -0.490 N 
ATOM      2  C   LIG    1        4.441  10.074   0.026  0.00  0.00    +0.190 C 
ATOM      3  C   LIG    1        4.597   8.766  -0.757  0.00  0.00    +0.300 C 
ATOM      4  N   LIG    1        3.394   7.947  -0.542  0.00  0.00    -0.610 N 
ATOM      5  C   LIG    1        2.080   8.566  -0.771  0.00  0.00    +0.280 C 
ATOM      6  C   LIG    1        3.494   6.661  -0.150  0.00  0.00    +0.510 C 
ATOM      7  O   LIG    1        4.586   6.165   0.030  0.00  0.00    -0.510 OA
ATOM      8  C   LIG    1        2.024   9.884   0.018  0.00  0.00    +0.190 C 
ENDROOT
BRANCH   1  14
ATOM      9  C   LIG    1        0.628  14.871   0.297  0.00  0.00    +0.090 C 
ATOM     10  C   LIG    1        1.850  14.026   0.549  0.00  0.00    -0.060 A 
ATOM     11  C   LIG    1        2.872  14.510   1.345  0.00  0.00    -0.020 A 
ATOM     12  C   LIG    1        3.995  13.737   1.579  0.00  0.00    +0.030 A 
ATOM     13  C   LIG    1        4.099  12.479   1.020  0.00  0.00    -0.050 A 
ATOM     14  C   LIG    1        3.074  11.990   0.220  0.00  0.00    +0.110 A 
ATOM     15  C   LIG    1        1.950  12.771  -0.018  0.00  0.00    -0.020 A 
ENDBRANCH   1  14
BRANCH   6  16
ATOM     16  C   LIG    1        2.249   5.840   0.065  0.00  0.00    -0.010 C 
ATOM     17  C   LIG    1        1.649   6.171   1.433  0.00  0.00    +0.120 C 
BRANCH  16  18
ATOM     18  S   LIG    1        2.668   4.077  -0.002  0.00  0.00    -0.000 S 
BRANCH  18  19
ATOM     19  C   LIG    1        3.094   3.834  -1.694  0.00  0.00    -0.040 A 
ATOM     20  C   LIG    1        3.601   2.611  -2.116  0.00  0.00    +0.050 A 
ATOM     21  C   LIG    1        3.934   2.424  -3.443  0.00  0.00    +0.130 A 
ATOM     22  C   LIG    1        3.769   3.455  -4.351  0.00  0.00    -0.060 A 
ATOM     23  C   LIG    1        3.260   4.672  -3.935  0.00  0.00    +0.130 A 
ATOM     24  C   LIG    1        2.925   4.865  -2.610  0.00  0.00    +0.000 A 
BRANCH  22  25
ATOM     25  N   LIG    1        4.133   3.253  -5.771  0.00  0.00    +0.030 N 
ATOM     26  O   LIG    1        3.989   4.159  -6.572  0.00  0.00    -0.160 OA
ATOM     27  O   LIG    1        4.577   2.180  -6.140  0.00  0.00    -0.160 OA
ENDBRANCH  22  25
ENDBRANCH  18  19
ENDBRANCH  16  18
ENDBRANCH   6  16
TORSDOF 5
