REMARK  Name = ZINCqH0000007ijK.0
REMARK                            x       y       z     vdW  Elec       q    Type
REMARK                         _______ _______ _______ _____ _____    ______ ____
ROOT
ATOM      1  N   LIG    1       -1.963   2.546   3.435  0.00  0.00    -0.660 N 
ATOM      2  H   LIG    1       -1.960   1.588   3.283  0.00  0.00    +0.420 HD
ATOM      3  C   LIG    1       -2.492   3.046   4.569  0.00  0.00    +0.510 C 
ATOM      4  O   LIG    1       -2.588   4.246   4.716  0.00  0.00    -0.530 OA
ENDROOT
BRANCH   1   8
ATOM      5  C   LIG    1       -0.337   5.119   0.578  0.00  0.00    +0.150 A 
ATOM      6  C   LIG    1       -0.408   5.511   1.907  0.00  0.00    -0.090 A 
ATOM      7  C   LIG    1       -0.947   4.659   2.853  0.00  0.00    +0.110 A 
ATOM      8  C   LIG    1       -1.417   3.411   2.475  0.00  0.00    +0.080 A 
ATOM      9  C   LIG    1       -1.347   3.016   1.141  0.00  0.00    +0.140 A 
ATOM     10  C   LIG    1       -0.802   3.869   0.196  0.00  0.00    -0.080 A 
BRANCH   5  12
ATOM     11  C   LIG    1        0.658   7.228   0.114  0.00  0.00    +0.250 C 
ATOM     12  O   LIG    1        0.194   5.959  -0.350  0.00  0.00    -0.320 OA
ENDBRANCH   5  12
BRANCH   9  13
ATOM     13  O   LIG    1       -1.808   1.792   0.767  0.00  0.00    -0.320 OA
ATOM     14  C   LIG    1       -1.704   1.454  -0.617  0.00  0.00    +0.250 C 
ENDBRANCH   9  13
ENDBRANCH   1   8
BRANCH   3  15
ATOM     15  C   LIG    1       -2.965   2.114   5.655  0.00  0.00    +0.070 C 
BRANCH  15  16
ATOM     16  C   LIG    1       -3.517   2.932   6.824  0.00  0.00    +0.060 C 
BRANCH  16  17
ATOM     17  C   LIG    1       -3.990   2.000   7.910  0.00  0.00    +0.360 C 
ATOM     18  O   LIG    1       -3.894   0.805   7.764  0.00  0.00    -0.450 OA
BRANCH  17  19
ATOM     19  C   LIG    1       -4.581   2.559   9.179  0.00  0.00    +0.060 C 
BRANCH  19  20
ATOM     20  C   LIG    1       -4.977   1.409  10.107  0.00  0.00    +0.060 C 
BRANCH  20  21
ATOM     21  C   LIG    1       -5.568   1.969  11.376  0.00  0.00    +0.420 C 
ATOM     22  O   LIG    1       -5.664   3.171  11.522  0.00  0.00    -0.450 OA
BRANCH  21  23
ATOM     23  C   LIG    1       -6.011   1.095  12.393  0.00  0.00    -0.310 A 
ATOM     24  C   LIG    1       -6.565   1.481  13.588  0.00  0.00    +0.110 A 
ATOM     25  C   LIG    1       -6.906   0.423  14.392  0.00  0.00    -0.010 A 
ATOM     26  C   LIG    1       -6.645  -0.788  13.882  0.00  0.00    -0.050 A 
ATOM     27  S   LIG    1       -5.949  -0.661  12.330  0.00  0.00    +0.230 S 
ENDBRANCH  21  23
ENDBRANCH  20  21
ENDBRANCH  19  20
ENDBRANCH  17  19
ENDBRANCH  16  17
ENDBRANCH  15  16
ENDBRANCH   3  15
TORSDOF 10
