REMARK  Name = ZINCpe000000ZzAT.0
REMARK                            x       y       z     vdW  Elec       q    Type
REMARK                         _______ _______ _______ _____ _____    ______ ____
ROOT
ATOM      1  C   LIG    1        9.013   2.918   4.688  0.00  0.00    +0.130 A 
ATOM      2  C   LIG    1        9.222   1.837   5.544  0.00  0.00    -0.040 A 
ATOM      3  C   LIG    1        8.278   0.829   5.601  0.00  0.00    +0.280 A 
ATOM      4  N   LIG    1        7.189   0.877   4.862  0.00  0.00    -0.440 NA
ATOM      5  C   LIG    1        6.949   1.886   4.033  0.00  0.00    +0.140 A 
ATOM      6  C   LIG    1        7.853   2.935   3.915  0.00  0.00    -0.020 A 
ENDROOT
BRANCH   1  10
ATOM      7  O   LIG    1        9.186   4.906   1.280  0.00  0.00    -0.540 OA
ATOM      8  C   LIG    1        9.745   4.374   2.215  0.00  0.00    +0.490 C 
ATOM      9  C   LIG    1        9.541   4.939   3.593  0.00  0.00    +0.280 C 
ATOM     10  N   LIG    1        9.941   3.952   4.604  0.00  0.00    -0.470 N 
ATOM     11  C   LIG    1       11.284   3.430   4.302  0.00  0.00    +0.250 C 
ATOM     12  C   LIG    1       11.205   2.575   3.036  0.00  0.00    +0.230 C 
ATOM     13  N   LIG    1       10.518   3.308   1.978  0.00  0.00    -0.720 N 
ATOM     14  H   LIG    1       10.626   3.010   1.061  0.00  0.00    +0.400 HD
ENDBRANCH   1  10
BRANCH   5  15
ATOM     15  C   LIG    1        5.707   1.891   3.222  0.00  0.00    +0.540 C 
ATOM     16  O   LIG    1        5.480   2.814   2.460  0.00  0.00    -0.590 OA
BRANCH  15  17
ATOM     17  N   LIG    1        4.836   0.883   3.327  0.00  0.00    -0.610 NA
ATOM     18  C   LIG    1        3.722   0.887   2.599  0.00  0.00    +0.470 A 
ATOM     19  C   LIG    1        2.715  -0.103   2.604  0.00  0.00    -0.090 A 
ATOM     20  C   LIG    1        1.760   0.263   1.728  0.00  0.00    +0.180 A 
ATOM     21  C   LIG    1        0.476  -0.468   1.415  0.00  0.00    +0.140 C 
ATOM     22  C   LIG    1       -0.047   0.045   0.066  0.00  0.00    +0.040 C 
ATOM     23  C   LIG    1       -0.066   1.577   0.089  0.00  0.00    +0.050 C 
ATOM     24  C   LIG    1        1.373   2.104   0.068  0.00  0.00    +0.310 C 
ATOM     25  N   LIG    1        2.131   1.441   1.135  0.00  0.00    -0.390 N 
ATOM     26  N   LIG    1        3.337   1.858   1.704  0.00  0.00    -0.480 N 
ATOM     27  H   LIG    1        3.814   2.678   1.504  0.00  0.00    +0.450 HD
ENDBRANCH  15  17
ENDBRANCH   5  15
TORSDOF 3
