REMARK  Name = ZINCrD000000CLXD.0
REMARK                            x       y       z     vdW  Elec       q    Type
REMARK                         _______ _______ _______ _____ _____    ______ ____
ROOT
ATOM      1  C   LIG    1       -0.565   1.985  -0.910  0.00  0.00    +0.590 C 
ATOM      2  N   LIG    1        0.624   1.546  -0.451  0.00  0.00    -0.580 N 
ATOM      3  O   LIG    1       -1.003   3.056  -0.537  0.00  0.00    -0.530 OA
ENDROOT
BRANCH   1  14
ATOM      4  O   LIG    1       -3.022   2.663  -5.383  0.00  0.00    -0.450 OA
ATOM      5  C   LIG    1       -3.039   1.465  -5.193  0.00  0.00    +0.410 C 
ATOM      6  C   LIG    1       -3.585   0.515  -6.238  0.00  0.00    +0.040 C 
ATOM      7  C   LIG    1       -4.430  -0.534  -5.503  0.00  0.00    +0.070 C 
ATOM      8  C   LIG    1       -3.531  -1.340  -4.571  0.00  0.00    +0.100 C 
ATOM      9  C   LIG    1       -2.771  -0.441  -3.629  0.00  0.00    +0.250 A 
ATOM     10  N   LIG    1       -2.322  -0.968  -2.472  0.00  0.00    -0.590 N 
ATOM     11  H   LIG    1       -2.509  -1.899  -2.275  0.00  0.00    +0.420 HD
ATOM     12  C   LIG    1       -1.618  -0.243  -1.587  0.00  0.00    +0.530 A 
ATOM     13  O   LIG    1       -1.224  -0.754  -0.555  0.00  0.00    -0.500 OA
ATOM     14  C   LIG    1       -1.332   1.167  -1.864  0.00  0.00    -0.260 A 
ATOM     15  C   LIG    1       -1.799   1.710  -3.054  0.00  0.00    +0.230 A 
ATOM     16  C   LIG    1       -2.530   0.887  -3.937  0.00  0.00    -0.280 A 
ENDBRANCH   1  14
BRANCH   2  17
ATOM     17  C   LIG    1        1.130   0.235  -0.863  0.00  0.00    +0.250 C 
BRANCH  17  18
ATOM     18  C   LIG    1        1.950  -0.377   0.274  0.00  0.00    -0.010 C 
ATOM     19  C   LIG    1        3.422   0.068   0.281  0.00  0.00    +0.010 C 
ATOM     20  C   LIG    1        3.775  -1.384   0.653  0.00  0.00    +0.010 C 
ATOM     21  C   LIG    1        2.459  -1.796  -0.027  0.00  0.00    +0.020 C 
ENDBRANCH  17  18
ENDBRANCH   2  17
BRANCH   2  22
ATOM     22  C   LIG    1        1.412   2.383   0.458  0.00  0.00    +0.330 C 
BRANCH  22  23
ATOM     23  C   LIG    1        2.328   3.270  -0.345  0.00  0.00    -0.100 A 
ATOM     24  C   LIG    1        3.600   2.837  -0.670  0.00  0.00    +0.010 A 
ATOM     25  C   LIG    1        4.439   3.649  -1.410  0.00  0.00    -0.010 A 
ATOM     26  C   LIG    1        4.010   4.898  -1.817  0.00  0.00    +0.000 A 
ATOM     27  C   LIG    1        2.740   5.333  -1.488  0.00  0.00    +0.000 A 
ATOM     28  C   LIG    1        1.899   4.519  -0.752  0.00  0.00    +0.030 A 
ENDBRANCH  22  23
ENDBRANCH   2  22
TORSDOF 5
