REMARK  Name = ZINCrD000000C3ig.0
REMARK                            x       y       z     vdW  Elec       q    Type
REMARK                         _______ _______ _______ _____ _____    ______ ____
ROOT
ATOM      1  O   LIG    1        0.706  -2.899  -1.129  0.00  0.00    -0.550 OA
ATOM      2  C   LIG    1        1.397  -2.167  -1.812  0.00  0.00    +0.700 C 
ATOM      3  N   LIG    1        1.661  -0.912  -1.399  0.00  0.00    -0.730 N 
ATOM      4  H   LIG    1        2.212  -0.328  -1.943  0.00  0.00    +0.400 HD
ATOM      5  N   LIG    1        1.899  -2.612  -2.981  0.00  0.00    -0.680 N 
ATOM      6  H   LIG    1        2.385  -2.006  -3.562  0.00  0.00    +0.410 HD
ENDROOT
BRANCH   5   7
ATOM      7  C   LIG    1        1.718  -3.950  -3.357  0.00  0.00    +0.130 A 
ATOM      8  C   LIG    1        1.572  -4.279  -4.703  0.00  0.00    +0.010 A 
ATOM      9  C   LIG    1        1.394  -5.589  -5.090  0.00  0.00    +0.010 A 
ATOM     10  C   LIG    1        1.359  -6.598  -4.133  0.00  0.00    +0.080 A 
ATOM     11  N   LIG    1        1.200  -7.966  -4.206  0.00  0.00    -0.600 N 
ATOM     12  H   LIG    1        1.077  -8.470  -5.025  0.00  0.00    +0.420 HD
ATOM     13  C   LIG    1        1.242  -8.506  -2.950  0.00  0.00    +0.220 A 
ATOM     14  C   LIG    1        1.424  -7.535  -2.040  0.00  0.00    -0.050 A 
ATOM     15  C   LIG    1        1.506  -6.270  -2.773  0.00  0.00    -0.090 A 
ATOM     16  C   LIG    1        1.691  -4.940  -2.392  0.00  0.00    +0.070 A 
ENDBRANCH   5   7
BRANCH   3  17
ATOM     17  C   LIG    1        1.115  -0.428  -0.128  0.00  0.00    +0.270 C 
ATOM     18  C   LIG    1        1.938   0.773   0.392  0.00  0.00    +0.080 C 
ATOM     19  C   LIG    1        1.137   1.970  -0.170  0.00  0.00    +0.270 C 
ATOM     20  N   LIG    1       -0.234   1.476  -0.342  0.00  0.00    -0.580 N 
ATOM     21  C   LIG    1       -0.275   0.133  -0.328  0.00  0.00    +0.510 C 
ATOM     22  O   LIG    1       -1.281  -0.533  -0.458  0.00  0.00    -0.490 OA
BRANCH  20  23
ATOM     23  C   LIG    1       -1.356   2.300  -0.506  0.00  0.00    +0.070 A 
ATOM     24  C   LIG    1       -1.749   2.697  -1.779  0.00  0.00    +0.140 A 
ATOM     25  C   LIG    1       -2.860   3.506  -1.937  0.00  0.00    -0.010 A 
ATOM     26  C   LIG    1       -3.573   3.929  -0.830  0.00  0.00    +0.100 A 
ATOM     27  C   LIG    1       -3.182   3.541   0.438  0.00  0.00    -0.010 A 
ATOM     28  F   LIG    1       -1.050   2.289  -2.860  0.00  0.00    -0.120 F 
ATOM     29  C   LIG    1       -2.075   2.727   0.604  0.00  0.00    +0.140 A 
ATOM     30  F   LIG    1       -1.694   2.348   1.844  0.00  0.00    -0.120 F 
ENDBRANCH  20  23
ENDBRANCH   3  17
TORSDOF 3
