REMARK  Name = ZINCpk00000FjuUA.0
REMARK                            x       y       z     vdW  Elec       q    Type
REMARK                         _______ _______ _______ _____ _____    ______ ____
ROOT
ATOM      1  N   LIG    1       -0.698   1.558   1.213  0.00  0.00    -0.710 N 
ATOM      2  H   LIG    1       -1.495   2.106   1.135  0.00  0.00    +0.410 HD
ENDROOT
BRANCH   1   6
ATOM      3  C   LIG    1        0.733   0.578   4.935  0.00  0.00    -0.260 A 
ATOM      4  C   LIG    1        1.417   0.107   3.805  0.00  0.00    +0.180 A 
ATOM      5  C   LIG    1        0.933   0.432   2.566  0.00  0.00    -0.110 A 
ATOM      6  C   LIG    1       -0.209   1.224   2.465  0.00  0.00    +0.430 A 
ATOM      7  N   LIG    1       -0.837   1.656   3.550  0.00  0.00    -0.550 NA
ATOM      8  C   LIG    1       -0.408   1.362   4.759  0.00  0.00    +0.350 A 
BRANCH   3  11
ATOM      9  N   LIG    1        0.549   0.708   7.371  0.00  0.00    -0.730 N 
ATOM     10  H   LIG    1       -0.244   1.254   7.256  0.00  0.00    +0.400 HD
ATOM     11  C   LIG    1        1.214   0.250   6.291  0.00  0.00    +0.580 C 
ATOM     12  O   LIG    1        2.209  -0.434   6.435  0.00  0.00    -0.540 OA
BRANCH   9  13
ATOM     13  C   LIG    1        1.026   0.382   8.717  0.00  0.00    +0.410 C 
BRANCH  13  15
ATOM     14  C   LIG    1       -0.575   1.485  10.511  0.00  0.00    +0.060 C 
ATOM     15  C   LIG    1        0.135   0.996   9.715  0.00  0.00    -0.220 C 
ENDBRANCH  13  15
ENDBRANCH   9  13
ENDBRANCH   3  11
ENDBRANCH   1   6
BRANCH   1  16
ATOM     16  C   LIG    1       -0.013   1.086   0.008  0.00  0.00    +0.300 C 
BRANCH  16  17
ATOM     17  C   LIG    1       -0.753   1.593  -1.232  0.00  0.00    +0.150 C 
ATOM     18  C   LIG    1       -0.069   1.074  -2.516  0.00  0.00    +0.040 C 
ATOM     19  C   LIG    1       -1.247   0.782  -3.475  0.00  0.00    +0.040 C 
ATOM     20  C   LIG    1       -2.501   1.163  -2.656  0.00  0.00    +0.290 C 
ATOM     21  O   LIG    1       -2.090   1.048  -1.277  0.00  0.00    -0.350 OA
BRANCH  20  22
ATOM     22  C   LIG    1       -3.628   0.206  -2.949  0.00  0.00    +0.180 A 
ATOM     23  N   LIG    1       -4.716   0.468  -3.634  0.00  0.00    -0.470 NA
ATOM     24  C   LIG    1       -5.425  -0.675  -3.636  0.00  0.00    +0.170 A 
ATOM     25  N   LIG    1       -4.749  -1.554  -2.959  0.00  0.00    -0.380 NA
ATOM     26  C   LIG    1       -6.761  -0.894  -4.298  0.00  0.00    +0.210 C 
ATOM     27  O   LIG    1       -3.713  -1.068  -2.555  0.00  0.00    +0.090 OA
ENDBRANCH  20  22
ENDBRANCH  16  17
ENDBRANCH   1  16
TORSDOF 7
