REMARK  Name = ZINCqH0000007eba.0
REMARK                            x       y       z     vdW  Elec       q    Type
REMARK                         _______ _______ _______ _____ _____    ______ ____
ROOT
ATOM      1  C   LIG    1        4.312   2.575  -2.750  0.00  0.00    +0.180 A 
ATOM      2  N   LIG    1        4.239   3.837  -3.052  0.00  0.00    -0.380 NA
ATOM      3  O   LIG    1        3.620   4.437  -2.199  0.00  0.00    +0.080 OA
ATOM      4  C   LIG    1        3.237   3.591  -1.238  0.00  0.00    +0.190 A 
ATOM      5  N   LIG    1        3.669   2.402  -1.582  0.00  0.00    -0.470 NA
ENDROOT
BRANCH   4   6
ATOM      6  C   LIG    1        2.451   3.937   0.001  0.00  0.00    +0.080 C 
ATOM      7  C   LIG    1        3.270   3.575   1.244  0.00  0.00    +0.050 C 
ATOM      8  C   LIG    1        4.545   4.423   1.270  0.00  0.00    +0.210 C 
ATOM      9  O   LIG    1        4.197   5.808   1.252  0.00  0.00    -0.370 OA
ATOM     10  C   LIG    1        3.472   6.213   0.088  0.00  0.00    +0.220 C 
ATOM     11  C   LIG    1        2.153   5.439   0.016  0.00  0.00    +0.030 C 
BRANCH   6  12
ATOM     12  C   LIG    1        1.156   3.165   0.008  0.00  0.00    -0.090 A 
ATOM     13  C   LIG    1        1.175   1.783   0.000  0.00  0.00    +0.040 A 
ATOM     14  C   LIG    1       -0.013   1.076   0.008  0.00  0.00    +0.000 A 
ATOM     15  C   LIG    1       -1.219   1.751   0.017  0.00  0.00    +0.010 A 
ATOM     16  C   LIG    1       -1.238   3.133   0.029  0.00  0.00    +0.010 A 
ATOM     17  C   LIG    1       -0.050   3.840   0.023  0.00  0.00    +0.020 A 
ENDBRANCH   6  12
ENDBRANCH   4   6
BRANCH   1  18
ATOM     18  C   LIG    1        4.993   1.502  -3.561  0.00  0.00    +0.230 C 
BRANCH  18  22
ATOM     19  C   LIG    1        2.200  -0.188  -6.319  0.00  0.00    +0.130 A 
ATOM     20  C   LIG    1        2.969   0.906  -6.691  0.00  0.00    -0.020 A 
ATOM     21  C   LIG    1        3.871   1.451  -5.797  0.00  0.00    +0.060 A 
ATOM     22  C   LIG    1        4.008   0.906  -4.534  0.00  0.00    -0.130 A 
ATOM     23  C   LIG    1        3.248  -0.187  -4.163  0.00  0.00    +0.070 A 
ATOM     24  C   LIG    1        2.340  -0.732  -5.051  0.00  0.00    -0.080 A 
BRANCH  19  26
ATOM     25  C   LIG    1        0.556  -1.850  -6.746  0.00  0.00    +0.250 C 
ATOM     26  O   LIG    1        1.313  -0.725  -7.197  0.00  0.00    -0.320 OA
ENDBRANCH  19  26
ENDBRANCH  18  22
ENDBRANCH   1  18
TORSDOF 5
