REMARK  Name = ZINCpe000000XOqE.0
REMARK                            x       y       z     vdW  Elec       q    Type
REMARK                         _______ _______ _______ _____ _____    ______ ____
ROOT
ATOM      1  C   LIG    1        0.705   7.707   0.853  0.00  0.00    +0.100 C 
ATOM      2  C   LIG    1        0.796   6.262   0.435  0.00  0.00    +0.010 A 
ATOM      3  C   LIG    1       -0.346   5.484   0.385  0.00  0.00    +0.020 A 
ATOM      4  C   LIG    1       -0.267   4.162  -0.004  0.00  0.00    +0.060 A 
ATOM      5  C   LIG    1        0.964   3.609  -0.334  0.00  0.00    +0.120 A 
ATOM      6  C   LIG    1        2.110   4.393  -0.283  0.00  0.00    +0.140 A 
ATOM      7  C   LIG    1        2.022   5.716   0.101  0.00  0.00    -0.660 A 
ENDROOT
BRANCH   5   8
ATOM      8  N   LIG    1        1.049   2.268  -0.722  0.00  0.00    -0.670 N 
ATOM      9  H   LIG    1        0.332   1.867  -1.239  0.00  0.00    +0.410 HD
ATOM     10  C   LIG    1        2.126   1.534  -0.379  0.00  0.00    +0.570 C 
ATOM     11  O   LIG    1        3.055   2.055   0.209  0.00  0.00    -0.490 OA
BRANCH  10  12
ATOM     12  C   LIG    1        2.175   0.109  -0.709  0.00  0.00    -0.070 C 
ATOM     13  C   LIG    1        1.141  -0.450  -1.352  0.00  0.00    +0.200 C 
ATOM     14  O   LIG    1        1.131  -1.761  -1.675  0.00  0.00    -0.300 OA
ATOM     15  C   LIG    1        2.392  -2.440  -1.651  0.00  0.00    +0.230 C 
ATOM     16  C   LIG    1        3.123  -2.043  -0.360  0.00  0.00    +0.230 C 
ATOM     17  O   LIG    1        3.273  -0.617  -0.360  0.00  0.00    -0.280 OA
ENDBRANCH  10  12
ENDBRANCH   5   8
BRANCH   7  18
ATOM     18  S   LIG    1        3.475   6.711   0.167  0.00  0.00    +2.690 S 
ATOM     19  O   LIG    1        4.559   5.862  -0.186  0.00  0.00    -0.940 OA
ATOM     20  O   LIG    1        3.416   7.427   1.393  0.00  0.00    -0.950 OA
BRANCH  18  21
ATOM     21  N   LIG    1        3.352   7.839  -1.040  0.00  0.00    -1.000 NA
ATOM     22  C   LIG    1        3.768   7.524  -2.416  0.00  0.00    +0.280 C 
ATOM     23  C   LIG    1        2.623   7.915  -3.364  0.00  0.00    +0.220 C 
ATOM     24  O   LIG    1        2.246   9.271  -3.109  0.00  0.00    -0.370 OA
ATOM     25  C   LIG    1        1.736   9.499  -1.793  0.00  0.00    +0.210 C 
ATOM     26  C   LIG    1        2.830   9.187  -0.766  0.00  0.00    +0.270 C 
ENDBRANCH  18  21
ENDBRANCH   7  18
TORSDOF 4
