REMARK  Name = ZINCpe000027pHsq.0
REMARK                            x       y       z     vdW  Elec       q    Type
REMARK                         _______ _______ _______ _____ _____    ______ ____
ROOT
ATOM      1  C   LIG    1        2.967   6.364  -2.632  0.00  0.00    +0.470 C 
ATOM      2  O   LIG    1        2.568   5.839  -3.644  0.00  0.00    -0.490 OA
ENDROOT
BRANCH   1   3
ATOM      3  C   LIG    1        3.857   7.578  -2.713  0.00  0.00    +0.180 C 
BRANCH   3   7
ATOM      4  C   LIG    1        4.539   8.575  -6.818  0.00  0.00    -0.160 A 
ATOM      5  C   LIG    1        5.399   7.697  -6.155  0.00  0.00    +0.120 A 
ATOM      6  C   LIG    1        5.176   7.385  -4.831  0.00  0.00    +0.010 A 
ATOM      7  C   LIG    1        4.096   7.930  -4.159  0.00  0.00    -0.020 A 
ATOM      8  C   LIG    1        3.238   8.800  -4.806  0.00  0.00    +0.000 A 
ATOM      9  C   LIG    1        3.451   9.127  -6.132  0.00  0.00    +0.170 A 
ATOM     10  F   LIG    1        2.613   9.978  -6.764  0.00  0.00    -0.110 F 
BRANCH   4  11
ATOM     11  C   LIG    1        4.775   8.918  -8.233  0.00  0.00    +0.510 C 
ATOM     12  O   LIG    1        4.025   9.682  -8.806  0.00  0.00    -0.490 OA
BRANCH  11  14
ATOM     13  C   LIG    1        5.994   8.766 -10.280  0.00  0.00    +0.290 C 
ATOM     14  O   LIG    1        5.823   8.384  -8.890  0.00  0.00    -0.350 OA
ENDBRANCH  11  14
ENDBRANCH   4  11
ENDBRANCH   3   7
ENDBRANCH   1   3
BRANCH   1  15
ATOM     15  O   LIG    1        2.618   5.867  -1.435  0.00  0.00    -0.350 OA
BRANCH  15  16
ATOM     16  C   LIG    1        1.759   4.696  -1.433  0.00  0.00    +0.230 C 
BRANCH  16  17
ATOM     17  C   LIG    1        1.471   4.278   0.010  0.00  0.00    +0.420 C 
BRANCH  17  18
ATOM     18  N   LIG    1        0.604   3.097   0.012  0.00  0.00    -0.120 N 
ATOM     19  N   LIG    1        1.025   1.882   0.002  0.00  0.00    -0.260 NA
ATOM     20  C   LIG    1       -0.013   1.076   0.008  0.00  0.00    +0.290 A 
ATOM     21  C   LIG    1       -1.139   1.902   0.017  0.00  0.00    +0.040 A 
ATOM     22  N   LIG    1       -0.681   3.134   0.024  0.00  0.00    -0.200 NA
BRANCH  21  23
ATOM     23  N   LIG    1       -2.557   1.477   0.021  0.00  0.00    +0.060 N 
ATOM     24  O   LIG    1       -3.443   2.313   0.028  0.00  0.00    -0.120 OA
ATOM     25  O   LIG    1       -2.837   0.292   0.016  0.00  0.00    -0.120 OA
ENDBRANCH  21  23
ENDBRANCH  17  18
ENDBRANCH  16  17
ENDBRANCH  15  16
ENDBRANCH   1  15
TORSDOF 9
