REMARK  Name = ZINCrD00000l8alG.0
REMARK                            x       y       z     vdW  Elec       q    Type
REMARK                         _______ _______ _______ _____ _____    ______ ____
ROOT
ATOM      1  C   LIG    1        6.462  -0.184  -0.063  0.00  0.00    +0.240 C 
ENDROOT
BRANCH   1   2
ATOM      2  C   LIG    1        6.567  -1.687  -0.073  0.00  0.00    +0.400 C 
ATOM      3  O   LIG    1        5.562  -2.366  -0.067  0.00  0.00    -0.420 OA
BRANCH   2   4
ATOM      4  C   LIG    1        7.888  -2.330  -0.090  0.00  0.00    -0.150 A 
ATOM      5  C   LIG    1        9.049  -1.549  -0.097  0.00  0.00    +0.070 A 
ATOM      6  C   LIG    1       10.286  -2.155  -0.113  0.00  0.00    -0.020 A 
ATOM      7  C   LIG    1       10.384  -3.540  -0.120  0.00  0.00    +0.110 A 
ATOM      8  C   LIG    1        9.231  -4.326  -0.114  0.00  0.00    +0.110 A 
ATOM      9  C   LIG    1        7.988  -3.727  -0.093  0.00  0.00    +0.030 A 
BRANCH   8  10
ATOM     10  O   LIG    1        9.333  -5.682  -0.122  0.00  0.00    -0.300 OA
ATOM     11  C   LIG    1        8.112  -6.424  -0.114  0.00  0.00    +0.250 C 
ENDBRANCH   8  10
BRANCH   7  12
ATOM     12  O   LIG    1       11.606  -4.132  -0.135  0.00  0.00    -0.300 OA
BRANCH  12  13
ATOM     13  C   LIG    1       12.745  -3.268  -0.142  0.00  0.00    +0.600 C 
ATOM     14  F   LIG    1       12.729  -2.467   1.005  0.00  0.00    -0.200 F 
ATOM     15  F   LIG    1       12.707  -2.455  -1.280  0.00  0.00    -0.200 F 
ENDBRANCH  12  13
ENDBRANCH   7  12
ENDBRANCH   2   4
ENDBRANCH   1   2
BRANCH   1  16
ATOM     16  O   LIG    1        5.062   0.203  -0.047  0.00  0.00    -0.310 OA
BRANCH  16  17
ATOM     17  C   LIG    1        4.793   1.524  -0.037  0.00  0.00    +0.550 C 
ATOM     18  O   LIG    1        5.702   2.330  -0.041  0.00  0.00    -0.500 OA
BRANCH  17  21
ATOM     19  C   LIG    1        1.178   1.674  -0.000  0.00  0.00    +0.350 A 
ATOM     20  N   LIG    1        2.360   1.147  -0.009  0.00  0.00    -0.510 NA
ATOM     21  C   LIG    1        3.398   1.989  -0.020  0.00  0.00    +0.070 A 
ATOM     22  C   LIG    1        3.070   3.300  -0.009  0.00  0.00    -0.010 A 
ATOM     23  S   LIG    1        1.313   3.430   0.009  0.00  0.00    +0.100 S 
BRANCH  19  24
ATOM     24  N   LIG    1       -0.011   0.966   0.007  0.00  0.00    -0.690 N 
ATOM     25  H   LIG    1        0.002  -0.004   0.002  0.00  0.00    +0.420 HD
BRANCH  24  26
ATOM     26  C   LIG    1       -1.290   1.681   0.017  0.00  0.00    +0.300 C 
BRANCH  26  28
ATOM     27  C   LIG    1       -3.339   0.738   0.951  0.00  0.00    +0.060 C 
ATOM     28  C   LIG    1       -2.422   0.686   0.017  0.00  0.00    -0.060 C 
ENDBRANCH  26  28
ENDBRANCH  24  26
ENDBRANCH  19  24
ENDBRANCH  17  21
ENDBRANCH  16  17
ENDBRANCH   1  16
TORSDOF 11
