REMARK  Name = ZINCfA000000b7TH.0
REMARK                            x       y       z     vdW  Elec       q    Type
REMARK                         _______ _______ _______ _____ _____    ______ ____
ROOT
ATOM      1  C   LIG    1       -0.013   1.086   0.008  0.00  0.00    +0.240 C 
ATOM      2  C   LIG    1        1.423   1.615  -0.003  0.00  0.00    +0.100 C 
ENDROOT
BRANCH   1   3
ATOM      3  C   LIG    1       -0.742   1.585  -1.213  0.00  0.00    -0.210 A 
ATOM      4  C   LIG    1       -0.905   0.764  -2.318  0.00  0.00    +0.110 A 
ATOM      5  C   LIG    1       -1.583   1.265  -3.418  0.00  0.00    -0.010 A 
ATOM      6  C   LIG    1       -2.069   2.558  -3.378  0.00  0.00    +0.160 A 
ATOM      7  N   LIG    1       -1.896   3.311  -2.309  0.00  0.00    -0.470 NA
ATOM      8  C   LIG    1       -2.808   3.113  -4.569  0.00  0.00    +0.150 C 
ATOM      9  C   LIG    1       -1.261   2.866  -1.243  0.00  0.00    +0.260 A 
ENDBRANCH   1   3
BRANCH   1  10
ATOM     10  N   LIG    1       -0.700   1.560   1.217  0.00  0.00    -0.510 N 
ATOM     11  H   LIG    1       -1.669   1.280   1.184  0.00  0.00    +0.430 HD
ATOM     12  H   LIG    1       -0.642   2.566   1.264  0.00  0.00    +0.420 HD
BRANCH  10  13
ATOM     13  C   LIG    1       -0.062   0.976   2.404  0.00  0.00    +0.260 C 
BRANCH  13  14
ATOM     14  C   LIG    1       -0.778   1.469   3.663  0.00  0.00    +0.070 C 
BRANCH  14  16
ATOM     15  C   LIG    1        0.802   1.540   5.523  0.00  0.00    +0.050 C 
ATOM     16  C   LIG    1       -0.123   0.871   4.881  0.00  0.00    -0.150 C 
ATOM     17  C   LIG    1       -0.531  -0.499   5.360  0.00  0.00    +0.080 C 
ENDBRANCH  14  16
ENDBRANCH  13  14
ENDBRANCH  10  13
ENDBRANCH   1  10
TORSDOF 5
