REMARK  Name = ZINCrD00000F5LxJ.0
REMARK                            x       y       z     vdW  Elec       q    Type
REMARK                         _______ _______ _______ _____ _____    ______ ____
ROOT
ATOM      1  C   LIG    1        0.428   3.995   0.971  0.00  0.00    +0.060 C 
ATOM      2  C   LIG    1        0.473   3.100  -0.269  0.00  0.00    +0.160 C 
ATOM      3  C   LIG    1       -0.936   2.967  -0.847  0.00  0.00    +0.060 C 
ATOM      4  C   LIG    1       -1.785   2.128   0.117  0.00  0.00    +0.050 C 
ATOM      5  C   LIG    1       -1.245   0.694   0.109  0.00  0.00    +0.070 C 
ATOM      6  C   LIG    1        0.245   0.710   0.295  0.00  0.00    +0.520 C 
ATOM      7  O   LIG    1        0.792  -0.316   0.639  0.00  0.00    -0.540 OA
ATOM      8  N   LIG    1        1.000   1.792   0.099  0.00  0.00    -0.600 N 
ENDROOT
BRANCH   2   9
ATOM      9  C   LIG    1        1.373   3.727  -1.303  0.00  0.00    +0.520 C 
ATOM     10  N   LIG    1        2.018   2.950  -2.196  0.00  0.00    -0.660 N 
ATOM     11  H   LIG    1        1.888   1.988  -2.185  0.00  0.00    +0.420 HD
ATOM     12  O   LIG    1        1.518   4.931  -1.331  0.00  0.00    -0.500 OA
BRANCH  10  13
ATOM     13  C   LIG    1        2.875   3.530  -3.140  0.00  0.00    +0.150 A 
ATOM     14  C   LIG    1        3.522   4.723  -2.849  0.00  0.00    +0.040 A 
ATOM     15  C   LIG    1        4.373   5.293  -3.777  0.00  0.00    +0.060 A 
ATOM     16  C   LIG    1        4.572   4.683  -5.004  0.00  0.00    +0.020 A 
ATOM     17  O   LIG    1        5.341   5.038  -6.076  0.00  0.00    -0.310 OA
ATOM     18  C   LIG    1        5.470   3.843  -6.869  0.00  0.00    +0.430 C 
ATOM     19  O   LIG    1        4.279   3.096  -6.558  0.00  0.00    -0.310 OA
ATOM     20  C   LIG    1        3.920   3.488  -5.301  0.00  0.00    +0.050 A 
ATOM     21  C   LIG    1        3.072   2.915  -4.369  0.00  0.00    +0.010 A 
ENDBRANCH  10  13
ENDBRANCH   2   9
BRANCH   8  22
ATOM     22  C   LIG    1        2.449   1.657   0.262  0.00  0.00    +0.320 C 
BRANCH  22  23
ATOM     23  C   LIG    1        2.806   1.804   1.719  0.00  0.00    -0.110 A 
ATOM     24  C   LIG    1        3.265   3.017   2.199  0.00  0.00    +0.010 A 
ATOM     25  C   LIG    1        3.588   3.153   3.536  0.00  0.00    +0.000 A 
ATOM     26  C   LIG    1        3.462   2.074   4.391  0.00  0.00    +0.010 A 
ATOM     27  C   LIG    1        3.008   0.860   3.910  0.00  0.00    +0.000 A 
ATOM     28  C   LIG    1        2.680   0.725   2.574  0.00  0.00    +0.050 A 
ENDBRANCH  22  23
ENDBRANCH   8  22
TORSDOF 4
