REMARK  Name = ZINCqH0000004Fte.0
REMARK                            x       y       z     vdW  Elec       q    Type
REMARK                         _______ _______ _______ _____ _____    ______ ____
ROOT
ATOM      1  C   LIG    1        3.672   2.182  -0.023  0.00  0.00    +0.340 C 
ENDROOT
BRANCH   1   2
ATOM      2  C   LIG    1        3.991   2.644   1.375  0.00  0.00    -0.060 A 
ATOM      3  C   LIG    1        3.372   3.767   1.890  0.00  0.00    +0.000 A 
ATOM      4  C   LIG    1        3.660   4.189   3.175  0.00  0.00    +0.040 A 
ATOM      5  C   LIG    1        4.575   3.495   3.942  0.00  0.00    -0.010 A 
ATOM      6  C   LIG    1        5.200   2.372   3.425  0.00  0.00    +0.100 A 
ATOM      7  F   LIG    1        6.095   1.692   4.175  0.00  0.00    -0.140 F 
ATOM      8  C   LIG    1        4.907   1.948   2.141  0.00  0.00    +0.000 A 
ENDBRANCH   1   2
BRANCH   1  12
ATOM      9  C   LIG    1        0.002  -0.004   0.002  0.00  0.00    -0.070 A 
ATOM     10  C   LIG    1       -0.017   1.378   0.010  0.00  0.00    +0.020 A 
ATOM     11  C   LIG    1        1.171   2.086   0.002  0.00  0.00    +0.010 A 
ATOM     12  C   LIG    1        2.377   1.411  -0.015  0.00  0.00    -0.100 A 
ATOM     13  C   LIG    1        2.396   0.029  -0.022  0.00  0.00    +0.030 A 
ATOM     14  C   LIG    1        1.208  -0.679  -0.013  0.00  0.00    +0.020 A 
BRANCH   9  16
ATOM     15  C   LIG    1       -1.745  -1.028  -1.429  0.00  0.00    +0.030 C 
ATOM     16  C   LIG    1       -1.293  -0.775   0.011  0.00  0.00    +0.050 C 
ENDBRANCH   9  16
ENDBRANCH   1  12
BRANCH   1  17
ATOM     17  N   LIG    1        3.542   3.345  -0.904  0.00  0.00    -0.720 N 
ATOM     18  H   LIG    1        2.666   3.726  -1.079  0.00  0.00    +0.400 HD
ATOM     19  C   LIG    1        4.637   3.887  -1.472  0.00  0.00    +0.500 C 
ATOM     20  O   LIG    1        5.731   3.412  -1.253  0.00  0.00    -0.510 OA
BRANCH  19  21
ATOM     21  C   LIG    1        4.503   5.084  -2.378  0.00  0.00    +0.330 C 
BRANCH  21  22
ATOM     22  N   LIG    1        5.827   5.479  -2.864  0.00  0.00    -0.450 N 
ATOM     23  C   LIG    1        6.637   6.442  -2.323  0.00  0.00    +0.120 A 
ATOM     24  C   LIG    1        7.754   6.478  -3.073  0.00  0.00    +0.150 A 
ATOM     25  N   LIG    1        7.627   5.569  -4.051  0.00  0.00    -0.490 NA
ATOM     26  C   LIG    1        6.475   4.967  -3.932  0.00  0.00    +0.220 A 
ATOM     27  C   LIG    1        5.954   3.880  -4.836  0.00  0.00    +0.170 C 
ENDBRANCH  21  22
ENDBRANCH  19  21
ENDBRANCH   1  17
TORSDOF 6
