REMARK  Name = ZINCqH0000003WFq.0
REMARK                            x       y       z     vdW  Elec       q    Type
REMARK                         _______ _______ _______ _____ _____    ______ ____
ROOT
ATOM      1  C   LIG    1       -1.344  -1.036  -0.019  0.00  0.00    -0.030 A 
ATOM      2  C   LIG    1       -1.191  -2.379  -0.366  0.00  0.00    +0.080 A 
ATOM      3  C   LIG    1       -2.276  -3.230  -0.315  0.00  0.00    +0.010 A 
ATOM      4  C   LIG    1       -3.514  -2.753   0.079  0.00  0.00    +0.140 A 
ATOM      5  C   LIG    1       -3.672  -1.423   0.424  0.00  0.00    -0.670 A 
ATOM      6  C   LIG    1       -2.594  -0.563   0.382  0.00  0.00    +0.170 A 
ENDROOT
BRANCH   1  10
ATOM      7  C   LIG    1        1.831   0.716   0.029  0.00  0.00    +0.170 A 
ATOM      8  N   LIG    1        0.976   1.644  -0.340  0.00  0.00    -0.290 NA
ATOM      9  N   LIG    1       -0.210   1.152  -0.400  0.00  0.00    -0.260 NA
ATOM     10  C   LIG    1       -0.185  -0.119  -0.072  0.00  0.00    +0.220 A 
ATOM     11  N   LIG    1        1.123  -0.437   0.213  0.00  0.00    -0.450 N 
BRANCH   7  12
ATOM     12  S   LIG    1        3.567   0.923   0.248  0.00  0.00    +0.000 S 
BRANCH  12  14
ATOM     13  C   LIG    1        5.197   3.095  -0.051  0.00  0.00    +0.080 C 
ATOM     14  C   LIG    1        3.731   2.676  -0.173  0.00  0.00    +0.090 C 
ENDBRANCH  12  14
ENDBRANCH   7  12
BRANCH  11  15
ATOM     15  C   LIG    1        1.647  -1.741   0.626  0.00  0.00    +0.300 C 
BRANCH  15  16
ATOM     16  C   LIG    1        1.461  -1.911   2.135  0.00  0.00    -0.030 C 
ATOM     17  C   LIG    1        2.329  -0.890   2.874  0.00  0.00    +0.030 C 
ATOM     18  C   LIG    1        1.876  -3.325   2.545  0.00  0.00    +0.040 C 
ENDBRANCH  15  16
ENDBRANCH  11  15
ENDBRANCH   1  10
BRANCH   5  19
ATOM     19  S   LIG    1       -5.253  -0.827   0.925  0.00  0.00    +2.690 S 
ATOM     20  O   LIG    1       -6.212  -1.714   0.366  0.00  0.00    -0.950 OA
ATOM     21  O   LIG    1       -5.251   0.573   0.677  0.00  0.00    -0.940 OA
BRANCH  19  22
ATOM     22  N   LIG    1       -5.348  -1.010   2.568  0.00  0.00    -0.990 NA
BRANCH  22  23
ATOM     23  C   LIG    1       -5.878  -2.252   3.137  0.00  0.00    +0.300 C 
ATOM     24  C   LIG    1       -4.720  -3.197   3.466  0.00  0.00    +0.000 C 
ENDBRANCH  22  23
BRANCH  22  25
ATOM     25  C   LIG    1       -4.902   0.070   3.453  0.00  0.00    +0.280 C 
ATOM     26  C   LIG    1       -6.102   0.934   3.846  0.00  0.00    +0.010 C 
ENDBRANCH  22  25
ENDBRANCH  19  22
ENDBRANCH   5  19
TORSDOF 9
