REMARK  Name = ZINCpk00000eaV8b.0
REMARK                            x       y       z     vdW  Elec       q    Type
REMARK                         _______ _______ _______ _____ _____    ______ ____
ROOT
ATOM      1  C   LIG    1        2.406   0.752  -0.017  0.00  0.00    +0.470 C 
ATOM      2  O   LIG    1        2.201  -0.439  -0.021  0.00  0.00    -0.500 OA
ENDROOT
BRANCH   1   3
ATOM      3  C   LIG    1        1.248   1.716  -0.001  0.00  0.00    +0.370 C 
BRANCH   3   5
ATOM      4  C   LIG    1       -1.187   1.624   0.017  0.00  0.00    +0.570 C 
ATOM      5  N   LIG    1       -0.011   0.966   0.007  0.00  0.00    -0.720 N 
ATOM      6  H   LIG    1        0.002  -0.004   0.002  0.00  0.00    +0.410 HD
ATOM      7  O   LIG    1       -1.204   2.839   0.023  0.00  0.00    -0.530 OA
BRANCH   4  13
ATOM      8  C   LIG    1       -3.616  -2.735   0.004  0.00  0.00    +0.090 C 
ATOM      9  C   LIG    1       -3.631  -1.228   0.012  0.00  0.00    -0.090 A 
ATOM     10  C   LIG    1       -4.837  -0.550   0.021  0.00  0.00    +0.040 A 
ATOM     11  C   LIG    1       -4.859   0.834   0.029  0.00  0.00    -0.090 A 
ATOM     12  C   LIG    1       -3.677   1.546   0.028  0.00  0.00    +0.080 A 
ATOM     13  C   LIG    1       -2.458   0.867   0.018  0.00  0.00    -0.130 A 
ATOM     14  C   LIG    1       -6.177   1.564   0.039  0.00  0.00    +0.090 C 
ATOM     15  C   LIG    1       -2.442  -0.528   0.005  0.00  0.00    +0.040 A 
ENDBRANCH   4  13
ENDBRANCH   3   5
ENDBRANCH   1   3
BRANCH   1  16
ATOM     16  O   LIG    1        3.665   1.216  -0.026  0.00  0.00    -0.320 OA
BRANCH  16  17
ATOM     17  C   LIG    1        4.731   0.231  -0.042  0.00  0.00    +0.270 C 
BRANCH  17  18
ATOM     18  C   LIG    1        6.065   0.933  -0.051  0.00  0.00    +0.520 C 
ATOM     19  N   LIG    1        7.205   0.215  -0.066  0.00  0.00    -0.730 N 
ATOM     20  H   LIG    1        7.167  -0.754  -0.070  0.00  0.00    +0.410 HD
ATOM     21  O   LIG    1        6.112   2.145  -0.045  0.00  0.00    -0.510 OA
BRANCH  19  22
ATOM     22  C   LIG    1        8.501   0.897  -0.074  0.00  0.00    +0.400 C 
BRANCH  22  23
ATOM     23  C   LIG    1        9.608  -0.125  -0.090  0.00  0.00    -0.050 A 
ATOM     24  C   LIG    1       10.175  -0.653  -1.190  0.00  0.00    -0.030 A 
ATOM     25  C   LIG    1       11.161  -1.564  -0.745  0.00  0.00    -0.070 A 
ATOM     26  C   LIG    1       11.138  -1.537   0.600  0.00  0.00    +0.190 A 
ATOM     27  O   LIG    1       10.199  -0.660   0.991  0.00  0.00    -0.170 OA
ENDBRANCH  22  23
ENDBRANCH  19  22
ENDBRANCH  17  18
ENDBRANCH  16  17
ENDBRANCH   1  16
TORSDOF 8
