REMARK  Name = ZINCvU0000000Fd2.0
REMARK                            x       y       z     vdW  Elec       q    Type
REMARK                         _______ _______ _______ _____ _____    ______ ____
ROOT
ATOM      1  S   LIG    1       -1.956   6.448  -2.691  0.00  0.00    +0.120 S 
ENDROOT
BRANCH   1   8
ATOM      2  N   LIG    1       -2.286   6.448   0.089  0.00  0.00    -0.480 N 
ATOM      3  C   LIG    1       -1.828   7.113   1.169  0.00  0.00    +0.660 A 
ATOM      4  N   LIG    1       -0.946   8.036   0.735  0.00  0.00    -0.540 N 
ATOM      5  H   LIG    1       -0.453   8.663   1.287  0.00  0.00    +0.460 HD
ATOM      6  N   LIG    1       -0.877   7.929  -0.661  0.00  0.00    -0.280 NA
ATOM      7  O   LIG    1       -2.151   6.914   2.327  0.00  0.00    -0.540 OA
ATOM      8  C   LIG    1       -1.683   6.976  -1.032  0.00  0.00    +0.250 A 
BRANCH   2  13
ATOM      9  C   LIG    1       -6.065   2.214   0.147  0.00  0.00    +0.100 C 
ATOM     10  C   LIG    1       -5.062   3.338   0.132  0.00  0.00    -0.050 A 
ATOM     11  C   LIG    1       -5.493   4.646   0.014  0.00  0.00    +0.010 A 
ATOM     12  C   LIG    1       -4.576   5.679   0.006  0.00  0.00    -0.050 A 
ATOM     13  C   LIG    1       -3.219   5.402   0.104  0.00  0.00    +0.110 A 
ATOM     14  C   LIG    1       -2.789   4.087   0.217  0.00  0.00    -0.050 A 
ATOM     15  C   LIG    1       -1.317   3.781   0.324  0.00  0.00    +0.100 C 
ATOM     16  C   LIG    1       -5.047   7.106  -0.117  0.00  0.00    +0.100 C 
ATOM     17  C   LIG    1       -3.711   3.059   0.231  0.00  0.00    +0.010 A 
ENDBRANCH   2  13
ENDBRANCH   1   8
BRANCH   1  18
ATOM     18  C   LIG    1       -0.846   7.578  -3.567  0.00  0.00    +0.010 C 
ATOM     19  C   LIG    1        0.601   7.283  -3.168  0.00  0.00    +0.100 C 
BRANCH  18  20
ATOM     20  C   LIG    1       -1.006   7.388  -5.053  0.00  0.00    +0.540 C 
ATOM     21  N   LIG    1       -0.610   8.356  -5.903  0.00  0.00    -0.660 N 
ATOM     22  H   LIG    1       -0.270   9.196  -5.557  0.00  0.00    +0.410 HD
ATOM     23  O   LIG    1       -1.492   6.364  -5.484  0.00  0.00    -0.500 OA
BRANCH  21  24
ATOM     24  C   LIG    1       -0.688   8.149  -7.285  0.00  0.00    +0.130 A 
ATOM     25  C   LIG    1       -0.118   7.018  -7.852  0.00  0.00    -0.070 A 
ATOM     26  C   LIG    1       -0.202   6.814  -9.216  0.00  0.00    +0.020 A 
ATOM     27  C   LIG    1       -0.844   7.741 -10.017  0.00  0.00    +0.020 A 
ATOM     28  C   LIG    1       -1.408   8.872  -9.455  0.00  0.00    +0.020 A 
ATOM     29  C   LIG    1        0.586   6.010  -6.981  0.00  0.00    +0.100 C 
ATOM     30  C   LIG    1       -1.332   9.079  -8.092  0.00  0.00    -0.080 A 
BRANCH  30  31
ATOM     31  C   LIG    1       -1.946  10.312  -7.481  0.00  0.00    +0.010 C 
ATOM     32  C   LIG    1       -3.447  10.333  -7.773  0.00  0.00    +0.040 C 
ATOM     33  C   LIG    1       -1.292  11.558  -8.081  0.00  0.00    +0.030 C 
ENDBRANCH  30  31
ENDBRANCH  21  24
ENDBRANCH  18  20
ENDBRANCH   1  18
TORSDOF 6
