REMARK  Name = ZINCqH0000007nk3.0
REMARK                            x       y       z     vdW  Elec       q    Type
REMARK                         _______ _______ _______ _____ _____    ______ ____
ROOT
ATOM      1  N   LIG    1        1.075  -0.483   0.877  0.00  0.00    -1.110 NA
ATOM      2  H   LIG    1        1.905   0.015   0.944  0.00  0.00    +0.420 HD
ENDROOT
BRANCH   1   3
ATOM      3  S   LIG    1        0.872  -1.874   1.752  0.00  0.00    +2.700 S 
ATOM      4  O   LIG    1       -0.394  -1.766   2.390  0.00  0.00    -0.950 OA
ATOM      5  O   LIG    1        2.085  -2.083   2.462  0.00  0.00    -0.950 OA
BRANCH   3   9
ATOM      6  C   LIG    1        0.527  -5.284  -1.213  0.00  0.00    +0.160 A 
ATOM      7  C   LIG    1        1.768  -4.912  -0.722  0.00  0.00    -0.050 A 
ATOM      8  C   LIG    1        1.870  -3.870   0.182  0.00  0.00    +0.140 A 
ATOM      9  C   LIG    1        0.735  -3.200   0.599  0.00  0.00    -0.680 A 
ATOM     10  C   LIG    1       -0.507  -3.570   0.117  0.00  0.00    +0.070 A 
ATOM     11  C   LIG    1       -0.615  -4.609  -0.793  0.00  0.00    +0.080 A 
BRANCH   6  13
ATOM     12  C   LIG    1        1.640  -6.955  -2.489  0.00  0.00    +0.250 C 
ATOM     13  O   LIG    1        0.426  -6.307  -2.103  0.00  0.00    -0.300 OA
ENDBRANCH   6  13
BRANCH  11  14
ATOM     14  O   LIG    1       -1.835  -4.971  -1.272  0.00  0.00    -0.300 OA
ATOM     15  C   LIG    1       -2.963  -4.233  -0.797  0.00  0.00    +0.250 C 
ENDBRANCH  11  14
ENDBRANCH   3   9
ENDBRANCH   1   3
BRANCH   1  16
ATOM     16  C   LIG    1        0.002  -0.004   0.002  0.00  0.00    +0.290 C 
ATOM     17  C   LIG    1        0.246  -0.503  -1.424  0.00  0.00    +0.050 C 
BRANCH  16  18
ATOM     18  C   LIG    1       -0.018   1.503   0.010  0.00  0.00    -0.090 A 
ATOM     19  C   LIG    1        1.169   2.210   0.003  0.00  0.00    +0.050 A 
ATOM     20  C   LIG    1        1.150   3.592   0.010  0.00  0.00    +0.030 A 
ATOM     21  C   LIG    1       -0.056   4.267   0.025  0.00  0.00    +0.070 A 
ATOM     22  C   LIG    1       -1.244   3.560   0.032  0.00  0.00    -0.180 A 
ATOM     23  C   LIG    1       -1.225   2.178   0.020  0.00  0.00    +0.080 A 
BRANCH  22  24
ATOM     24  C   LIG    1       -2.559   4.295   0.048  0.00  0.00    +0.510 C 
ATOM     25  F   LIG    1       -3.277   3.942   1.195  0.00  0.00    -0.170 F 
ATOM     26  F   LIG    1       -3.298   3.953  -1.089  0.00  0.00    -0.180 F 
ATOM     27  F   LIG    1       -2.322   5.674   0.052  0.00  0.00    -0.180 F 
ENDBRANCH  22  24
ENDBRANCH  16  18
ENDBRANCH   1  16
TORSDOF 7
