REMARK  Name = ZINCrg000000rO0a.1
REMARK                            x       y       z     vdW  Elec       q    Type
REMARK                         _______ _______ _______ _____ _____    ______ ____
ROOT
ATOM      1  C   LIG    1        1.530   6.133   2.026  0.00  0.00    +0.570 C 
ATOM      2  N   LIG    1        1.590   5.444   0.869  0.00  0.00    -0.600 N 
ATOM      3  C   LIG    1        2.120   6.072  -0.349  0.00  0.00    +0.270 C 
ATOM      4  C   LIG    1        1.086   5.925  -1.470  0.00  0.00    +0.030 C 
ATOM      5  C   LIG    1        0.722   4.447  -1.632  0.00  0.00    +0.060 C 
ATOM      6  C   LIG    1        0.103   3.928  -0.332  0.00  0.00    +0.110 C 
ATOM      7  C   LIG    1        1.125   4.052   0.801  0.00  0.00    +0.310 C 
ATOM      8  O   LIG    1        0.993   5.641   2.999  0.00  0.00    -0.520 OA
ENDROOT
BRANCH   6   9
ATOM      9  C   LIG    1       -0.285   2.481  -0.503  0.00  0.00    +0.250 A 
ATOM     10  N   LIG    1        0.248   1.659  -1.345  0.00  0.00    -0.250 NA
ATOM     11  N   LIG    1       -0.387   0.417  -1.194  0.00  0.00    -0.550 N 
ATOM     12  H   LIG    1       -0.198  -0.394  -1.692  0.00  0.00    +0.460 HD
ATOM     13  C   LIG    1       -1.312   0.569  -0.223  0.00  0.00    +0.610 A 
ATOM     14  O   LIG    1       -2.068  -0.289   0.195  0.00  0.00    -0.480 OA
ATOM     15  O   LIG    1       -1.243   1.843   0.198  0.00  0.00    -0.270 OA
ENDBRANCH   6   9
BRANCH   1  18
ATOM     16  C   LIG    1        2.062   9.768   2.860  0.00  0.00    +0.320 A 
ATOM     17  C   LIG    1        1.468   8.512   2.800  0.00  0.00    +0.020 A 
ATOM     18  C   LIG    1        2.121   7.489   2.113  0.00  0.00    -0.060 A 
ATOM     19  C   LIG    1        3.347   7.778   1.503  0.00  0.00    -0.030 A 
ATOM     20  C   LIG    1        3.865   9.053   1.606  0.00  0.00    +0.300 A 
ATOM     21  N   LIG    1        3.223   9.996   2.268  0.00  0.00    -0.500 NA
BRANCH  16  25
ATOM     22  C   LIG    1        2.307  14.424   4.219  0.00  0.00    +0.060 C 
ATOM     23  C   LIG    1        1.454  13.154   4.204  0.00  0.00    +0.150 C 
ATOM     24  C   LIG    1        2.217  12.035   3.490  0.00  0.00    +0.200 C 
ATOM     25  N   LIG    1        1.426  10.797   3.546  0.00  0.00    -0.480 N 
ATOM     26  C   LIG    1        1.155  10.414   4.939  0.00  0.00    +0.180 C 
ATOM     27  C   LIG    1        0.404  11.550   5.638  0.00  0.00    +0.230 C 
ATOM     28  O   LIG    1        1.173  12.752   5.547  0.00  0.00    -0.380 OA
ENDBRANCH  16  25
ENDBRANCH   1  18
TORSDOF 3
