REMARK  Name = ZINCvU0000000EFY.0
REMARK                            x       y       z     vdW  Elec       q    Type
REMARK                         _______ _______ _______ _____ _____    ______ ____
ROOT
ATOM      1  C   LIG    1        0.199   0.949   9.714  0.00  0.00    +0.270 C 
ATOM      2  C   LIG    1        1.133   2.050  10.254  0.00  0.00    +0.110 C 
ATOM      3  C   LIG    1        2.489   1.384  10.304  0.00  0.00    +0.150 C 
ATOM      4  N   LIG    1        2.388   0.168   9.890  0.00  0.00    -0.230 NA
ATOM      5  N   LIG    1        1.097  -0.200   9.517  0.00  0.00    -0.470 N 
ATOM      6  C   LIG    1        0.730  -1.411   9.052  0.00  0.00    +0.550 C 
ATOM      7  O   LIG    1       -0.427  -1.622   8.756  0.00  0.00    -0.510 OA
ENDROOT
BRANCH   1  12
ATOM      8  C   LIG    1       -0.547   1.458   3.634  0.00  0.00    +0.140 A 
ATOM      9  C   LIG    1        0.068   1.030   4.777  0.00  0.00    +0.000 A 
ATOM     10  C   LIG    1       -0.457   1.397   6.025  0.00  0.00    -0.060 A 
ATOM     11  C   LIG    1        0.150   0.981   7.225  0.00  0.00    +0.110 A 
ATOM     12  C   LIG    1       -0.417   1.371   8.405  0.00  0.00    -0.120 A 
ATOM     13  C   LIG    1       -1.566   2.161   8.396  0.00  0.00    +0.210 A 
ATOM     14  N   LIG    1       -2.129   2.547   7.275  0.00  0.00    -0.450 NA
ATOM     15 CL   LIG    1       -2.270   2.646   9.906  0.00  0.00    -0.020 Cl
ATOM     16  C   LIG    1       -1.624   2.199   6.088  0.00  0.00    +0.110 A 
ATOM     17  C   LIG    1       -2.233   2.616   4.891  0.00  0.00    +0.100 A 
ATOM     18  C   LIG    1       -1.699   2.248   3.696  0.00  0.00    -0.030 A 
BRANCH   8  19
ATOM     19  O   LIG    1       -0.038   1.106   2.425  0.00  0.00    -0.310 OA
BRANCH  19  21
ATOM     20  C   LIG    1       -0.013   1.086   0.008  0.00  0.00    +0.070 C 
ATOM     21  C   LIG    1       -0.729   1.579   1.267  0.00  0.00    +0.190 C 
ENDBRANCH  19  21
ENDBRANCH   8  19
ENDBRANCH   1  12
BRANCH   3  22
ATOM     22  C   LIG    1        3.737   2.027  10.758  0.00  0.00    +0.000 A 
ATOM     23  C   LIG    1        3.726   3.358  11.181  0.00  0.00    +0.010 A 
ATOM     24  C   LIG    1        4.894   3.955  11.608  0.00  0.00    +0.050 A 
ATOM     25  C   LIG    1        6.079   3.242  11.611  0.00  0.00    -0.060 A 
ATOM     26  C   LIG    1        6.101   1.920  11.187  0.00  0.00    +0.130 A 
ATOM     27  C   LIG    1        4.934   1.309  10.761  0.00  0.00    +0.030 A 
BRANCH  26  28
ATOM     28  O   LIG    1        7.269   1.224  11.192  0.00  0.00    -0.310 OA
ATOM     29  C   LIG    1        8.434   1.917  11.644  0.00  0.00    +0.250 C 
ENDBRANCH  26  28
ENDBRANCH   3  22
BRANCH   6  30
ATOM     30  C   LIG    1        1.758  -2.502   8.900  0.00  0.00    +0.070 C 
ATOM     31  C   LIG    1        1.085  -3.765   8.358  0.00  0.00    +0.050 C 
ENDBRANCH   6  30
TORSDOF 6
