REMARK  Name = ZINCrD000000Cf8d.0
REMARK                            x       y       z     vdW  Elec       q    Type
REMARK                         _______ _______ _______ _____ _____    ______ ____
ROOT
ATOM      1  O   LIG    1       -0.921   5.224   1.173  0.00  0.00    -0.460 OA
ATOM      2  C   LIG    1       -1.512   4.539   0.364  0.00  0.00    +0.520 C 
ATOM      3  N   LIG    1       -2.825   4.741   0.141  0.00  0.00    -0.630 N 
ATOM      4  H   LIG    1       -3.297   4.194  -0.506  0.00  0.00    +0.420 HD
ENDROOT
BRANCH   2   5
ATOM      5  C   LIG    1       -0.775   3.464  -0.393  0.00  0.00    +0.000 C 
ATOM      6  C   LIG    1       -1.266   2.058   0.019  0.00  0.00    +0.080 C 
ATOM      7  C   LIG    1       -0.014   1.209   0.009  0.00  0.00    +0.520 C 
ATOM      8  N   LIG    1        1.077   1.993   0.003  0.00  0.00    -0.620 N 
ATOM      9  O   LIG    1        0.002  -0.004   0.002  0.00  0.00    -0.510 OA
ATOM     10  C   LIG    1        0.712   3.415   0.022  0.00  0.00    +0.310 C 
BRANCH   8  11
ATOM     11  C   LIG    1        2.454   1.494  -0.022  0.00  0.00    +0.430 C 
BRANCH  11  12
ATOM     12  C   LIG    1        2.907   1.338  -1.450  0.00  0.00    -0.040 A 
ATOM     13  C   LIG    1        3.510   2.284  -2.192  0.00  0.00    -0.040 A 
ATOM     14  C   LIG    1        3.760   1.712  -3.461  0.00  0.00    -0.070 A 
ATOM     15  C   LIG    1        3.287   0.454  -3.421  0.00  0.00    +0.170 A 
ATOM     16  O   LIG    1        2.771   0.233  -2.201  0.00  0.00    -0.170 OA
ENDBRANCH  11  12
ENDBRANCH   8  11
ENDBRANCH   2   5
BRANCH   3  17
ATOM     17  C   LIG    1       -3.504   5.733   0.839  0.00  0.00    +0.260 A 
ATOM     18  N   LIG    1       -2.972   6.513   1.726  0.00  0.00    -0.470 NA
ATOM     19  C   LIG    1       -3.764   7.406   2.290  0.00  0.00    +0.250 A 
ATOM     20  C   LIG    1       -5.029   7.371   1.866  0.00  0.00    -0.230 A 
ATOM     21  S   LIG    1       -5.165   6.096   0.658  0.00  0.00    +0.130 S 
BRANCH  20  22
ATOM     22  C   LIG    1       -6.146   8.265   2.339  0.00  0.00    +0.190 C 
BRANCH  22  23
ATOM     23  C   LIG    1       -6.203   9.498   1.475  0.00  0.00    -0.080 A 
ATOM     24  C   LIG    1       -5.475  10.620   1.823  0.00  0.00    +0.010 A 
ATOM     25  C   LIG    1       -5.523  11.750   1.028  0.00  0.00    +0.000 A 
ATOM     26  C   LIG    1       -6.307  11.761  -0.111  0.00  0.00    +0.000 A 
ATOM     27  C   LIG    1       -7.039  10.640  -0.457  0.00  0.00    +0.000 A 
ATOM     28  C   LIG    1       -6.987   9.509   0.336  0.00  0.00    +0.010 A 
ENDBRANCH  22  23
ENDBRANCH  20  22
ENDBRANCH   3  17
TORSDOF 6
