REMARK  Name = ZINCpe000000XDKy.0
REMARK                            x       y       z     vdW  Elec       q    Type
REMARK                         _______ _______ _______ _____ _____    ______ ____
ROOT
ATOM      1  C   LIG    1        0.690   1.158   3.350  0.00  0.00    +0.110 C 
ATOM      2  C   LIG    1       -0.688   1.637   2.970  0.00  0.00    -0.110 A 
ATOM      3  C   LIG    1       -1.496   2.229   3.918  0.00  0.00    +0.100 A 
ATOM      4  C   LIG    1       -2.772   2.672   3.564  0.00  0.00    -0.160 A 
ATOM      5  C   LIG    1       -3.221   2.512   2.252  0.00  0.00    +0.200 A 
ATOM      6  C   LIG    1       -2.400   1.923   1.313  0.00  0.00    -0.680 A 
ATOM      7  C   LIG    1       -1.139   1.481   1.671  0.00  0.00    +0.050 A 
ATOM      8  C   LIG    1       -0.250   0.833   0.641  0.00  0.00    +0.100 C 
ENDROOT
BRANCH   4   9
ATOM      9  C   LIG    1       -3.644   3.307   4.575  0.00  0.00    +0.570 C 
ATOM     10  N   LIG    1       -3.208   3.460   5.841  0.00  0.00    -0.720 N 
ATOM     11  H   LIG    1       -2.322   3.153   6.089  0.00  0.00    +0.400 HD
ATOM     12  O   LIG    1       -4.755   3.692   4.264  0.00  0.00    -0.520 OA
BRANCH  10  13
ATOM     13  C   LIG    1       -4.072   4.090   6.842  0.00  0.00    +0.190 C 
ATOM     14  C   LIG    1       -5.383   3.306   6.931  0.00  0.00    +0.080 C 
ATOM     15  C   LIG    1       -5.232   2.207   8.015  0.00  0.00    -0.300 C 
ATOM     16  S   LIG    1       -4.343   3.129   9.335  0.00  0.00    +2.380 S 
ATOM     17  O   LIG    1       -5.252   3.971  10.030  0.00  0.00    -0.920 OA
ATOM     18  O   LIG    1       -3.504   2.237  10.056  0.00  0.00    -0.930 OA
ATOM     19  C   LIG    1       -4.382   5.521   6.400  0.00  0.00    +0.070 C 
ATOM     20  C   LIG    1       -3.328   4.133   8.186  0.00  0.00    -0.310 C 
ENDBRANCH  10  13
ENDBRANCH   4   9
BRANCH   6  21
ATOM     21  S   LIG    1       -2.962   1.726  -0.345  0.00  0.00    +2.690 S 
ATOM     22  O   LIG    1       -1.920   2.207  -1.182  0.00  0.00    -0.950 OA
ATOM     23  O   LIG    1       -4.288   2.236  -0.383  0.00  0.00    -0.950 OA
BRANCH  21  24
ATOM     24  N   LIG    1       -3.079   0.099  -0.633  0.00  0.00    -1.000 NA
ATOM     25  C   LIG    1       -1.991  -0.604  -1.318  0.00  0.00    +0.300 C 
ATOM     26  C   LIG    1       -4.271  -0.637  -0.204  0.00  0.00    +0.310 C 
ENDBRANCH  21  24
ENDBRANCH   6  21
TORSDOF 4
