REMARK  Name = ZINCpk00000y6wRZ.0
REMARK                            x       y       z     vdW  Elec       q    Type
REMARK                         _______ _______ _______ _____ _____    ______ ____
ROOT
ATOM      1  N   LIG    1        1.209   6.326   0.023  0.00  0.00    -0.720 N 
ATOM      2  H   LIG    1        2.034   5.816   0.012  0.00  0.00    +0.410 HD
ATOM      3  C   LIG    1        0.022   5.687   0.031  0.00  0.00    +0.570 C 
ATOM      4  O   LIG    1       -1.012   6.325   0.044  0.00  0.00    -0.520 OA
ENDROOT
BRANCH   1   9
ATOM      5  C   LIG    1        1.575  11.834   2.042  0.00  0.00    +0.020 A 
ATOM      6  C   LIG    1        1.141  10.632   2.472  0.00  0.00    +0.120 A 
ATOM      7  N   LIG    1        1.430   9.736   1.486  0.00  0.00    -0.450 N 
ATOM      8  C   LIG    1        1.155   8.297   1.472  0.00  0.00    +0.280 C 
ATOM      9  C   LIG    1        1.252   7.790   0.029  0.00  0.00    +0.250 C 
ATOM     10  C   LIG    1        2.570   8.264  -0.592  0.00  0.00    +0.040 C 
ATOM     11  C   LIG    1        2.512   9.783  -0.801  0.00  0.00    +0.160 C 
ATOM     12  C   LIG    1        2.032  10.418   0.483  0.00  0.00    +0.200 A 
ATOM     13  N   LIG    1        2.115  11.671   0.823  0.00  0.00    -0.470 NA
BRANCH   5  15
ATOM     14  C   LIG    1        2.515  13.156   3.918  0.00  0.00    +0.030 C 
ATOM     15  C   LIG    1        1.473  13.134   2.798  0.00  0.00    +0.010 C 
ATOM     16  C   LIG    1        0.073  13.265   3.400  0.00  0.00    +0.030 C 
ATOM     17  C   LIG    1        1.728  14.301   1.842  0.00  0.00    +0.030 C 
ENDBRANCH   5  15
ENDBRANCH   1   9
BRANCH   3  18
ATOM     18  C   LIG    1       -0.022   4.207   0.024  0.00  0.00    -0.170 A 
ATOM     19  C   LIG    1       -1.248   3.535   0.033  0.00  0.00    +0.140 A 
ATOM     20  C   LIG    1       -1.238   2.150   0.020  0.00  0.00    +0.050 A 
ATOM     21  C   LIG    1       -0.018   1.479   0.010  0.00  0.00    +0.100 A 
ATOM     22  N   LIG    1        1.127   2.150   0.003  0.00  0.00    -0.460 NA
ATOM     23  C   LIG    1        1.161   3.463   0.010  0.00  0.00    +0.310 A 
BRANCH  21  24
ATOM     24  C   LIG    1        0.002  -0.004   0.002  0.00  0.00    +0.570 C 
ATOM     25  O   LIG    1       -1.042  -0.626   0.009  0.00  0.00    -0.530 OA
ATOM     26  N   LIG    1        1.178  -0.662  -0.013  0.00  0.00    -0.830 N 
ATOM     27  H   LIG    1        1.191  -1.632  -0.018  0.00  0.00    +0.410 HD
ATOM     28  H   LIG    1        2.012  -0.166  -0.018  0.00  0.00    +0.410 HD
ENDBRANCH  21  24
ENDBRANCH   3  18
TORSDOF 4
