REMARK  Name = ZINCkj000005lQW9.0
REMARK                            x       y       z     vdW  Elec       q    Type
REMARK                         _______ _______ _______ _____ _____    ______ ____
ROOT
ATOM      1  O   LIG    1        5.777   3.635  -0.738  0.00  0.00    -0.580 OA
ATOM      2  C   LIG    1        5.104   3.211  -1.658  0.00  0.00    +0.710 C 
ATOM      3  N   LIG    1        5.469   3.462  -2.931  0.00  0.00    -0.750 N 
ATOM      4  H   LIG    1        4.932   3.124  -3.665  0.00  0.00    +0.400 HD
ATOM      5  N   LIG    1        3.993   2.491  -1.405  0.00  0.00    -0.740 N 
ATOM      6  H   LIG    1        3.456   2.153  -2.138  0.00  0.00    +0.400 HD
ENDROOT
BRANCH   3   7
ATOM      7  C   LIG    1        6.676   4.245  -3.207  0.00  0.00    +0.290 C 
BRANCH   7   8
ATOM      8  C   LIG    1        6.861   4.382  -4.719  0.00  0.00    +0.000 C 
ATOM      9  C   LIG    1        7.235   3.016  -5.340  0.00  0.00    +0.070 C 
ATOM     10  C   LIG    1        8.288   3.399  -6.410  0.00  0.00    +0.270 C 
ATOM     11  N   LIG    1        9.053   4.493  -5.758  0.00  0.00    -0.370 N 
ATOM     12  H   LIG    1        9.726   4.109  -5.112  0.00  0.00    +0.420 HD
ATOM     13  C   LIG    1        8.053   5.305  -5.030  0.00  0.00    +0.280 C 
BRANCH  11  14
ATOM     14  C   LIG    1        9.730   5.312  -6.772  0.00  0.00    +0.100 C 
ATOM     15  C   LIG    1       11.260   5.307  -6.777  0.00  0.00    +0.100 C 
ATOM     16  C   LIG    1       10.500   6.542  -6.288  0.00  0.00    +0.090 C 
ENDBRANCH  11  14
ENDBRANCH   7   8
ENDBRANCH   3   7
BRANCH   5  17
ATOM     17  C   LIG    1        3.597   2.219  -0.021  0.00  0.00    +0.350 C 
BRANCH  17  18
ATOM     18  C   LIG    1        2.331   1.401  -0.013  0.00  0.00    -0.170 A 
ATOM     19  C   LIG    1        2.389   0.017  -0.021  0.00  0.00    +0.090 A 
ATOM     20  C   LIG    1        1.199  -0.695  -0.013  0.00  0.00    -0.030 A 
ATOM     21  C   LIG    1        0.002  -0.004   0.002  0.00  0.00    +0.270 A 
ATOM     22  N   LIG    1       -0.016   1.315   0.009  0.00  0.00    -0.480 NA
ATOM     23  C   LIG    1        1.096   2.023   0.003  0.00  0.00    +0.280 A 
ENDBRANCH  17  18
ENDBRANCH   5  17
TORSDOF 5
