REMARK  Name = ZINCkj000005lQW9.1
REMARK                            x       y       z     vdW  Elec       q    Type
REMARK                         _______ _______ _______ _____ _____    ______ ____
ROOT
ATOM      1  O   LIG    1        0.777   0.546   2.530  0.00  0.00    -0.580 OA
ATOM      2  C   LIG    1       -0.222   1.232   2.431  0.00  0.00    +0.710 C 
ATOM      3  N   LIG    1       -0.853   1.667   3.540  0.00  0.00    -0.750 N 
ATOM      4  H   LIG    1       -1.650   2.214   3.462  0.00  0.00    +0.400 HD
ATOM      5  N   LIG    1       -0.698   1.558   1.213  0.00  0.00    -0.740 N 
ATOM      6  H   LIG    1       -1.495   2.106   1.135  0.00  0.00    +0.400 HD
ENDROOT
BRANCH   3   7
ATOM      7  C   LIG    1       -0.335   1.313   4.864  0.00  0.00    +0.310 C 
BRANCH   7   8
ATOM      8  C   LIG    1       -1.229   1.928   5.943  0.00  0.00    -0.010 C 
ATOM      9  C   LIG    1       -1.079   3.472   5.974  0.00  0.00    +0.070 C 
ATOM     10  C   LIG    1       -1.445   3.826   7.431  0.00  0.00    +0.250 C 
ATOM     11  N   LIG    1       -1.237   2.612   8.242  0.00  0.00    -0.360 N 
ATOM     12  H   LIG    1       -2.111   2.330   8.661  0.00  0.00    +0.420 HD
ATOM     13  C   LIG    1       -0.739   1.536   7.359  0.00  0.00    +0.280 C 
BRANCH  11  14
ATOM     14  C   LIG    1       -0.249   2.886   9.294  0.00  0.00    +0.100 C 
ATOM     15  C   LIG    1       -0.620   2.505  10.728  0.00  0.00    +0.100 C 
ATOM     16  C   LIG    1       -0.586   3.977  10.313  0.00  0.00    +0.090 C 
ENDBRANCH  11  14
ENDBRANCH   7   8
ENDBRANCH   3   7
BRANCH   5  17
ATOM     17  C   LIG    1       -0.013   1.086   0.008  0.00  0.00    +0.350 C 
BRANCH  17  18
ATOM     18  C   LIG    1       -0.742   1.585  -1.213  0.00  0.00    -0.170 A 
ATOM     19  C   LIG    1       -0.404   2.803  -1.783  0.00  0.00    +0.090 A 
ATOM     20  C   LIG    1       -1.101   3.222  -2.906  0.00  0.00    -0.030 A 
ATOM     21  C   LIG    1       -2.102   2.417  -3.416  0.00  0.00    +0.270 A 
ATOM     22  N   LIG    1       -2.397   1.264  -2.847  0.00  0.00    -0.480 NA
ATOM     23  C   LIG    1       -1.751   0.832  -1.782  0.00  0.00    +0.280 A 
ENDBRANCH  17  18
ENDBRANCH   5  17
TORSDOF 5
