REMARK  Name = ZINCrg000000qt8k.0
REMARK                            x       y       z     vdW  Elec       q    Type
REMARK                         _______ _______ _______ _____ _____    ______ ____
ROOT
ATOM      1  C   LIG    1       -1.301   5.366   4.075  0.00  0.00    +0.560 C 
ATOM      2  N   LIG    1       -1.737   6.573   4.487  0.00  0.00    -0.670 N 
ATOM      3  H   LIG    1       -1.228   7.371   4.273  0.00  0.00    +0.410 HD
ATOM      4  O   LIG    1       -1.892   4.359   4.414  0.00  0.00    -0.500 OA
ENDROOT
BRANCH   1   9
ATOM      5  C   LIG    1        1.465   3.933   1.978  0.00  0.00    -0.680 A 
ATOM      6  C   LIG    1        2.138   5.081   1.599  0.00  0.00    +0.160 A 
ATOM      7  C   LIG    1        1.690   6.322   2.016  0.00  0.00    +0.010 A 
ATOM      8  C   LIG    1        0.575   6.422   2.821  0.00  0.00    +0.110 A 
ATOM      9  C   LIG    1       -0.106   5.267   3.212  0.00  0.00    -0.160 A 
ATOM     10  C   LIG    1        0.348   4.018   2.783  0.00  0.00    +0.210 A 
BRANCH   5  11
ATOM     11  S   LIG    1        2.039   2.358   1.437  0.00  0.00    +2.700 S 
ATOM     12  O   LIG    1        3.419   2.516   1.134  0.00  0.00    -0.930 OA
ATOM     13  O   LIG    1        1.554   1.409   2.376  0.00  0.00    -0.930 OA
BRANCH  11  14
ATOM     14  N   LIG    1        1.282   2.026   0.002  0.00  0.00    -0.870 NA
ATOM     15  C   LIG    1        1.943   2.342  -1.266  0.00  0.00    +0.330 C 
BRANCH  14  17
ATOM     16  C   LIG    1        0.009   0.007  -0.012  0.00  0.00    +0.220 C 
ATOM     17  O   LIG    1       -0.006   1.436   0.001  0.00  0.00    -0.120 OA
ENDBRANCH  14  17
ENDBRANCH  11  14
ENDBRANCH   5  11
ENDBRANCH   1   9
BRANCH   2  18
ATOM     18  C   LIG    1       -2.922   6.676   5.223  0.00  0.00    +0.160 A 
ATOM     19  C   LIG    1       -3.752   7.776   5.054  0.00  0.00    +0.020 A 
ATOM     20  C   LIG    1       -4.925   7.874   5.776  0.00  0.00    +0.040 A 
ATOM     21  C   LIG    1       -5.268   6.878   6.680  0.00  0.00    +0.110 A 
ATOM     22  C   LIG    1       -4.436   5.780   6.853  0.00  0.00    +0.070 A 
ATOM     23  C   LIG    1       -3.267   5.679   6.128  0.00  0.00    +0.060 A 
BRANCH  21  24
ATOM     24  N   LIG    1       -6.457   6.981   7.418  0.00  0.00    -0.330 N 
ATOM     25  C   LIG    1       -7.367   7.978   7.373  0.00  0.00    +0.460 A 
ATOM     26  N   LIG    1       -8.318   7.674   8.217  0.00  0.00    -0.330 NA
ATOM     27  N   LIG    1       -8.067   6.557   8.799  0.00  0.00    -0.030 NA
ATOM     28  N   LIG    1       -6.953   6.071   8.369  0.00  0.00    -0.070 NA
ENDBRANCH  21  24
ENDBRANCH   2  18
TORSDOF 6
