REMARK  Name = ZINCtV00000L6jTt.0
REMARK                            x       y       z     vdW  Elec       q    Type
REMARK                         _______ _______ _______ _____ _____    ______ ____
ROOT
ATOM      1  C   LIG    1        0.221  -2.202   3.049  0.00  0.00    +0.160 C 
ATOM      2  C   LIG    1        1.544  -2.701   2.526  0.00  0.00    +0.120 A 
ATOM      3  N   LIG    1        2.506  -3.225   3.247  0.00  0.00    -0.280 NA
ATOM      4  N   LIG    1        3.570  -3.562   2.394  0.00  0.00    -0.330 N 
ATOM      5  C   LIG    1        3.209  -3.223   1.139  0.00  0.00    +0.320 A 
ATOM      6  N   LIG    1        3.888  -3.347  -0.067  0.00  0.00    -0.630 N 
ATOM      7  H   LIG    1        4.840  -3.529  -0.084  0.00  0.00    +0.420 HD
ATOM      8  C   LIG    1        3.179  -3.208  -1.234  0.00  0.00    +0.240 C 
ATOM      9  C   LIG    1        3.849  -3.689  -2.501  0.00  0.00    +0.090 C 
ATOM     10  C   LIG    1        3.373  -2.852  -3.688  0.00  0.00    +0.060 C 
ATOM     11  C   LIG    1        1.849  -2.978  -3.786  0.00  0.00    +0.030 C 
ATOM     12  C   LIG    1        1.242  -2.542  -2.482  0.00  0.00    +0.400 C 
ATOM     13  O   LIG    1        0.124  -2.066  -2.477  0.00  0.00    -0.460 OA
ATOM     14  C   LIG    1        1.939  -2.673  -1.267  0.00  0.00    -0.280 C 
ATOM     15  C   LIG    1        1.230  -2.186  -0.021  0.00  0.00    +0.200 C 
ATOM     16  C   LIG    1        1.952  -2.683   1.199  0.00  0.00    -0.250 A 
ENDROOT
BRANCH  15  17
ATOM     17  C   LIG    1        1.210  -0.679  -0.013  0.00  0.00    -0.050 A 
ATOM     18  C   LIG    1        2.397   0.028  -0.021  0.00  0.00    +0.050 A 
ATOM     19  C   LIG    1        2.379   1.410  -0.014  0.00  0.00    +0.030 A 
ATOM     20  C   LIG    1        1.172   2.086   0.002  0.00  0.00    -0.030 A 
ATOM     21  C   LIG    1       -0.017   1.379   0.010  0.00  0.00    +0.040 A 
ATOM     22 CL   LIG    1        1.150   3.822   0.011  0.00  0.00    -0.060 Cl
ATOM     23  C   LIG    1        0.002  -0.004   0.002  0.00  0.00    -0.010 A 
ATOM     24 CL   LIG    1       -1.489  -0.893   0.012  0.00  0.00    -0.040 Cl
ENDBRANCH  15  17
BRANCH   4  25
ATOM     25  C   LIG    1        4.786  -4.144   2.777  0.00  0.00    +0.150 A 
ATOM     26  C   LIG    1        5.414  -5.057   1.941  0.00  0.00    -0.010 A 
ATOM     27  C   LIG    1        6.616  -5.625   2.319  0.00  0.00    +0.050 A 
ATOM     28  C   LIG    1        7.187  -5.293   3.534  0.00  0.00    +0.010 A 
ATOM     29  C   LIG    1        6.561  -4.388   4.371  0.00  0.00    +0.040 A 
ATOM     30  C   LIG    1        5.362  -3.813   3.996  0.00  0.00    +0.030 A 
ENDBRANCH   4  25
TORSDOF 2
