REMARK  Name = ZINCrH000004ljOP.0
REMARK                            x       y       z     vdW  Elec       q    Type
REMARK                         _______ _______ _______ _____ _____    ______ ____
ROOT
ATOM      1  C   LIG    1        6.825   1.294  -4.278  0.00  0.00    +0.180 A 
ATOM      2  N   LIG    1        7.013   2.379  -3.580  0.00  0.00    -0.250 NA
ATOM      3  N   LIG    1        6.210   2.389  -2.575  0.00  0.00    -0.270 NA
ATOM      4  C   LIG    1        5.475   1.299  -2.596  0.00  0.00    +0.240 A 
ATOM      5  O   LIG    1        5.856   0.583  -3.674  0.00  0.00    -0.220 OA
ENDROOT
BRANCH   4   6
ATOM      6  C   LIG    1        4.435   0.928  -1.625  0.00  0.00    -0.150 A 
ATOM      7  C   LIG    1        4.073   1.664  -0.544  0.00  0.00    +0.100 A 
ATOM      8  C   LIG    1        3.067   1.115   0.235  0.00  0.00    -0.110 A 
ATOM      9  C   LIG    1        2.612  -0.074  -0.217  0.00  0.00    -0.160 A 
ATOM     10  C   LIG    1        1.518  -0.886   0.446  0.00  0.00    +0.120 C 
ATOM     11  C   LIG    1        1.319  -0.369   1.873  0.00  0.00    +0.020 C 
ATOM     12  C   LIG    1        1.171   1.154   1.836  0.00  0.00    +0.020 C 
ATOM     13  C   LIG    1        2.520   1.785   1.488  0.00  0.00    +0.100 C 
ATOM     14  S   LIG    1        3.469  -0.539  -1.680  0.00  0.00    +0.170 S 
ENDBRANCH   4   6
BRANCH   1  15
ATOM     15  C   LIG    1        7.565   0.904  -5.532  0.00  0.00    +0.360 C 
BRANCH  15  16
ATOM     16  N   LIG    1        8.755   0.121  -5.174  0.00  0.00    -0.530 NA
BRANCH  16  17
ATOM     17  C   LIG    1        9.647   0.889  -4.296  0.00  0.00    +0.230 C 
BRANCH  17  18
ATOM     18  C   LIG    1       10.192   2.100  -5.055  0.00  0.00    +0.130 C 
BRANCH  18  20
ATOM     19  C   LIG    1        9.512   4.150  -6.095  0.00  0.00    +0.200 C 
ATOM     20  O   LIG    1        9.130   3.024  -5.303  0.00  0.00    -0.370 OA
ENDBRANCH  18  20
ENDBRANCH  17  18
ENDBRANCH  16  17
BRANCH  16  21
ATOM     21  C   LIG    1        9.466  -0.336  -6.376  0.00  0.00    +0.240 C 
BRANCH  21  22
ATOM     22  C   LIG    1       10.410  -1.451  -6.009  0.00  0.00    -0.130 A 
ATOM     23  C   LIG    1       11.750  -1.187  -5.771  0.00  0.00    +0.060 A 
ATOM     24  C   LIG    1       12.581  -2.244  -5.430  0.00  0.00    -0.030 A 
ATOM     25  C   LIG    1       12.052  -3.518  -5.351  0.00  0.00    +0.260 A 
ATOM     26  N   LIG    1       10.772  -3.733  -5.589  0.00  0.00    -0.480 NA
ATOM     27  C   LIG    1        9.952  -2.752  -5.910  0.00  0.00    +0.280 A 
ENDBRANCH  21  22
ENDBRANCH  16  21
ENDBRANCH  15  16
ENDBRANCH   1  15
TORSDOF 8
