REMARK  Name = ZINCqH00000072yZ.0
REMARK                            x       y       z     vdW  Elec       q    Type
REMARK                         _______ _______ _______ _____ _____    ______ ____
ROOT
ATOM      1  C   LIG    1       -4.666   8.080  -1.394  0.00  0.00    +0.080 C 
ENDROOT
BRANCH   1   2
ATOM      2  C   LIG    1       -3.930   6.997  -0.648  0.00  0.00    +0.510 C 
ATOM      3  N   LIG    1       -3.279   6.032  -1.329  0.00  0.00    -0.670 N 
ATOM      4  H   LIG    1       -3.220   6.077  -2.296  0.00  0.00    +0.410 HD
ATOM      5  O   LIG    1       -3.922   6.994   0.564  0.00  0.00    -0.520 OA
BRANCH   3   6
ATOM      6  C   LIG    1       -2.689   4.967  -0.641  0.00  0.00    +0.140 A 
ATOM      7  C   LIG    1       -3.271   4.482   0.523  0.00  0.00    +0.020 A 
ATOM      8  C   LIG    1       -2.684   3.431   1.198  0.00  0.00    +0.030 A 
ATOM      9  C   LIG    1       -1.518   2.857   0.721  0.00  0.00    -0.110 A 
ATOM     10  C   LIG    1       -0.691   1.712   1.275  0.00  0.00    +0.080 C 
ATOM     11  C   LIG    1        0.678   1.831   0.572  0.00  0.00    +0.030 C 
ATOM     12  C   LIG    1        0.319   2.549  -0.746  0.00  0.00    +0.080 C 
ATOM     13  C   LIG    1       -0.936   3.338  -0.439  0.00  0.00    -0.080 A 
ATOM     14  C   LIG    1       -1.520   4.391  -1.119  0.00  0.00    -0.010 A 
ENDBRANCH   3   6
ENDBRANCH   1   2
BRANCH   1  15
ATOM     15  C   LIG    1       -5.312   9.040  -0.393  0.00  0.00    +0.070 C 
BRANCH  15  16
ATOM     16  C   LIG    1       -6.048  10.123  -1.139  0.00  0.00    +0.400 C 
ATOM     17  O   LIG    1       -6.056  10.126  -2.352  0.00  0.00    -0.460 OA
BRANCH  16  21
ATOM     18  C   LIG    1       -8.094  13.157   1.009  0.00  0.00    +0.140 A 
ATOM     19  C   LIG    1       -7.415  12.159   1.695  0.00  0.00    -0.050 A 
ATOM     20  C   LIG    1       -6.749  11.172   1.002  0.00  0.00    +0.080 A 
ATOM     21  C   LIG    1       -6.757  11.174  -0.398  0.00  0.00    -0.180 A 
ATOM     22  C   LIG    1       -7.437  12.184  -1.089  0.00  0.00    +0.040 A 
ATOM     23  C   LIG    1       -8.105  13.166  -0.386  0.00  0.00    +0.090 A 
BRANCH  18  25
ATOM     24  C   LIG    1       -8.695  14.058   3.124  0.00  0.00    +0.240 C 
ATOM     25  O   LIG    1       -8.748  14.127   1.698  0.00  0.00    -0.300 OA
ENDBRANCH  18  25
BRANCH  23  26
ATOM     26  O   LIG    1       -8.771  14.146  -1.054  0.00  0.00    -0.300 OA
ATOM     27  C   LIG    1       -8.742  14.094  -2.482  0.00  0.00    +0.240 C 
ENDBRANCH  23  26
ENDBRANCH  16  21
ENDBRANCH  15  16
ENDBRANCH   1  15
TORSDOF 7
