REMARK  Name = ZINCqH0000036zjX.0
REMARK                            x       y       z     vdW  Elec       q    Type
REMARK                         _______ _______ _______ _____ _____    ______ ____
ROOT
ATOM      1  C   LIG    1       -0.794  -0.514  -1.175  0.00  0.00    +0.500 C 
ATOM      2  N   LIG    1       -0.820  -1.835  -1.444  0.00  0.00    -0.710 N 
ATOM      3  H   LIG    1       -0.379  -2.460  -0.848  0.00  0.00    +0.410 HD
ATOM      4  O   LIG    1       -1.346   0.267  -1.920  0.00  0.00    -0.520 OA
ENDROOT
BRANCH   2   5
ATOM      5  C   LIG    1       -1.516  -2.326  -2.636  0.00  0.00    +0.300 C 
ATOM      6  C   LIG    1       -2.996  -2.534  -2.317  0.00  0.00    +0.030 C 
ATOM      7  C   LIG    1       -3.172  -3.057  -0.897  0.00  0.00    +0.000 C 
ATOM      8  C   LIG    1       -2.637  -4.459  -0.697  0.00  0.00    +0.230 C 
ATOM      9  O   LIG    1       -1.216  -4.492  -0.860  0.00  0.00    -0.320 OA
ATOM     10  C   LIG    1       -0.773  -4.662  -2.137  0.00  0.00    +0.070 A 
ATOM     11  C   LIG    1       -0.200  -5.872  -2.514  0.00  0.00    +0.090 A 
ATOM     12  C   LIG    1        0.206  -6.057  -3.824  0.00  0.00    +0.000 A 
ATOM     13  C   LIG    1        0.045  -5.045  -4.752  0.00  0.00    +0.050 A 
ATOM     14  C   LIG    1       -0.517  -3.838  -4.372  0.00  0.00    +0.040 A 
ATOM     15  F   LIG    1       -0.043  -6.861  -1.608  0.00  0.00    -0.130 F 
ATOM     16  C   LIG    1       -0.916  -3.652  -3.064  0.00  0.00    -0.100 A 
ENDBRANCH   2   5
BRANCH   1  18
ATOM     17  C   LIG    1       -0.709  -0.628   1.301  0.00  0.00    +0.080 C 
ATOM     18  C   LIG    1       -0.079  -0.009   0.051  0.00  0.00    +0.240 C 
BRANCH  18  19
ATOM     19  N   LIG    1       -0.195   1.450   0.118  0.00  0.00    -0.480 N 
ATOM     20  C   LIG    1       -1.350   2.165   0.186  0.00  0.00    +0.500 A 
ATOM     21  N   LIG    1       -1.086   3.438   0.235  0.00  0.00    -0.500 NA
ATOM     22  C   LIG    1        0.258   3.627   0.192  0.00  0.00    +0.050 A 
ATOM     23  C   LIG    1        1.072   4.763   0.208  0.00  0.00    +0.070 A 
ATOM     24  C   LIG    1        2.430   4.627   0.150  0.00  0.00    +0.000 A 
ATOM     25  C   LIG    1        3.014   3.371   0.075  0.00  0.00    +0.030 A 
ATOM     26  C   LIG    1        2.230   2.236   0.058  0.00  0.00    +0.010 A 
ATOM     27  C   LIG    1        0.848   2.354   0.116  0.00  0.00    +0.050 A 
ENDBRANCH  18  19
ENDBRANCH   1  18
TORSDOF 3
