REMARK  Name = ZINCpe00000MJIeV.0
REMARK                            x       y       z     vdW  Elec       q    Type
REMARK                         _______ _______ _______ _____ _____    ______ ____
ROOT
ATOM      1  N   LIG    1        0.002  -0.004   0.002  0.00  0.00    -0.570 N 
ATOM      2  C   LIG    1       -0.224   1.436   0.184  0.00  0.00    +0.290 C 
ATOM      3  C   LIG    1        1.121   2.163   0.087  0.00  0.00    +0.020 C 
ATOM      4  C   LIG    1        2.101   1.549   1.089  0.00  0.00    +0.010 C 
ATOM      5  C   LIG    1        2.324   0.074   0.749  0.00  0.00    +0.220 C 
ATOM      6  C   LIG    1        0.992  -0.677   0.854  0.00  0.00    +0.290 C 
ENDROOT
BRANCH   1  12
ATOM      7  C   LIG    1       -1.237  -4.289  -2.084  0.00  0.00    +0.320 C 
ATOM      8  N   LIG    1       -1.309  -2.830  -1.976  0.00  0.00    -0.480 N 
ATOM      9  C   LIG    1       -2.090  -2.111  -2.831  0.00  0.00    +0.160 A 
ATOM     10  C   LIG    1       -2.163  -0.766  -2.739  0.00  0.00    +0.190 A 
ATOM     11  N   LIG    1       -1.484  -0.089  -1.813  0.00  0.00    -0.500 NA
ATOM     12  C   LIG    1       -0.706  -0.716  -0.957  0.00  0.00    +0.350 A 
ATOM     13  C   LIG    1       -0.602  -2.178  -1.026  0.00  0.00    +0.480 A 
ATOM     14  O   LIG    1        0.107  -2.791  -0.245  0.00  0.00    -0.530 OA
ENDBRANCH   1  12
BRANCH   5  15
ATOM     15  N   LIG    1        3.287  -0.505   1.689  0.00  0.00    -0.730 N 
ATOM     16  H   LIG    1        2.972  -0.972   2.479  0.00  0.00    +0.400 HD
ATOM     17  C   LIG    1        4.609  -0.389   1.456  0.00  0.00    +0.520 C 
ATOM     18  O   LIG    1        5.002   0.195   0.469  0.00  0.00    -0.540 OA
BRANCH  17  19
ATOM     19  C   LIG    1        5.600  -0.985   2.424  0.00  0.00    +0.070 C 
BRANCH  19  20
ATOM     20  C   LIG    1        7.022  -0.714   1.929  0.00  0.00    +0.130 C 
BRANCH  20  21
ATOM     21  C   LIG    1        8.012  -1.309   2.896  0.00  0.00    +0.130 A 
ATOM     22  C   LIG    1        8.966  -2.198   2.436  0.00  0.00    -0.030 A 
ATOM     23  C   LIG    1        9.872  -2.740   3.334  0.00  0.00    +0.070 A 
ATOM     24  C   LIG    1        9.786  -2.366   4.667  0.00  0.00    -0.040 A 
ATOM     25  C   LIG    1        8.805  -1.472   5.053  0.00  0.00    +0.260 A 
ATOM     26  N   LIG    1        7.963  -0.972   4.170  0.00  0.00    -0.480 NA
ENDBRANCH  20  21
ENDBRANCH  19  20
ENDBRANCH  17  19
ENDBRANCH   5  15
TORSDOF 5
