REMARK  Name = ZINCvU0000000HmU.0
REMARK                            x       y       z     vdW  Elec       q    Type
REMARK                         _______ _______ _______ _____ _____    ______ ____
ROOT
ATOM      1  C   LIG    1       -7.301   0.677   1.437  0.00  0.00    +0.030 C 
ATOM      2  C   LIG    1       -7.341  -0.133   0.140  0.00  0.00    -0.030 C 
ATOM      3  C   LIG    1       -8.651  -0.922   0.071  0.00  0.00    +0.010 C 
ATOM      4  C   LIG    1       -8.706  -1.707  -1.242  0.00  0.00    +0.000 C 
ATOM      5  C   LIG    1       -7.541  -2.700  -1.288  0.00  0.00    +0.270 C 
ATOM      6  N   LIG    1       -6.286  -1.965  -1.077  0.00  0.00    -0.580 N 
ATOM      7  C   LIG    1       -5.269  -2.077  -1.955  0.00  0.00    +0.560 C 
ATOM      8  O   LIG    1       -4.202  -1.545  -1.719  0.00  0.00    -0.490 OA
ATOM      9  C   LIG    1       -6.160  -1.108   0.109  0.00  0.00    +0.240 C 
ENDROOT
BRANCH   7  10
ATOM     10  C   LIG    1       -5.452  -2.848  -3.205  0.00  0.00    +0.090 A 
ATOM     11  N   LIG    1       -6.562  -3.552  -3.388  0.00  0.00    -0.420 NA
ATOM     12  C   LIG    1       -6.766  -4.246  -4.485  0.00  0.00    +0.290 A 
ATOM     13  C   LIG    1       -5.816  -4.277  -5.497  0.00  0.00    -0.060 A 
ATOM     14  C   LIG    1       -4.639  -3.560  -5.345  0.00  0.00    +0.110 A 
ATOM     15 CL   LIG    1       -6.099  -5.205  -6.936  0.00  0.00    -0.030 Cl
ATOM     16  C   LIG    1       -4.453  -2.833  -4.179  0.00  0.00    -0.030 A 
ATOM     17 CL   LIG    1       -2.999  -1.917  -3.935  0.00  0.00    +0.010 Cl
ENDBRANCH   7  10
BRANCH   9  18
ATOM     18  C   LIG    1       -4.849  -0.323   0.038  0.00  0.00    +0.040 C 
BRANCH  18  19
ATOM     19  C   LIG    1       -4.906   0.660  -1.133  0.00  0.00    +0.270 C 
BRANCH  19  20
ATOM     20  N   LIG    1       -3.692   1.481  -1.141  0.00  0.00    -0.720 N 
ATOM     21  H   LIG    1       -3.011   1.347  -0.464  0.00  0.00    +0.400 HD
ATOM     22  C   LIG    1       -3.522   2.423  -2.091  0.00  0.00    +0.590 C 
ATOM     23  O   LIG    1       -4.377   2.592  -2.941  0.00  0.00    -0.530 OA
BRANCH  22  24
ATOM     24  C   LIG    1       -2.308   3.245  -2.099  0.00  0.00    -0.270 A 
ATOM     25  C   LIG    1       -2.022   4.226  -3.005  0.00  0.00    +0.100 A 
ATOM     26  C   LIG    1       -0.812   4.840  -2.778  0.00  0.00    -0.010 A 
ATOM     27  C   LIG    1       -0.131   4.378  -1.723  0.00  0.00    -0.180 A 
ATOM     28  S   LIG    1       -0.988   3.124  -0.944  0.00  0.00    +0.200 S 
BRANCH  27  29
ATOM     29  C   LIG    1        1.214   4.896  -1.281  0.00  0.00    +0.150 C 
BRANCH  29  30
ATOM     30  C   LIG    1        1.017   6.041  -0.286  0.00  0.00    -0.040 C 
ATOM     31  C   LIG    1        1.519   7.427  -0.696  0.00  0.00    +0.010 C 
ATOM     32  C   LIG    1        2.267   6.628   0.372  0.00  0.00    +0.020 C 
ENDBRANCH  29  30
ENDBRANCH  27  29
ENDBRANCH  22  24
ENDBRANCH  19  20
ENDBRANCH  18  19
ENDBRANCH   9  18
TORSDOF 7
