REMARK  Name = ZINCtV000002PIAU.0
REMARK                            x       y       z     vdW  Elec       q    Type
REMARK                         _______ _______ _______ _____ _____    ______ ____
ROOT
ATOM      1  O   LIG    1        1.106  -1.714   0.917  0.00  0.00    -0.500 OA
ATOM      2  C   LIG    1        1.125  -0.577   0.478  0.00  0.00    +0.560 A 
ATOM      3  C   LIG    1        2.339   0.174   0.458  0.00  0.00    -0.220 A 
ATOM      4  C   LIG    1        2.306   1.463  -0.052  0.00  0.00    +0.080 A 
ATOM      5  S   LIG    1        3.911   2.170   0.032  0.00  0.00    +0.230 S 
ATOM      6  C   LIG    1        4.596   0.715   0.753  0.00  0.00    -0.230 A 
ATOM      7  C   LIG    1        5.953   0.221   1.249  0.00  0.00    +0.130 C 
ATOM      8  C   LIG    1        5.812  -1.312   1.323  0.00  0.00    +0.050 C 
ATOM      9  C   LIG    1        4.294  -1.472   1.539  0.00  0.00    +0.100 C 
ATOM     10  N   LIG    1        1.143   1.971  -0.512  0.00  0.00    -0.500 NA
ATOM     11  C   LIG    1        0.035   1.271  -0.488  0.00  0.00    +0.380 A 
ATOM     12  C   LIG    1        3.674  -0.223   0.913  0.00  0.00    -0.050 A 
ATOM     13  N   LIG    1        0.002  -0.004   0.002  0.00  0.00    -0.470 N 
ENDROOT
BRANCH  13  14
ATOM     14  C   LIG    1       -1.203  -0.719   0.009  0.00  0.00    +0.090 A 
ATOM     15  C   LIG    1       -2.047  -0.647   1.109  0.00  0.00    +0.040 A 
ATOM     16  C   LIG    1       -3.237  -1.349   1.112  0.00  0.00    +0.030 A 
ATOM     17  C   LIG    1       -3.583  -2.131   0.024  0.00  0.00    +0.030 A 
ATOM     18  C   LIG    1       -2.741  -2.208  -1.070  0.00  0.00    +0.030 A 
ATOM     19  C   LIG    1       -1.552  -1.505  -1.081  0.00  0.00    +0.040 A 
ENDBRANCH  13  14
BRANCH  11  20
ATOM     20  S   LIG    1       -1.448   1.990  -1.111  0.00  0.00    +0.040 S 
BRANCH  20  21
ATOM     21  C   LIG    1       -0.827   3.618  -1.603  0.00  0.00    +0.170 C 
BRANCH  21  22
ATOM     22  C   LIG    1       -1.954   4.433  -2.182  0.00  0.00    -0.070 A 
ATOM     23  C   LIG    1       -2.723   5.232  -1.356  0.00  0.00    +0.060 A 
ATOM     24  C   LIG    1       -3.757   5.981  -1.886  0.00  0.00    +0.050 A 
ATOM     25  C   LIG    1       -4.024   5.930  -3.242  0.00  0.00    -0.020 A 
ATOM     26  C   LIG    1       -3.254   5.129  -4.069  0.00  0.00    -0.030 A 
ATOM     27 CL   LIG    1       -3.588   5.064  -5.771  0.00  0.00    -0.040 Cl
ATOM     28 CL   LIG    1       -5.324   6.869  -3.907  0.00  0.00    -0.040 Cl
ATOM     29  C   LIG    1       -2.216   4.385  -3.538  0.00  0.00    +0.070 A 
ENDBRANCH  21  22
ENDBRANCH  20  21
ENDBRANCH  11  20
TORSDOF 4
