REMARK  Name = ZINCue00000004bi.0
REMARK                            x       y       z     vdW  Elec       q    Type
REMARK                         _______ _______ _______ _____ _____    ______ ____
ROOT
ATOM      1  N   LIG    1       -0.797  -4.485  -0.015  0.00  0.00    -0.600 N 
ATOM      2  C   LIG    1       -0.144  -3.171  -0.014  0.00  0.00    +0.370 C 
ATOM      3  C   LIG    1       -1.254  -2.149   0.003  0.00  0.00    -0.020 A 
ATOM      4  C   LIG    1       -1.268  -0.761   0.010  0.00  0.00    -0.110 A 
ATOM      5  C   LIG    1       -2.491  -0.082   0.031  0.00  0.00    +0.090 A 
ATOM      6  C   LIG    1       -3.675  -0.791   0.033  0.00  0.00    +0.010 A 
ATOM      7  C   LIG    1       -3.664  -2.172   0.026  0.00  0.00    +0.120 A 
ATOM      8  C   LIG    1       -2.451  -2.864   0.011  0.00  0.00    -0.170 A 
ATOM      9  C   LIG    1       -2.129  -4.305  -0.000  0.00  0.00    +0.570 C 
ATOM     10  O   LIG    1       -2.952  -5.200   0.003  0.00  0.00    -0.520 OA
ENDROOT
BRANCH   1  15
ATOM     11  O   LIG    1       -0.359  -9.829  -0.225  0.00  0.00    -0.500 OA
ATOM     12  C   LIG    1       -0.281  -8.621  -0.166  0.00  0.00    +0.520 C 
ATOM     13  C   LIG    1        0.136  -7.970   1.126  0.00  0.00    +0.100 C 
ATOM     14  C   LIG    1       -0.504  -6.580   1.218  0.00  0.00    +0.060 C 
ATOM     15  C   LIG    1       -0.111  -5.779  -0.028  0.00  0.00    +0.290 C 
ATOM     16  C   LIG    1       -0.514  -6.550  -1.258  0.00  0.00    +0.510 C 
ATOM     17  O   LIG    1       -0.796  -5.947  -2.271  0.00  0.00    -0.480 OA
ATOM     18  N   LIG    1       -0.568  -7.890  -1.254  0.00  0.00    -0.670 N 
ATOM     19  H   LIG    1       -0.826  -8.348  -2.069  0.00  0.00    +0.410 HD
ENDBRANCH   1  15
BRANCH   4  20
ATOM     20  C   LIG    1        0.002  -0.004   0.002  0.00  0.00    +0.560 C 
ATOM     21  N   LIG    1       -0.016   1.344   0.009  0.00  0.00    -0.710 N 
ATOM     22  H   LIG    1       -0.863   1.817   0.016  0.00  0.00    +0.400 HD
ATOM     23  O   LIG    1        1.063  -0.597  -0.011  0.00  0.00    -0.540 OA
BRANCH  21  24
ATOM     24  C   LIG    1        1.242   2.093   0.001  0.00  0.00    +0.230 C 
ATOM     25  C   LIG    1        1.731   2.254  -1.440  0.00  0.00    +0.000 C 
ATOM     26  C   LIG    1        3.046   3.037  -1.448  0.00  0.00    +0.010 C 
ATOM     27  C   LIG    1        2.821   4.418  -0.829  0.00  0.00    +0.020 C 
ATOM     28  C   LIG    1        2.332   4.257   0.612  0.00  0.00    -0.090 C 
ATOM     29  C   LIG    1        1.018   3.474   0.621  0.00  0.00    +0.030 C 
BRANCH  28  30
ATOM     30  C   LIG    1        2.110   5.617   1.222  0.00  0.00    +0.500 C 
ATOM     31  O   LIG    1        1.089   6.236   0.977  0.00  0.00    -0.700 OA
ATOM     32  O   LIG    1        2.952   6.099   1.961  0.00  0.00    -0.700 OA
ENDBRANCH  28  30
ENDBRANCH  21  24
ENDBRANCH   4  20
TORSDOF 4
