REMARK  Name = ZINCqH00000365QU.0
REMARK                            x       y       z     vdW  Elec       q    Type
REMARK                         _______ _______ _______ _____ _____    ______ ____
ROOT
ATOM      1  C   LIG    1        0.071  -4.280  -0.022  0.00  0.00    +0.290 C 
ATOM      2  C   LIG    1       -0.139  -4.817   1.410  0.00  0.00    +0.050 C 
ATOM      3  C   LIG    1        0.821  -6.035   1.469  0.00  0.00    +0.040 C 
ATOM      4  C   LIG    1        2.008  -5.537   0.608  0.00  0.00    +0.240 C 
ATOM      5  N   LIG    1        1.386  -4.756  -0.477  0.00  0.00    -0.620 N 
ATOM      6  C   LIG    1        1.932  -4.519  -1.686  0.00  0.00    +0.530 C 
ATOM      7  O   LIG    1        1.327  -3.861  -2.506  0.00  0.00    -0.500 OA
ENDROOT
BRANCH   1  11
ATOM      8  C   LIG    1        0.002  -0.004   0.002  0.00  0.00    +0.170 A 
ATOM      9  C   LIG    1        1.213  -0.682  -0.013  0.00  0.00    -0.110 A 
ATOM     10  C   LIG    1        1.232  -2.064  -0.020  0.00  0.00    +0.100 A 
ATOM     11  C   LIG    1        0.047  -2.774  -0.013  0.00  0.00    -0.150 A 
ATOM     12  C   LIG    1       -1.167  -2.100   0.002  0.00  0.00    +0.180 A 
ATOM     13  C   LIG    1       -1.189  -0.714   0.015  0.00  0.00    -0.100 A 
BRANCH   8  15
ATOM     14  C   LIG    1        1.248   2.021   0.001  0.00  0.00    +0.250 C 
ATOM     15  O   LIG    1       -0.016   1.355   0.009  0.00  0.00    -0.320 OA
ENDBRANCH   8  15
BRANCH  12  16
ATOM     16  O   LIG    1       -2.332  -2.799   0.010  0.00  0.00    -0.310 OA
ATOM     17  C   LIG    1       -3.543  -2.041   0.026  0.00  0.00    +0.240 C 
ENDBRANCH  12  16
ENDBRANCH   1  11
BRANCH   6  18
ATOM     18  C   LIG    1        3.294  -5.071  -2.020  0.00  0.00    +0.230 C 
BRANCH  18  19
ATOM     19  O   LIG    1        3.651  -4.686  -3.349  0.00  0.00    -0.290 OA
BRANCH  19  20
ATOM     20  C   LIG    1        4.859  -5.106  -3.809  0.00  0.00    +0.120 A 
ATOM     21  C   LIG    1        5.686  -5.867  -2.996  0.00  0.00    -0.080 A 
ATOM     22  C   LIG    1        6.911  -6.298  -3.468  0.00  0.00    +0.050 A 
ATOM     23  C   LIG    1        7.318  -5.960  -4.745  0.00  0.00    -0.120 A 
ATOM     24  C   LIG    1        6.498  -5.196  -5.556  0.00  0.00    +0.050 A 
ATOM     25  C   LIG    1        8.658  -6.425  -5.255  0.00  0.00    +0.100 C 
ATOM     26  C   LIG    1        5.270  -4.769  -5.090  0.00  0.00    -0.010 A 
ENDBRANCH  19  20
ENDBRANCH  18  19
ENDBRANCH   6  18
TORSDOF 6
