REMARK  Name = ZINCpk00000e1zrl.0
REMARK                            x       y       z     vdW  Elec       q    Type
REMARK                         _______ _______ _______ _____ _____    ______ ____
ROOT
ATOM      1  N   LIG    1       -0.759   1.590  -1.151  0.00  0.00    -0.550 N 
ATOM      2  C   LIG    1       -0.018   1.072   0.005  0.00  0.00    +0.310 C 
ATOM      3  C   LIG    1       -0.773   1.593   1.248  0.00  0.00    +0.000 C 
ATOM      4  C   LIG    1       -2.202   1.793   0.685  0.00  0.00    +0.100 C 
ATOM      5  C   LIG    1       -1.991   1.997  -0.799  0.00  0.00    +0.510 C 
ATOM      6  O   LIG    1       -2.813   2.461  -1.560  0.00  0.00    -0.500 OA
ENDROOT
BRANCH   1  11
ATOM      7  C   LIG    1       -0.557   2.110  -4.789  0.00  0.00    +0.160 A 
ATOM      8  C   LIG    1        0.769   1.775  -5.026  0.00  0.00    -0.100 A 
ATOM      9  C   LIG    1        1.582   1.382  -3.980  0.00  0.00    +0.080 A 
ATOM     10  C   LIG    1        1.079   1.324  -2.695  0.00  0.00    -0.060 A 
ATOM     11  C   LIG    1       -0.248   1.653  -2.452  0.00  0.00    +0.210 A 
ATOM     12  C   LIG    1       -1.066   2.049  -3.501  0.00  0.00    -0.030 A 
BRANCH   7  14
ATOM     13  C   LIG    1       -0.764   2.537  -7.118  0.00  0.00    +0.250 C 
ATOM     14  O   LIG    1       -1.355   2.497  -5.818  0.00  0.00    -0.310 OA
ENDBRANCH   7  14
ENDBRANCH   1  11
BRANCH   3  15
ATOM     15  C   LIG    1       -0.192   2.899   1.724  0.00  0.00    +0.520 C 
ATOM     16  N   LIG    1       -0.716   3.517   2.802  0.00  0.00    -0.730 N 
ATOM     17  H   LIG    1       -1.467   3.120   3.271  0.00  0.00    +0.400 HD
ATOM     18  O   LIG    1        0.747   3.394   1.138  0.00  0.00    -0.520 OA
BRANCH  16  19
ATOM     19  C   LIG    1       -0.151   4.786   3.265  0.00  0.00    +0.260 C 
BRANCH  19  20
ATOM     20  C   LIG    1       -0.922   5.270   4.494  0.00  0.00    +0.030 C 
BRANCH  20  21
ATOM     21  C   LIG    1       -0.332   6.596   4.978  0.00  0.00    +0.330 C 
BRANCH  21  22
ATOM     22  N   LIG    1       -1.071   7.059   6.155  0.00  0.00    -0.380 N 
ATOM     23  C   LIG    1       -0.539   7.365   7.357  0.00  0.00    +0.220 A 
ATOM     24  C   LIG    1       -1.550   7.753   8.169  0.00  0.00    -0.120 A 
ATOM     25  C   LIG    1       -2.741   7.672   7.441  0.00  0.00    +0.230 A 
ATOM     26  N   LIG    1       -2.456   7.256   6.234  0.00  0.00    -0.300 NA
ENDBRANCH  21  22
ENDBRANCH  20  21
ENDBRANCH  19  20
ENDBRANCH  16  19
ENDBRANCH   3  15
TORSDOF 7
