REMARK  Name = ZINCqH0000032kMm.0
REMARK                            x       y       z     vdW  Elec       q    Type
REMARK                         _______ _______ _______ _____ _____    ______ ____
ROOT
ATOM      1  C   LIG    1        1.240   1.136  -0.015  0.00  0.00    +0.120 A 
ATOM      2  C   LIG    1        1.157   2.378  -0.626  0.00  0.00    -0.020 A 
ATOM      3  C   LIG    1       -0.018   3.102  -0.562  0.00  0.00    +0.070 A 
ATOM      4  C   LIG    1       -1.115   2.586   0.113  0.00  0.00    +0.180 A 
ATOM      5  C   LIG    1       -1.032   1.339   0.720  0.00  0.00    -0.180 A 
ATOM      6  C   LIG    1        0.144   0.619   0.660  0.00  0.00    +0.060 A 
ENDROOT
BRANCH   4   7
ATOM      7  N   LIG    1       -2.307   3.319   0.178  0.00  0.00    -0.690 N 
ATOM      8  H   LIG    1       -3.152   2.862   0.312  0.00  0.00    +0.410 HD
ATOM      9  C   LIG    1       -2.280   4.661   0.055  0.00  0.00    +0.700 C 
ATOM     10  N   LIG    1       -3.433   5.356   0.001  0.00  0.00    -0.620 N 
ATOM     11  C   LIG    1       -4.626   4.642   0.200  0.00  0.00    +0.320 C 
ATOM     12  C   LIG    1       -5.485   4.746  -1.092  0.00  0.00    -0.260 C 
ATOM     13  S   LIG    1       -6.038   6.441  -1.312  0.00  0.00    +1.240 S 
ATOM     14  C   LIG    1       -4.744   7.301  -2.261  0.00  0.00    -0.230 C 
ATOM     15  C   LIG    1       -3.348   6.901  -1.771  0.00  0.00    +0.000 C 
ATOM     16  C   LIG    1       -2.333   7.959  -2.209  0.00  0.00    +0.030 C 
ATOM     17  O   LIG    1       -7.252   6.452  -2.050  0.00  0.00    -0.850 OA
ATOM     18  C   LIG    1       -3.339   6.795  -0.253  0.00  0.00    +0.330 C 
ATOM     19  O   LIG    1       -1.215   5.245  -0.009  0.00  0.00    -0.560 OA
ENDBRANCH   4   7
BRANCH   5  20
ATOM     20  C   LIG    1       -2.225   0.775   1.448  0.00  0.00    +0.510 C 
ATOM     21  F   LIG    1       -3.295   0.642   0.557  0.00  0.00    -0.180 F 
ATOM     22  F   LIG    1       -2.588   1.638   2.487  0.00  0.00    -0.170 F 
ATOM     23  F   LIG    1       -1.899  -0.479   1.976  0.00  0.00    -0.170 F 
ENDBRANCH   5  20
BRANCH   1  24
ATOM     24  O   LIG    1        2.397   0.423  -0.079  0.00  0.00    -0.310 OA
BRANCH  24  26
ATOM     25  C   LIG    1        4.795   0.433  -0.379  0.00  0.00    +0.070 C 
ATOM     26  C   LIG    1        3.450   0.966  -0.877  0.00  0.00    +0.150 C 
ATOM     27  C   LIG    1        3.248   0.555  -2.337  0.00  0.00    +0.020 C 
ENDBRANCH  24  26
ENDBRANCH   1  24
TORSDOF 4
