REMARK  Name = ZINCqH0000008yE2.0
REMARK                            x       y       z     vdW  Elec       q    Type
REMARK                         _______ _______ _______ _____ _____    ______ ____
ROOT
ATOM      1  N   LIG    1        1.231   2.043   0.048  0.00  0.00    -0.530 NA
ATOM      2  C   LIG    1       -0.179   1.649  -0.078  0.00  0.00    +0.180 C 
ATOM      3  C   LIG    1       -0.285   0.123  -0.031  0.00  0.00    +0.190 C 
ATOM      4  N   LIG    1        0.285  -0.367   1.232  0.00  0.00    -0.530 NA
ATOM      5  C   LIG    1        1.695   0.028   1.358  0.00  0.00    +0.190 C 
ATOM      6  C   LIG    1        1.801   1.554   1.311  0.00  0.00    +0.200 C 
ENDROOT
BRANCH   1   8
ATOM      7  C   LIG    1        2.855   3.875   0.116  0.00  0.00    +0.080 C 
ATOM      8  C   LIG    1        1.383   3.500  -0.069  0.00  0.00    +0.270 C 
BRANCH   8   9
ATOM      9  C   LIG    1        0.917   3.946  -1.431  0.00  0.00    +0.200 A 
ATOM     10  N   LIG    1        0.136   4.964  -1.690  0.00  0.00    -0.470 NA
ATOM     11  C   LIG    1       -0.005   4.980  -3.036  0.00  0.00    +0.240 A 
ATOM     12  N   LIG    1        0.688   3.974  -3.509  0.00  0.00    -0.370 NA
ATOM     13  O   LIG    1        1.221   3.373  -2.600  0.00  0.00    +0.100 OA
BRANCH  11  14
ATOM     14  C   LIG    1       -0.796   5.948  -3.824  0.00  0.00    -0.140 A 
ATOM     15  C   LIG    1       -0.920   5.942  -5.167  0.00  0.00    +0.060 A 
ATOM     16  C   LIG    1       -1.717   6.945  -5.676  0.00  0.00    +0.010 A 
ATOM     17  C   LIG    1       -2.235   7.775  -4.765  0.00  0.00    -0.030 A 
ATOM     18  S   LIG    1       -1.716   7.290  -3.156  0.00  0.00    +0.190 S 
ENDBRANCH  11  14
ENDBRANCH   8   9
ENDBRANCH   1   8
BRANCH   4  19
ATOM     19  C   LIG    1        0.133  -1.823   1.348  0.00  0.00    +0.260 C 
BRANCH  19  20
ATOM     20  C   LIG    1        0.936  -2.320   2.523  0.00  0.00    +0.140 A 
ATOM     21  N   LIG    1        2.190  -2.689   2.346  0.00  0.00    -0.460 NA
ATOM     22  C   LIG    1        2.932  -3.124   3.345  0.00  0.00    +0.270 A 
ATOM     23  C   LIG    1        2.413  -3.220   4.623  0.00  0.00    -0.010 A 
ATOM     24  C   LIG    1        1.097  -2.847   4.848  0.00  0.00    +0.080 A 
ATOM     25  C   LIG    1        0.348  -2.389   3.773  0.00  0.00    -0.070 A 
ATOM     26 CL   LIG    1       -1.305  -1.907   3.995  0.00  0.00    -0.040 Cl
ENDBRANCH  19  20
ENDBRANCH   4  19
TORSDOF 5
