REMARK  Name = ZINCpk00000xIgtu.0
REMARK                            x       y       z     vdW  Elec       q    Type
REMARK                         _______ _______ _______ _____ _____    ______ ____
ROOT
ATOM      1  S   LIG    1       -4.101   4.550   0.502  0.00  0.00    +0.100 S 
ENDROOT
BRANCH   1   2
ATOM      2  C   LIG    1       -4.800   3.378   1.618  0.00  0.00    +0.140 A 
ATOM      3  N   LIG    1       -6.073   3.234   1.902  0.00  0.00    -0.290 NA
ATOM      4  N   LIG    1       -6.226   2.285   2.755  0.00  0.00    -0.280 NA
ATOM      5  C   LIG    1       -5.071   1.765   3.061  0.00  0.00    +0.200 A 
ATOM      6  C   LIG    1       -4.828   0.628   4.020  0.00  0.00    +0.200 C 
ATOM      7  N   LIG    1       -4.117   2.447   2.352  0.00  0.00    -0.420 N 
BRANCH   7   8
ATOM      8  C   LIG    1       -2.732   2.231   2.370  0.00  0.00    +0.100 A 
ATOM      9  C   LIG    1       -2.007   2.465   3.530  0.00  0.00    +0.030 A 
ATOM     10  C   LIG    1       -0.642   2.251   3.545  0.00  0.00    +0.040 A 
ATOM     11  C   LIG    1        0.002   1.806   2.405  0.00  0.00    +0.030 A 
ATOM     12  C   LIG    1       -0.718   1.572   1.248  0.00  0.00    -0.070 A 
ATOM     13  C   LIG    1       -0.013   1.086   0.008  0.00  0.00    +0.100 C 
ATOM     14  C   LIG    1       -2.082   1.789   1.226  0.00  0.00    +0.030 A 
ENDBRANCH   7   8
ENDBRANCH   1   2
BRANCH   1  15
ATOM     15  C   LIG    1       -5.605   5.391  -0.052  0.00  0.00    +0.110 C 
BRANCH  15  21
ATOM     16  N   LIG    1       -6.850   8.954  -3.030  0.00  0.00    -0.730 N 
ATOM     17  H   LIG    1       -7.778   8.810  -2.788  0.00  0.00    +0.400 HD
ATOM     18  C   LIG    1       -5.884   8.192  -2.479  0.00  0.00    +0.700 C 
ATOM     19  N   LIG    1       -6.208   7.229  -1.593  0.00  0.00    -0.680 N 
ATOM     20  H   LIG    1       -7.137   7.085  -1.351  0.00  0.00    +0.410 HD
ATOM     21  C   LIG    1       -5.243   6.467  -1.043  0.00  0.00    +0.540 C 
ATOM     22  O   LIG    1       -4.082   6.647  -1.345  0.00  0.00    -0.450 OA
ATOM     23  O   LIG    1       -4.721   8.372  -2.782  0.00  0.00    -0.530 OA
BRANCH  16  24
ATOM     24  C   LIG    1       -6.498  10.000  -3.993  0.00  0.00    +0.310 C 
BRANCH  24  25
ATOM     25  C   LIG    1       -7.769  10.712  -4.461  0.00  0.00    +0.180 C 
BRANCH  25  27
ATOM     26  C   LIG    1       -9.564  12.100  -3.689  0.00  0.00    +0.200 C 
ATOM     27  O   LIG    1       -8.364  11.398  -3.358  0.00  0.00    -0.390 OA
ENDBRANCH  25  27
ENDBRANCH  24  25
ENDBRANCH  16  24
ENDBRANCH  15  21
ENDBRANCH   1  15
TORSDOF 7
