REMARK  Name = ZINCkj000005jOL5.0
REMARK                            x       y       z     vdW  Elec       q    Type
REMARK                         _______ _______ _______ _____ _____    ______ ____
ROOT
ATOM      1  N   LIG    1       -0.723   1.572  -1.182  0.00  0.00    -0.390 N 
ATOM      2  C   LIG    1       -2.101   1.064  -1.172  0.00  0.00    +0.330 C 
ATOM      3  H   LIG    1       -0.737   2.581  -1.177  0.00  0.00    +0.420 HD
ENDROOT
BRANCH   1   5
ATOM      4  C   LIG    1       -0.729   1.579   1.267  0.00  0.00    +0.100 C 
ATOM      5  C   LIG    1       -0.013   1.086   0.008  0.00  0.00    +0.230 C 
BRANCH   5   6
ATOM      6  C   LIG    1        1.401   1.607  -0.003  0.00  0.00    -0.090 A 
ATOM      7  C   LIG    1        1.676   2.904  -0.411  0.00  0.00    -0.050 A 
ATOM      8  C   LIG    1        2.985   3.348  -0.404  0.00  0.00    +0.290 A 
ATOM      9  N   LIG    1        3.966   2.553  -0.023  0.00  0.00    -0.460 NA
ATOM     10  C   LIG    1        3.741   1.314   0.367  0.00  0.00    +0.300 A 
ATOM     11  C   LIG    1        2.458   0.801   0.390  0.00  0.00    +0.010 A 
ENDBRANCH   5   6
ENDBRANCH   1   5
BRANCH   1  12
ATOM     12  C   LIG    1       -0.036   1.099  -2.391  0.00  0.00    +0.280 C 
BRANCH  12  13
ATOM     13  C   LIG    1       -0.701   1.707  -3.627  0.00  0.00    +0.070 C 
BRANCH  13  14
ATOM     14  C   LIG    1        0.005   1.221  -4.867  0.00  0.00    +0.520 C 
ATOM     15  N   LIG    1       -0.411   1.628  -6.083  0.00  0.00    -0.610 N 
ATOM     16  C   LIG    1       -1.555   2.543  -6.224  0.00  0.00    +0.250 C 
ATOM     17  C   LIG    1       -1.130   3.705  -7.136  0.00  0.00    +0.210 C 
ATOM     18  O   LIG    1       -0.586   3.176  -8.348  0.00  0.00    -0.370 OA
ATOM     19  C   LIG    1        0.595   2.393  -8.166  0.00  0.00    +0.230 C 
ATOM     20  C   LIG    1        0.262   1.167  -7.307  0.00  0.00    +0.270 C 
ATOM     21  O   LIG    1        0.947   0.463  -4.771  0.00  0.00    -0.530 OA
ENDBRANCH  13  14
ENDBRANCH  12  13
ENDBRANCH   1  12
TORSDOF 5
