REMARK  Name = ZINCkj000005jOL5.1
REMARK                            x       y       z     vdW  Elec       q    Type
REMARK                         _______ _______ _______ _____ _____    ______ ____
ROOT
ATOM      1  N   LIG    1       -2.613   5.636   0.045  0.00  0.00    -0.390 N 
ATOM      2  C   LIG    1       -2.020   6.117   1.300  0.00  0.00    +0.330 C 
ATOM      3  H   LIG    1       -2.070   5.975  -0.735  0.00  0.00    +0.420 HD
ENDROOT
BRANCH   1   5
ATOM      4  C   LIG    1       -4.609   5.631  -1.373  0.00  0.00    +0.100 C 
ATOM      5  C   LIG    1       -3.991   6.132  -0.066  0.00  0.00    +0.230 C 
BRANCH   5   6
ATOM      6  C   LIG    1       -3.986   7.638  -0.058  0.00  0.00    -0.090 A 
ATOM      7  C   LIG    1       -3.007   8.348  -0.737  0.00  0.00    -0.050 A 
ATOM      8  C   LIG    1       -3.038   9.730  -0.712  0.00  0.00    +0.290 A 
ATOM      9  N   LIG    1       -3.976  10.372  -0.043  0.00  0.00    -0.460 NA
ATOM     10  C   LIG    1       -4.918   9.729   0.619  0.00  0.00    +0.290 A 
ATOM     11  C   LIG    1       -4.956   8.348   0.633  0.00  0.00    +0.000 A 
ENDBRANCH   5   6
ENDBRANCH   1   5
BRANCH   1  12
ATOM     12  C   LIG    1       -2.618   4.167   0.037  0.00  0.00    +0.290 C 
BRANCH  12  13
ATOM     13  C   LIG    1       -1.177   3.652   0.028  0.00  0.00    +0.070 C 
BRANCH  13  14
ATOM     14  C   LIG    1       -1.183   2.145   0.019  0.00  0.00    +0.520 C 
ATOM     15  N   LIG    1       -0.018   1.467   0.010  0.00  0.00    -0.610 N 
ATOM     16  C   LIG    1        1.271   2.176   0.002  0.00  0.00    +0.250 C 
ATOM     17  C   LIG    1        2.151   1.593   1.113  0.00  0.00    +0.210 C 
ATOM     18  O   LIG    1        2.208   0.172   0.972  0.00  0.00    -0.370 OA
ATOM     19  C   LIG    1        0.944  -0.481   1.114  0.00  0.00    +0.230 C 
ATOM     20  C   LIG    1        0.002  -0.004   0.002  0.00  0.00    +0.270 C 
ATOM     21  O   LIG    1       -2.235   1.543   0.021  0.00  0.00    -0.530 OA
ENDBRANCH  13  14
ENDBRANCH  12  13
ENDBRANCH   1  12
TORSDOF 5
