REMARK  Name = ZINCqH0000000tAh.0
REMARK                            x       y       z     vdW  Elec       q    Type
REMARK                         _______ _______ _______ _____ _____    ______ ____
ROOT
ATOM      1  S   LIG    1        0.505   7.151  -0.956  0.00  0.00    +2.690 S 
ATOM      2  O   LIG    1        1.676   7.862  -1.335  0.00  0.00    -0.950 OA
ATOM      3  O   LIG    1       -0.313   7.530   0.141  0.00  0.00    -0.940 OA
ENDROOT
BRANCH   1   7
ATOM      4  C   LIG    1        1.799   2.882  -0.171  0.00  0.00    +0.210 A 
ATOM      5  C   LIG    1        0.608   3.358   0.362  0.00  0.00    -0.030 A 
ATOM      6  C   LIG    1        0.219   4.662   0.125  0.00  0.00    +0.140 A 
ATOM      7  C   LIG    1        1.008   5.490  -0.651  0.00  0.00    -0.700 A 
ATOM      8  C   LIG    1        2.192   5.018  -1.188  0.00  0.00    +0.150 A 
ATOM      9  C   LIG    1        2.589   3.717  -0.950  0.00  0.00    +0.000 A 
BRANCH   4  12
ATOM     10  C   LIG    1        3.932  -0.197   0.201  0.00  0.00    +0.110 C 
ATOM     11  C   LIG    1        3.507   1.242   0.052  0.00  0.00    +0.510 C 
ATOM     12  N   LIG    1        2.199   1.564   0.072  0.00  0.00    -0.680 N 
ATOM     13  H   LIG    1        1.534   0.881   0.255  0.00  0.00    +0.420 HD
ATOM     14  O   LIG    1        4.343   2.110  -0.087  0.00  0.00    -0.520 OA
ENDBRANCH   4  12
ENDBRANCH   1   7
BRANCH   1  15
ATOM     15  N   LIG    1       -0.479   7.128  -2.288  0.00  0.00    -0.960 NA
BRANCH  15  16
ATOM     16  C   LIG    1        0.073   7.425  -3.612  0.00  0.00    +0.220 C 
ATOM     17  C   LIG    1       -0.918   7.705  -4.744  0.00  0.00    +0.040 C 
ATOM     18  C   LIG    1       -0.142   6.386  -4.715  0.00  0.00    +0.010 C 
ENDBRANCH  15  16
BRANCH  15  19
ATOM     19  C   LIG    1       -1.902   6.812  -2.141  0.00  0.00    +0.360 C 
BRANCH  19  20
ATOM     20  C   LIG    1       -2.591   7.926  -1.396  0.00  0.00    -0.150 A 
ATOM     21  C   LIG    1       -2.625   9.201  -1.934  0.00  0.00    +0.130 A 
ATOM     22  C   LIG    1       -3.258  10.225  -1.249  0.00  0.00    -0.020 A 
ATOM     23  C   LIG    1       -3.854   9.973  -0.028  0.00  0.00    +0.070 A 
ATOM     24  C   LIG    1       -3.820   8.699   0.509  0.00  0.00    +0.020 A 
ATOM     25  F   LIG    1       -2.041   9.447  -3.128  0.00  0.00    -0.120 F 
ATOM     26  C   LIG    1       -3.193   7.675  -0.177  0.00  0.00    +0.030 A 
ATOM     27 CL   LIG    1       -3.157   6.075   0.495  0.00  0.00    -0.050 Cl
ENDBRANCH  19  20
ENDBRANCH  15  19
ENDBRANCH   1  15
TORSDOF 6
