REMARK  Name = ZINCqH0000004ZV6.0
REMARK                            x       y       z     vdW  Elec       q    Type
REMARK                         _______ _______ _______ _____ _____    ______ ____
ROOT
ATOM      1  C   LIG    1        0.796   3.485   0.300  0.00  0.00    -0.060 A 
ATOM      2  C   LIG    1        1.101   2.281   0.861  0.00  0.00    +0.090 A 
ATOM      3  C   LIG    1        2.476   1.733   1.138  0.00  0.00    +0.150 C 
ATOM      4  C   LIG    1        2.420   0.203   1.116  0.00  0.00    +0.020 C 
ATOM      5  C   LIG    1        2.073  -0.314   2.510  0.00  0.00    +0.010 C 
ATOM      6  C   LIG    1        0.704   0.204   2.946  0.00  0.00    +0.030 C 
ATOM      7  C   LIG    1       -0.215   0.327   1.728  0.00  0.00    +0.300 C 
ATOM      8  N   LIG    1       -0.069   1.661   1.139  0.00  0.00    -0.440 N 
ATOM      9  C   LIG    1       -1.078   2.500   0.762  0.00  0.00    +0.240 A 
ATOM     10  N   LIG    1       -0.550   3.589   0.257  0.00  0.00    -0.440 NA
ENDROOT
BRANCH   9  11
ATOM     11  C   LIG    1       -2.526   2.227   0.901  0.00  0.00    -0.010 A 
ATOM     12  C   LIG    1       -3.006   0.922   0.785  0.00  0.00    +0.010 A 
ATOM     13  C   LIG    1       -4.357   0.673   0.920  0.00  0.00    +0.010 A 
ATOM     14  C   LIG    1       -5.235   1.715   1.160  0.00  0.00    +0.020 A 
ATOM     15  C   LIG    1       -4.765   3.011   1.271  0.00  0.00    +0.010 A 
ATOM     16  C   LIG    1       -3.416   3.273   1.143  0.00  0.00    +0.050 A 
ENDBRANCH   9  11
BRANCH   1  19
ATOM     17  C   LIG    1       -0.115   5.863  -0.910  0.00  0.00    +0.310 C 
ATOM     18  N   LIG    1        1.323   5.605  -0.796  0.00  0.00    -0.590 N 
ATOM     19  C   LIG    1        1.761   4.492  -0.175  0.00  0.00    +0.610 C 
ATOM     20  O   LIG    1        2.953   4.319  -0.006  0.00  0.00    -0.530 OA
BRANCH  18  21
ATOM     21  C   LIG    1        2.285   6.557  -1.357  0.00  0.00    +0.240 C 
ATOM     22  C   LIG    1        2.885   7.514  -0.314  0.00  0.00    +0.050 C 
ATOM     23  C   LIG    1        2.763   8.621  -1.377  0.00  0.00    +0.040 C 
ATOM     24  C   LIG    1        1.627   7.791  -1.999  0.00  0.00    +0.060 C 
BRANCH  21  25
ATOM     25  C   LIG    1        3.292   5.913  -2.216  0.00  0.00    +0.220 C 
ATOM     26  N   LIG    1        4.070   5.416  -2.878  0.00  0.00    -0.400 NA
ENDBRANCH  21  25
ENDBRANCH  18  21
ENDBRANCH   1  19
TORSDOF 4
