REMARK  Name = ZINCtV00000tRPeA.0
REMARK                            x       y       z     vdW  Elec       q    Type
REMARK                         _______ _______ _______ _____ _____    ______ ____
ROOT
ATOM      1  C   LIG    1       -3.709   3.692   0.056  0.00  0.00    +0.280 C 
ENDROOT
BRANCH   1   2
ATOM      2  N   LIG    1       -2.287   4.045   0.044  0.00  0.00    -0.490 N 
ATOM      3  C   LIG    1       -1.246   3.134   0.030  0.00  0.00    +0.160 A 
ATOM      4  C   LIG    1       -0.036   3.844   0.022  0.00  0.00    -0.090 A 
ATOM      5  C   LIG    1       -0.391   5.276   0.033  0.00  0.00    -0.100 A 
ATOM      6  C   LIG    1        0.360   6.449   0.032  0.00  0.00    +0.110 A 
ATOM      7  C   LIG    1       -0.279   7.671   0.042  0.00  0.00    -0.120 A 
ATOM      8 BR   LIG    1        0.737   9.265   0.040  0.00  0.00    -0.040 Br
ATOM      9  C   LIG    1       -1.665   7.734   0.056  0.00  0.00    +0.090 A 
ATOM     10  C   LIG    1       -2.419   6.580   0.058  0.00  0.00    +0.000 A 
ATOM     11  C   LIG    1        1.176   3.159   0.007  0.00  0.00    +0.110 A 
ATOM     12  C   LIG    1        1.183   1.780   0.000  0.00  0.00    -0.120 A 
ATOM     13  C   LIG    1       -0.013   1.076   0.008  0.00  0.00    +0.090 A 
ATOM     14 BR   LIG    1        2.827   0.846  -0.020  0.00  0.00    -0.040 Br
ATOM     15  C   LIG    1       -1.218   1.743   0.017  0.00  0.00    -0.010 A 
ATOM     16  C   LIG    1       -1.793   5.338   0.046  0.00  0.00    +0.170 A 
ENDBRANCH   1   2
BRANCH   1  17
ATOM     17  C   LIG    1       -4.190   3.563   1.503  0.00  0.00    +0.180 C 
BRANCH  17  18
ATOM     18  O   LIG    1       -4.111   4.836   2.147  0.00  0.00    -0.530 OA
ATOM     19  H   LIG    1       -4.648   5.522   1.728  0.00  0.00    +0.370 HD
ENDBRANCH  17  18
BRANCH  17  20
ATOM     20  C   LIG    1       -5.639   3.073   1.516  0.00  0.00    +0.280 C 
BRANCH  20  30
ATOM     21  C   LIG    1       -6.960   5.168   3.369  0.00  0.00    +0.190 C 
ATOM     22  C   LIG    1       -6.643   3.740   3.731  0.00  0.00    +0.300 A 
ATOM     23  N   LIG    1       -6.887   3.192   4.886  0.00  0.00    -0.490 NA
ATOM     24  C   LIG    1       -6.478   1.898   4.873  0.00  0.00    +0.050 A 
ATOM     25  C   LIG    1       -6.498   0.872   5.821  0.00  0.00    +0.070 A 
ATOM     26  C   LIG    1       -5.998  -0.360   5.502  0.00  0.00    +0.000 A 
ATOM     27  C   LIG    1       -5.470  -0.604   4.243  0.00  0.00    +0.030 A 
ATOM     28  C   LIG    1       -5.440   0.394   3.292  0.00  0.00    +0.010 A 
ATOM     29  C   LIG    1       -5.948   1.649   3.596  0.00  0.00    +0.050 A 
ATOM     30  N   LIG    1       -6.061   2.835   2.899  0.00  0.00    -0.490 N 
ENDBRANCH  20  30
ENDBRANCH  17  20
ENDBRANCH   1  17
TORSDOF 5
