REMARK  Name = ZINCrH000004t6AJ.0
REMARK                            x       y       z     vdW  Elec       q    Type
REMARK                         _______ _______ _______ _____ _____    ______ ____
ROOT
ATOM      1  C   LIG    1       -0.449   3.029  -1.534  0.00  0.00    +0.580 C 
ATOM      2  N   LIG    1       -0.503   1.700  -1.316  0.00  0.00    -0.580 N 
ATOM      3  O   LIG    1        0.205   3.740  -0.795  0.00  0.00    -0.520 OA
ENDROOT
BRANCH   1  10
ATOM      4  C   LIG    1       -4.297   5.053  -6.620  0.00  0.00    +0.340 C 
ATOM      5  N   LIG    1       -3.118   5.379  -5.814  0.00  0.00    -0.480 N 
ATOM      6  C   LIG    1       -2.320   6.473  -5.961  0.00  0.00    +0.510 A 
ATOM      7  N   LIG    1       -1.364   6.450  -5.080  0.00  0.00    -0.480 NA
ATOM      8  C   LIG    1       -1.486   5.340  -4.308  0.00  0.00    -0.010 A 
ATOM      9  C   LIG    1       -0.756   4.824  -3.238  0.00  0.00    +0.200 A 
ATOM     10  C   LIG    1       -1.184   3.622  -2.669  0.00  0.00    -0.200 A 
ATOM     11  C   LIG    1       -2.315   2.983  -3.191  0.00  0.00    +0.350 A 
ATOM     12  N   LIG    1       -2.984   3.500  -4.198  0.00  0.00    -0.480 NA
ATOM     13  C   LIG    1       -2.616   4.637  -4.770  0.00  0.00    +0.260 A 
ENDBRANCH   1  10
BRANCH   2  14
ATOM     14  C   LIG    1       -1.238   0.836  -2.243  0.00  0.00    +0.170 C 
ATOM     15  C   LIG    1       -0.469  -0.314  -2.898  0.00  0.00    +0.040 C 
ATOM     16  C   LIG    1       -0.867   0.911  -3.725  0.00  0.00    +0.040 C 
ENDBRANCH   2  14
BRANCH   2  17
ATOM     17  C   LIG    1        0.173   1.120  -0.153  0.00  0.00    +0.360 C 
BRANCH  17  18
ATOM     18  C   LIG    1       -0.746   1.171   1.040  0.00  0.00    -0.040 A 
ATOM     19  C   LIG    1       -2.059   1.574   0.883  0.00  0.00    +0.020 A 
ATOM     20  C   LIG    1       -2.902   1.621   1.978  0.00  0.00    +0.050 A 
ATOM     21  C   LIG    1       -2.433   1.264   3.228  0.00  0.00    +0.020 A 
ATOM     22  C   LIG    1       -1.120   0.860   3.384  0.00  0.00    +0.070 A 
ATOM     23  C   LIG    1       -0.278   0.809   2.289  0.00  0.00    -0.180 A 
BRANCH  23  24
ATOM     24  C   LIG    1        1.152   0.363   2.458  0.00  0.00    +0.510 C 
ATOM     25  F   LIG    1        2.011   1.413   2.116  0.00  0.00    -0.170 F 
ATOM     26  F   LIG    1        1.400  -0.733   1.625  0.00  0.00    -0.180 F 
ATOM     27  F   LIG    1        1.371  -0.004   3.790  0.00  0.00    -0.180 F 
ENDBRANCH  23  24
ENDBRANCH  17  18
ENDBRANCH   2  17
TORSDOF 5
