REMARK  Name = ZINCpe000000YYJ5.0
REMARK                            x       y       z     vdW  Elec       q    Type
REMARK                         _______ _______ _______ _____ _____    ______ ____
ROOT
ATOM      1  O   LIG    1       -2.352   1.572   0.044  0.00  0.00    -0.490 OA
ATOM      2  C   LIG    1       -1.280   2.147   0.032  0.00  0.00    +0.570 A 
ATOM      3  N   LIG    1       -1.217   3.496   0.033  0.00  0.00    -0.660 N 
ATOM      4  H   LIG    1       -2.039   4.010   0.044  0.00  0.00    +0.430 HD
ATOM      5  C   LIG    1       -0.039   4.138   0.025  0.00  0.00    +0.710 A 
ATOM      6  N   LIG    1        1.141   3.495   0.010  0.00  0.00    -0.520 N 
ATOM      7  C   LIG    1        1.191   2.108   0.002  0.00  0.00    +0.210 A 
ATOM      8  C   LIG    1        2.397   1.425  -0.013  0.00  0.00    -0.040 A 
ATOM      9  C   LIG    1        2.402   0.044  -0.021  0.00  0.00    +0.100 A 
ATOM     10  C   LIG    1        1.212  -0.667  -0.013  0.00  0.00    -0.010 A 
ATOM     11  C   LIG    1        0.002  -0.004   0.002  0.00  0.00    +0.140 A 
ATOM     12  O   LIG    1       -0.039   5.354   0.032  0.00  0.00    -0.540 OA
ATOM     13  C   LIG    1       -0.017   1.388   0.010  0.00  0.00    -0.200 A 
ENDROOT
BRANCH   6  14
ATOM     14  C   LIG    1        2.387   4.265   0.003  0.00  0.00    +0.360 C 
BRANCH  14  15
ATOM     15  C   LIG    1        2.801   4.538  -1.421  0.00  0.00    +0.500 C 
ATOM     16  N   LIG    1        3.925   5.236  -1.674  0.00  0.00    -0.610 N 
ATOM     17  C   LIG    1        4.769   5.745  -0.581  0.00  0.00    +0.250 C 
ATOM     18  C   LIG    1        6.218   5.318  -0.841  0.00  0.00    +0.220 C 
ATOM     19  O   LIG    1        6.593   5.697  -2.168  0.00  0.00    -0.370 OA
ATOM     20  C   LIG    1        5.815   5.075  -3.190  0.00  0.00    +0.150 C 
ATOM     21  C   LIG    1        6.356   5.439  -4.569  0.00  0.00    +0.050 C 
ATOM     22  C   LIG    1        6.247   6.949  -4.790  0.00  0.00    +0.020 C 
ATOM     23  C   LIG    1        4.778   7.367  -4.689  0.00  0.00    +0.010 C 
ATOM     24  C   LIG    1        4.251   7.026  -3.295  0.00  0.00    +0.010 C 
ATOM     25  C   LIG    1        4.358   5.512  -3.057  0.00  0.00    +0.230 C 
ATOM     26  O   LIG    1        2.121   4.128  -2.338  0.00  0.00    -0.520 OA
ENDBRANCH  14  15
ENDBRANCH   6  14
TORSDOF 2
