REMARK  Name = ZINCpe00000gN06r.0
REMARK                            x       y       z     vdW  Elec       q    Type
REMARK                         _______ _______ _______ _____ _____    ______ ____
ROOT
ATOM      1  N   LIG    1       -2.566   2.883   4.620  0.00  0.00    -0.610 N 
ATOM      2  C   LIG    1       -1.807   3.022   5.871  0.00  0.00    +0.300 C 
ATOM      3  C   LIG    1       -1.997   4.445   6.407  0.00  0.00    +0.030 C 
ATOM      4  C   LIG    1       -3.493   4.739   6.543  0.00  0.00    +0.020 C 
ATOM      5  C   LIG    1       -4.160   4.647   5.168  0.00  0.00    +0.240 C 
ATOM      6  C   LIG    1       -3.993   3.233   4.617  0.00  0.00    +0.280 C 
ENDROOT
BRANCH   1  11
ATOM      7  C   LIG    1       -0.119   1.124  -0.064  0.00  0.00    +0.330 C 
ATOM      8  N   LIG    1       -0.752   1.577   1.177  0.00  0.00    -0.560 N 
ATOM      9  C   LIG    1       -0.322   1.098   2.361  0.00  0.00    +0.560 A 
ATOM     10  C   LIG    1       -0.927   1.539   3.548  0.00  0.00    -0.200 A 
ATOM     11  C   LIG    1       -1.952   2.440   3.476  0.00  0.00    +0.470 A 
ATOM     12  N   LIG    1       -2.363   2.898   2.248  0.00  0.00    -0.650 N 
ATOM     13  H   LIG    1       -3.090   3.538   2.190  0.00  0.00    +0.430 HD
ATOM     14  O   LIG    1        0.591   0.291   2.400  0.00  0.00    -0.530 OA
ATOM     15  C   LIG    1       -1.763   2.464   1.125  0.00  0.00    +0.710 A 
ATOM     16  O   LIG    1       -2.139   2.879   0.046  0.00  0.00    -0.540 OA
ENDBRANCH   1  11
BRANCH   5  17
ATOM     17  N   LIG    1       -5.585   4.960   5.295  0.00  0.00    -0.700 N 
ATOM     18  H   LIG    1       -6.231   4.244   5.399  0.00  0.00    +0.410 HD
BRANCH  17  19
ATOM     19  C   LIG    1       -6.011   6.277   5.266  0.00  0.00    +0.470 A 
ATOM     20  N   LIG    1       -5.136   7.255   5.130  0.00  0.00    -0.570 NA
ATOM     21  C   LIG    1       -5.525   8.537   5.095  0.00  0.00    +0.260 A 
ATOM     22  C   LIG    1       -6.819   8.883   5.207  0.00  0.00    +0.090 A 
ATOM     23  N   LIG    1       -7.782   7.907   5.356  0.00  0.00    -0.320 N 
ATOM     24  C   LIG    1       -9.131   7.955   5.489  0.00  0.00    +0.150 A 
ATOM     25  C   LIG    1       -9.607   6.690   5.606  0.00  0.00    -0.010 A 
ATOM     26  C   LIG    1       -8.521   5.813   5.544  0.00  0.00    -0.010 A 
ATOM     27  C   LIG    1       -7.387   6.585   5.388  0.00  0.00    -0.050 A 
ENDBRANCH  17  19
ENDBRANCH   5  17
TORSDOF 3
