REMARK  Name = ZINCpk00000y6uGx.0
REMARK                            x       y       z     vdW  Elec       q    Type
REMARK                         _______ _______ _______ _____ _____    ______ ____
ROOT
ATOM      1  C   LIG    1        1.704   0.314  -1.701  0.00  0.00    +0.330 C 
ATOM      2  C   LIG    1        1.084   1.308  -2.689  0.00  0.00    +0.240 C 
ATOM      3  O   LIG    1       -0.009   1.978  -2.058  0.00  0.00    -0.370 OA
ATOM      4  C   LIG    1       -1.082   1.115  -1.673  0.00  0.00    +0.220 C 
ATOM      5  C   LIG    1       -0.573   0.110  -0.633  0.00  0.00    +0.270 C 
ATOM      6  N   LIG    1        0.632  -0.542  -1.169  0.00  0.00    -0.610 N 
ATOM      7  C   LIG    1        0.750  -1.885  -1.174  0.00  0.00    +0.570 C 
ATOM      8  O   LIG    1        1.708  -2.409  -1.708  0.00  0.00    -0.520 OA
ENDROOT
BRANCH   7   9
ATOM      9  C   LIG    1       -0.285  -2.719  -0.532  0.00  0.00    -0.160 A 
ATOM     10  C   LIG    1       -0.969  -2.245   0.591  0.00  0.00    +0.080 A 
ATOM     11  C   LIG    1       -1.937  -3.023   1.185  0.00  0.00    -0.020 A 
ATOM     12  C   LIG    1       -2.227  -4.285   0.676  0.00  0.00    +0.190 A 
ATOM     13  N   LIG    1       -3.202  -5.074   1.283  0.00  0.00    -0.660 N 
ATOM     14  H   LIG    1       -3.856  -4.664   1.871  0.00  0.00    +0.410 HD
ATOM     15  C   LIG    1       -3.246  -6.400   1.060  0.00  0.00    +0.520 C 
ATOM     16  C   LIG    1       -2.234  -7.065   0.166  0.00  0.00    +0.080 C 
ATOM     17  C   LIG    1       -1.863  -6.129  -0.986  0.00  0.00    +0.110 C 
ATOM     18  O   LIG    1       -4.110  -7.068   1.586  0.00  0.00    -0.520 OA
ATOM     19  C   LIG    1       -1.544  -4.762  -0.439  0.00  0.00    -0.130 A 
ATOM     20  C   LIG    1       -0.579  -3.987  -1.041  0.00  0.00    +0.120 A 
ENDBRANCH   7   9
BRANCH   1  24
ATOM     21  C   LIG    1        5.886  -2.179  -2.876  0.00  0.00    +0.240 C 
ATOM     22  C   LIG    1        4.501  -1.584  -2.893  0.00  0.00    +0.180 A 
ATOM     23  N   LIG    1        3.967  -0.822  -1.970  0.00  0.00    -0.480 NA
ATOM     24  C   LIG    1        2.728  -0.535  -2.409  0.00  0.00    +0.190 A 
ATOM     25  N   LIG    1        2.578  -1.121  -3.559  0.00  0.00    -0.370 NA
ATOM     26  O   LIG    1        3.585  -1.729  -3.856  0.00  0.00    +0.080 OA
ENDBRANCH   1  24
TORSDOF 2
