REMARK  Name = ZINCvU0000000AIL.0
REMARK                            x       y       z     vdW  Elec       q    Type
REMARK                         _______ _______ _______ _____ _____    ______ ____
ROOT
ATOM      1  N   LIG    1       -2.696   5.315  -1.488  0.00  0.00    -0.450 N 
ATOM      2  C   LIG    1       -1.277   5.559  -1.196  0.00  0.00    +0.260 C 
ENDROOT
BRANCH   1   3
ATOM      3  C   LIG    1       -2.986   3.961  -1.444  0.00  0.00    +0.420 A 
ATOM      4  C   LIG    1       -2.277   3.052  -2.247  0.00  0.00    -0.280 A 
ATOM      5  S   LIG    1       -0.977   3.290  -3.405  0.00  0.00    +0.190 S 
ATOM      6  C   LIG    1       -0.908   1.570  -3.752  0.00  0.00    -0.090 A 
ATOM      7  C   LIG    1       -1.815   0.907  -3.025  0.00  0.00    +0.040 A 
ATOM      8  C   LIG    1       -2.603   1.695  -2.177  0.00  0.00    +0.190 A 
ATOM      9  N   LIG    1       -3.594   1.326  -1.332  0.00  0.00    -0.510 NA
ATOM     10  C   LIG    1       -4.230   2.212  -0.607  0.00  0.00    +0.530 A 
ATOM     11  N   LIG    1       -3.949   3.502  -0.653  0.00  0.00    -0.560 NA
BRANCH   6  12
ATOM     12  C   LIG    1        0.022   0.942  -4.714  0.00  0.00    -0.040 A 
ATOM     13  C   LIG    1       -0.002  -0.440  -4.911  0.00  0.00    +0.080 A 
ATOM     14  C   LIG    1        0.865  -1.020  -5.813  0.00  0.00    -0.010 A 
ATOM     15  C   LIG    1        1.766  -0.236  -6.515  0.00  0.00    +0.110 A 
ATOM     16  C   LIG    1        1.798   1.136  -6.319  0.00  0.00    -0.010 A 
ATOM     17  F   LIG    1        2.617  -0.810  -7.393  0.00  0.00    -0.130 F 
ATOM     18  C   LIG    1        0.932   1.727  -5.423  0.00  0.00    +0.070 A 
ENDBRANCH   6  12
ENDBRANCH   1   3
BRANCH   1  19
ATOM     19  C   LIG    1       -3.560   6.068  -0.569  0.00  0.00    +0.270 C 
BRANCH  19  22
ATOM     20  N   LIG    1       -4.090   8.436  -0.087  0.00  0.00    -0.670 N 
ATOM     21  H   LIG    1       -4.739   8.126   0.563  0.00  0.00    +0.410 HD
ATOM     22  C   LIG    1       -3.391   7.545  -0.818  0.00  0.00    +0.510 C 
ATOM     23  O   LIG    1       -2.627   7.932  -1.677  0.00  0.00    -0.500 OA
BRANCH  20  28
ATOM     24  C   LIG    1       -3.231  13.996  -0.813  0.00  0.00    +0.090 C 
ATOM     25  C   LIG    1       -3.459  12.519  -0.620  0.00  0.00    -0.080 A 
ATOM     26  C   LIG    1       -4.742  12.006  -0.681  0.00  0.00    +0.010 A 
ATOM     27  C   LIG    1       -4.954  10.652  -0.505  0.00  0.00    -0.090 A 
ATOM     28  C   LIG    1       -3.878   9.807  -0.266  0.00  0.00    +0.130 A 
ATOM     29  C   LIG    1       -2.592  10.327  -0.200  0.00  0.00    -0.070 A 
ATOM     30  C   LIG    1       -1.422   9.415   0.065  0.00  0.00    +0.080 C 
ATOM     31  C   LIG    1       -6.352  10.093  -0.572  0.00  0.00    +0.090 C 
ATOM     32  C   LIG    1       -2.386  11.681  -0.382  0.00  0.00    +0.020 A 
ENDBRANCH  20  28
ENDBRANCH  19  22
ENDBRANCH   1  19
TORSDOF 5
