REMARK  Name = ZINCpk00001AZj1V.0
REMARK                            x       y       z     vdW  Elec       q    Type
REMARK                         _______ _______ _______ _____ _____    ______ ____
ROOT
ATOM      1  C   LIG    1       -0.013   1.086   0.008  0.00  0.00    +0.060 C 
ATOM      2  C   LIG    1       -0.729   1.579   1.267  0.00  0.00    +0.270 C 
ENDROOT
BRANCH   2   3
ATOM      3  C   LIG    1       -0.749   3.086   1.275  0.00  0.00    +0.510 C 
ATOM      4  N   LIG    1        0.409   3.776   1.268  0.00  0.00    -0.510 N 
ATOM      5  H   LIG    1        1.255   3.302   1.257  0.00  0.00    +0.440 HD
ATOM      6  O   LIG    1       -1.808   3.678   1.288  0.00  0.00    -0.520 OA
BRANCH   4   7
ATOM      7  N   LIG    1        0.390   5.177   1.276  0.00  0.00    -0.520 N 
ATOM      8  H   LIG    1       -0.457   5.650   1.286  0.00  0.00    +0.430 HD
ATOM      9  C   LIG    1        1.548   5.866   1.268  0.00  0.00    +0.600 C 
ATOM     10  O   LIG    1        2.610   5.272   1.255  0.00  0.00    -0.520 OA
BRANCH   9  11
ATOM     11  C   LIG    1        1.528   7.332   1.276  0.00  0.00    -0.280 A 
ATOM     12  C   LIG    1        2.630   8.140   1.270  0.00  0.00    +0.120 A 
ATOM     13  C   LIG    1        2.322   9.479   1.280  0.00  0.00    +0.000 A 
ATOM     14  C   LIG    1        1.014   9.761   1.294  0.00  0.00    -0.050 A 
ATOM     15  S   LIG    1        0.082   8.332   1.288  0.00  0.00    +0.210 S 
ENDBRANCH   9  11
ENDBRANCH   4   7
ENDBRANCH   2   3
BRANCH   2  16
ATOM     16  N   LIG    1       -2.103   1.072   1.277  0.00  0.00    -1.100 NA
ATOM     17  H   LIG    1       -2.801   1.552   0.805  0.00  0.00    +0.430 HD
BRANCH  16  18
ATOM     18  S   LIG    1       -2.466  -0.321   2.096  0.00  0.00    +2.690 S 
ATOM     19  O   LIG    1       -1.495  -1.282   1.703  0.00  0.00    -0.950 OA
ATOM     20  O   LIG    1       -3.864  -0.523   1.945  0.00  0.00    -0.960 OA
BRANCH  18  21
ATOM     21  C   LIG    1       -2.190  -0.007   3.808  0.00  0.00    -0.600 C 
ATOM     22  C   LIG    1       -3.207  -0.027   4.657  0.00  0.00    +0.220 C 
BRANCH  22  23
ATOM     23  C   LIG    1       -2.976   0.236   6.093  0.00  0.00    -0.100 A 
ATOM     24  C   LIG    1       -1.687   0.501   6.558  0.00  0.00    +0.040 A 
ATOM     25  C   LIG    1       -1.479   0.753   7.899  0.00  0.00    +0.000 A 
ATOM     26  C   LIG    1       -2.543   0.731   8.783  0.00  0.00    +0.030 A 
ATOM     27  C   LIG    1       -3.822   0.463   8.329  0.00  0.00    +0.000 A 
ATOM     28  C   LIG    1       -4.045   0.216   6.990  0.00  0.00    +0.040 A 
ENDBRANCH  22  23
ENDBRANCH  18  21
ENDBRANCH  16  18
ENDBRANCH   2  16
TORSDOF 7
