REMARK  Name = ZINCrD00000lbbN1.0
REMARK                            x       y       z     vdW  Elec       q    Type
REMARK                         _______ _______ _______ _____ _____    ______ ____
ROOT
ATOM      1  C   LIG    1        7.408  -0.040  -0.253  0.00  0.00    +0.460 C 
ATOM      2  O   LIG    1        7.496   1.162  -0.345  0.00  0.00    -0.500 OA
ENDROOT
BRANCH   1   3
ATOM      3  C   LIG    1        8.653  -0.889  -0.251  0.00  0.00    +0.370 C 
BRANCH   3   5
ATOM      4  C   LIG    1       11.065  -0.572  -0.393  0.00  0.00    +0.570 C 
ATOM      5  N   LIG    1        9.832  -0.028  -0.372  0.00  0.00    -0.720 N 
ATOM      6  H   LIG    1        9.725   0.934  -0.437  0.00  0.00    +0.410 HD
ATOM      7  O   LIG    1       11.198  -1.778  -0.311  0.00  0.00    -0.530 OA
BRANCH   4  12
ATOM      8  C   LIG    1       15.695   2.811  -0.869  0.00  0.00    +0.100 C 
ATOM      9  C   LIG    1       14.483   1.925  -0.745  0.00  0.00    -0.060 A 
ATOM     10  C   LIG    1       14.638   0.553  -0.651  0.00  0.00    +0.000 A 
ATOM     11  C   LIG    1       13.532  -0.264  -0.536  0.00  0.00    +0.090 A 
ATOM     12  C   LIG    1       12.254   0.297  -0.514  0.00  0.00    -0.150 A 
ATOM     13  C   LIG    1       12.104   1.681  -0.615  0.00  0.00    +0.050 A 
ATOM     14  C   LIG    1       13.219   2.487  -0.724  0.00  0.00    +0.000 A 
ENDBRANCH   4  12
ENDBRANCH   3   5
ENDBRANCH   1   3
BRANCH   1  15
ATOM     15  O   LIG    1        6.201  -0.618  -0.151  0.00  0.00    -0.330 OA
BRANCH  15  16
ATOM     16  C   LIG    1        5.046   0.262  -0.159  0.00  0.00    +0.240 C 
BRANCH  16  17
ATOM     17  C   LIG    1        3.788  -0.559  -0.037  0.00  0.00    +0.400 C 
ATOM     18  O   LIG    1        3.858  -1.768   0.048  0.00  0.00    -0.420 OA
BRANCH  17  19
ATOM     19  C   LIG    1        2.479   0.102  -0.021  0.00  0.00    -0.170 A 
ATOM     20  C   LIG    1        2.384   1.491  -0.001  0.00  0.00    +0.080 A 
ATOM     21  C   LIG    1        1.144   2.113   0.015  0.00  0.00    -0.010 A 
ATOM     22  C   LIG    1       -0.017   1.401   0.010  0.00  0.00    +0.070 A 
ATOM     23  C   LIG    1        0.002  -0.004  -0.011  0.00  0.00    -0.070 A 
ATOM     24  C   LIG    1       -1.188  -0.751  -0.016  0.00  0.00    +0.030 A 
ATOM     25  C   LIG    1       -1.130  -2.111  -0.036  0.00  0.00    +0.010 A 
ATOM     26  C   LIG    1        0.093  -2.776  -0.052  0.00  0.00    +0.030 A 
ATOM     27  C   LIG    1        1.268  -2.082  -0.047  0.00  0.00    +0.040 A 
ATOM     28  C   LIG    1        1.244  -0.684  -0.027  0.00  0.00    -0.010 A 
ENDBRANCH  17  19
ENDBRANCH  16  17
ENDBRANCH  15  16
ENDBRANCH   1  15
TORSDOF 7
