REMARK  Name = ZINCpe00000gMXNO.0
REMARK                            x       y       z     vdW  Elec       q    Type
REMARK                         _______ _______ _______ _____ _____    ______ ____
ROOT
ATOM      1  N   LIG    1       -0.025   5.497  -2.594  0.00  0.00    -0.750 N 
ATOM      2  H   LIG    1       -0.913   5.122  -2.702  0.00  0.00    +0.390 HD
ATOM      3  C   LIG    1        0.776   5.060  -1.603  0.00  0.00    +0.710 C 
ATOM      4  N   LIG    1        0.386   4.031  -0.825  0.00  0.00    -0.630 N 
ATOM      5  C   LIG    1        1.289   3.467   0.190  0.00  0.00    +0.320 C 
ATOM      6  C   LIG    1        1.350   1.948  -0.003  0.00  0.00    +0.180 C 
ATOM      7  N   LIG    1       -0.014   1.402   0.006  0.00  0.00    -0.460 N 
ATOM      8  C   LIG    1       -0.805   1.924  -1.116  0.00  0.00    +0.180 C 
ATOM      9  C   LIG    1       -0.954   3.442  -0.969  0.00  0.00    +0.280 C 
ATOM     10  O   LIG    1        1.852   5.594  -1.411  0.00  0.00    -0.590 OA
ENDROOT
BRANCH   7  11
ATOM     11  C   LIG    1        0.007  -0.006  -0.003  0.00  0.00    -0.050 A 
ATOM     12  C   LIG    1       -1.078  -0.821   0.002  0.00  0.00    +0.220 A 
ATOM     13  N   LIG    1       -0.628  -2.104  -0.011  0.00  0.00    -0.370 N 
ATOM     14  N   LIG    1        0.772  -2.067  -0.024  0.00  0.00    -0.280 NA
ATOM     15  C   LIG    1       -1.459  -3.310  -0.011  0.00  0.00    +0.360 C 
ATOM     16  C   LIG    1        1.152  -0.815  -0.024  0.00  0.00    +0.200 A 
ENDBRANCH   7  11
BRANCH   1  17
ATOM     17  C   LIG    1        0.445   6.540  -3.510  0.00  0.00    +0.280 C 
BRANCH  17  18
ATOM     18  C   LIG    1       -0.649   6.851  -4.533  0.00  0.00    +0.100 C 
BRANCH  18  26
ATOM     19  C   LIG    1        0.897   6.379  -7.259  0.00  0.00    +0.150 C 
ATOM     20  C   LIG    1        0.516   7.716  -6.678  0.00  0.00    +0.080 A 
ATOM     21  N   LIG    1        0.766   8.884  -7.213  0.00  0.00    -0.300 NA
ATOM     22  N   LIG    1        0.250   9.873  -6.365  0.00  0.00    -0.370 N 
ATOM     23  C   LIG    1       -0.322   9.258  -5.309  0.00  0.00    +0.090 A 
ATOM     24  C   LIG    1       -1.007   9.935  -4.150  0.00  0.00    +0.140 C 
ATOM     25  C   LIG    1        0.315  11.319  -6.588  0.00  0.00    +0.350 C 
ATOM     26  C   LIG    1       -0.167   7.924  -5.475  0.00  0.00    -0.240 A 
ENDBRANCH  18  26
ENDBRANCH  17  18
ENDBRANCH   1  17
TORSDOF 4
