REMARK  Name = ZINCvU0000000D49.1
REMARK                            x       y       z     vdW  Elec       q    Type
REMARK                         _______ _______ _______ _____ _____    ______ ____
ROOT
ATOM      1  C   LIG    1        2.940  -2.724   0.295  0.00  0.00    +0.060 C 
ATOM      2  S   LIG    1        3.868  -1.155   0.244  0.00  0.00    +0.070 S 
ATOM      3  C   LIG    1        2.419  -0.140   0.139  0.00  0.00    +0.380 C 
ATOM      4  N   LIG    1        1.334  -0.973   0.138  0.00  0.00    -0.680 N 
ATOM      5  H   LIG    1        0.440  -0.601   0.082  0.00  0.00    +0.420 HD
ATOM      6  N   LIG    1        2.392   1.170   0.070  0.00  0.00    -0.480 NA
ATOM      7  C   LIG    1        1.497  -2.283   0.213  0.00  0.00    +0.540 C 
ATOM      8  O   LIG    1        0.569  -3.063   0.215  0.00  0.00    -0.470 OA
ENDROOT
BRANCH   6   9
ATOM      9  C   LIG    1        1.205   1.821  -0.136  0.00  0.00    +0.150 A 
ATOM     10  C   LIG    1        0.356   1.420  -1.170  0.00  0.00    -0.040 A 
ATOM     11  C   LIG    1       -0.836   2.084  -1.376  0.00  0.00    +0.080 A 
ATOM     12  C   LIG    1       -1.196   3.137  -0.554  0.00  0.00    +0.010 A 
ATOM     13  C   LIG    1       -0.359   3.539   0.473  0.00  0.00    +0.100 A 
ATOM     14  C   LIG    1        0.838   2.888   0.686  0.00  0.00    -0.180 A 
BRANCH  14  15
ATOM     15  C   LIG    1        1.748   3.328   1.804  0.00  0.00    +0.520 C 
ATOM     16  F   LIG    1        2.982   3.720   1.274  0.00  0.00    -0.170 F 
ATOM     17  F   LIG    1        1.939   2.267   2.695  0.00  0.00    -0.180 F 
ATOM     18  F   LIG    1        1.168   4.406   2.481  0.00  0.00    -0.180 F 
ENDBRANCH  14  15
ENDBRANCH   6   9
BRANCH   1  19
ATOM     19  C   LIG    1        3.201  -3.472   1.604  0.00  0.00    +0.130 C 
BRANCH  19  21
ATOM     20  O   LIG    1        5.335  -3.807   0.653  0.00  0.00    -0.510 OA
ATOM     21  C   LIG    1        4.610  -4.005   1.605  0.00  0.00    +0.520 C 
ATOM     22  N   LIG    1        5.066  -4.703   2.665  0.00  0.00    -0.670 N 
ATOM     23  H   LIG    1        4.465  -4.924   3.394  0.00  0.00    +0.410 HD
BRANCH  22  24
ATOM     24  C   LIG    1        6.403  -5.109   2.712  0.00  0.00    +0.150 A 
ATOM     25  C   LIG    1        7.069  -5.122   3.918  0.00  0.00    -0.010 A 
ATOM     26  C   LIG    1        8.412  -5.530   3.962  0.00  0.00    -0.030 A 
ATOM     27  C   LIG    1        9.125  -5.556   5.172  0.00  0.00    +0.020 A 
ATOM     28  C   LIG    1       10.427  -5.956   5.179  0.00  0.00    +0.010 A 
ATOM     29  C   LIG    1       11.064  -6.342   4.002  0.00  0.00    +0.000 A 
ATOM     30  C   LIG    1       10.404  -6.330   2.811  0.00  0.00    +0.030 A 
ATOM     31  C   LIG    1        9.061  -5.922   2.764  0.00  0.00    -0.060 A 
ATOM     32  C   LIG    1        8.351  -5.897   1.550  0.00  0.00    +0.040 A 
ATOM     33  C   LIG    1        7.050  -5.503   1.535  0.00  0.00    +0.030 A 
ENDBRANCH  22  24
ENDBRANCH  19  21
ENDBRANCH   1  19
TORSDOF 5
