REMARK  Name = ZINCqH0000006iCP.0
REMARK                            x       y       z     vdW  Elec       q    Type
REMARK                         _______ _______ _______ _____ _____    ______ ____
ROOT
ATOM      1  C   LIG    1       -1.020   7.616   0.053  0.00  0.00    +0.450 C 
ATOM      2  O   LIG    1       -2.229   7.721   0.065  0.00  0.00    -0.460 OA
ENDROOT
BRANCH   1   6
ATOM      3  N   LIG    1        0.479  10.924   0.059  0.00  0.00    -0.430 N 
ATOM      4  C   LIG    1        1.618  10.172   0.043  0.00  0.00    +0.010 A 
ATOM      5  C   LIG    1        1.287   8.870   0.039  0.00  0.00    +0.000 A 
ATOM      6  C   LIG    1       -0.181   8.816   0.052  0.00  0.00    -0.260 A 
ATOM      7  C   LIG    1        3.024  10.716   0.033  0.00  0.00    +0.130 C 
ATOM      8  C   LIG    1       -0.607  10.131   0.058  0.00  0.00    +0.120 A 
ATOM      9  C   LIG    1       -2.041  10.595   0.067  0.00  0.00    +0.150 C 
BRANCH   3  10
ATOM     10  C   LIG    1        0.445  12.389   0.067  0.00  0.00    +0.310 C 
BRANCH  10  11
ATOM     11  C   LIG    1        0.419  12.907  -1.372  0.00  0.00    +0.170 C 
BRANCH  11  13
ATOM     12  C   LIG    1        0.359  14.924  -2.666  0.00  0.00    +0.210 C 
ATOM     13  O   LIG    1        0.385  14.335  -1.364  0.00  0.00    -0.390 OA
ENDBRANCH  11  13
ENDBRANCH  10  11
ENDBRANCH   3  10
ENDBRANCH   1   6
BRANCH   1  14
ATOM     14  C   LIG    1       -0.382   6.251   0.040  0.00  0.00    +0.090 C 
BRANCH  14  15
ATOM     15  S   LIG    1       -1.673   4.982   0.045  0.00  0.00    +0.130 S 
BRANCH  15  16
ATOM     16  C   LIG    1       -0.675   3.530   0.028  0.00  0.00    +0.120 A 
ATOM     17  N   LIG    1        0.638   3.489   0.015  0.00  0.00    -0.290 NA
ATOM     18  N   LIG    1        1.028   2.264   0.004  0.00  0.00    -0.260 NA
ATOM     19  C   LIG    1       -0.018   1.473   0.010  0.00  0.00    +0.210 A 
ATOM     20  O   LIG    1       -1.118   2.259   0.019  0.00  0.00    -0.200 OA
BRANCH  19  21
ATOM     21  C   LIG    1        0.002  -0.004   0.002  0.00  0.00    -0.030 A 
ATOM     22  C   LIG    1       -1.196  -0.722   0.015  0.00  0.00    +0.050 A 
ATOM     23  C   LIG    1       -1.170  -2.101   0.000  0.00  0.00    +0.010 A 
ATOM     24  C   LIG    1        0.040  -2.773  -0.014  0.00  0.00    +0.040 A 
ATOM     25  C   LIG    1        1.230  -2.068  -0.020  0.00  0.00    +0.020 A 
ATOM     26  C   LIG    1        1.219  -0.689  -0.013  0.00  0.00    +0.070 A 
ENDBRANCH  19  21
ENDBRANCH  15  16
ENDBRANCH  14  15
ENDBRANCH   1  14
TORSDOF 8
