REMARK  Name = ZINCc70000002z9e.0
REMARK                            x       y       z     vdW  Elec       q    Type
REMARK                         _______ _______ _______ _____ _____    ______ ____
ROOT
ATOM      1  C   LIG    1        0.002  -0.004   0.002  0.00  0.00    -0.230 A 
ATOM      2  C   LIG    1       -0.017   1.391   0.010  0.00  0.00    +0.390 A 
ATOM      3  N   LIG    1        1.106   2.080   0.003  0.00  0.00    -0.540 NA
ATOM      4  C   LIG    1        2.290   1.486  -0.012  0.00  0.00    +0.420 A 
ATOM      5  C   LIG    1        2.393   0.091  -0.020  0.00  0.00    -0.030 A 
ATOM      6  C   LIG    1        1.239  -0.670  -0.013  0.00  0.00    +0.160 A 
ENDROOT
BRANCH   4   7
ATOM      7  N   LIG    1        3.442   2.257  -0.019  0.00  0.00    -0.830 N 
ATOM      8  H   LIG    1        3.378   3.225  -0.013  0.00  0.00    +0.410 HD
ATOM      9  H   LIG    1        4.312   1.828  -0.029  0.00  0.00    +0.420 HD
ENDBRANCH   4   7
BRANCH   1  10
ATOM     10  C   LIG    1       -1.258  -0.769   0.009  0.00  0.00    +0.520 C 
ATOM     11  O   LIG    1       -1.232  -1.984   0.003  0.00  0.00    -0.510 OA
BRANCH  10  13
ATOM     12  C   LIG    1       -3.640  -0.938   0.030  0.00  0.00    +0.260 C 
ATOM     13  O   LIG    1       -2.439  -0.120   0.024  0.00  0.00    -0.360 OA
ENDBRANCH  10  13
ENDBRANCH   1  10
BRANCH   5  14
ATOM     14  O   LIG    1        3.613  -0.510  -0.036  0.00  0.00    -0.480 OA
ATOM     15  H   LIG    1        3.957  -0.678  -0.923  0.00  0.00    +0.390 HD
ENDBRANCH   5  14
TORSDOF 4
