REMARK  Name = ZINCvU0000000CAv.0
REMARK                            x       y       z     vdW  Elec       q    Type
REMARK                         _______ _______ _______ _____ _____    ______ ____
ROOT
ATOM      1  N   LIG    1       -6.011   1.333  -0.337  0.00  0.00    -0.460 N 
ATOM      2  C   LIG    1       -4.780   0.912   0.016  0.00  0.00    +0.530 C 
ATOM      3  O   LIG    1       -3.812   1.602  -0.222  0.00  0.00    -0.460 OA
ENDROOT
BRANCH   2   4
ATOM      4  C   LIG    1       -4.608  -0.416   0.707  0.00  0.00    +0.170 C 
ATOM      5  C   LIG    1       -4.944  -1.554  -0.268  0.00  0.00    +0.250 C 
ATOM      6  O   LIG    1       -4.757  -2.799   0.415  0.00  0.00    -0.290 OA
ATOM      7  C   LIG    1       -3.611  -2.935   1.136  0.00  0.00    +0.050 A 
ATOM      8  C   LIG    1       -3.193  -4.201   1.518  0.00  0.00    +0.030 A 
ATOM      9  C   LIG    1       -2.033  -4.355   2.254  0.00  0.00    +0.030 A 
ATOM     10  C   LIG    1       -1.287  -3.248   2.613  0.00  0.00    +0.030 A 
ATOM     11  C   LIG    1       -1.698  -1.983   2.235  0.00  0.00    +0.030 A 
ATOM     12  C   LIG    1       -2.862  -1.821   1.500  0.00  0.00    +0.050 A 
ATOM     13  O   LIG    1       -3.247  -0.571   1.124  0.00  0.00    -0.280 OA
ENDBRANCH   2   4
BRANCH   1  14
ATOM     14  C   LIG    1       -6.161   2.507  -1.060  0.00  0.00    +0.310 A 
ATOM     15  N   LIG    1       -7.278   2.944  -1.528  0.00  0.00    -0.490 NA
ATOM     16  C   LIG    1       -7.265   4.107  -2.209  0.00  0.00    +0.100 A 
ATOM     17  C   LIG    1       -8.343   4.790  -2.811  0.00  0.00    +0.060 A 
ATOM     18  C   LIG    1       -8.133   5.973  -3.474  0.00  0.00    +0.040 A 
ATOM     19  C   LIG    1       -6.859   6.515  -3.564  0.00  0.00    +0.030 A 
ATOM     20  C   LIG    1       -5.792   5.866  -2.984  0.00  0.00    +0.060 A 
ATOM     21  C   LIG    1       -5.986   4.665  -2.308  0.00  0.00    -0.210 A 
ATOM     22  S   LIG    1       -4.852   3.606  -1.473  0.00  0.00    +0.170 S 
ENDBRANCH   1  14
BRANCH   1  26
ATOM     23  C   LIG    1       -9.367  -0.893   0.747  0.00  0.00    +0.150 A 
ATOM     24  C   LIG    1       -9.001  -0.796  -0.587  0.00  0.00    +0.000 A 
ATOM     25  C   LIG    1       -7.890  -0.059  -0.947  0.00  0.00    +0.090 A 
ATOM     26  C   LIG    1       -7.140   0.585   0.028  0.00  0.00    +0.060 A 
ATOM     27  C   LIG    1       -7.504   0.483   1.364  0.00  0.00    +0.060 A 
ATOM     28  C   LIG    1       -8.618  -0.250   1.721  0.00  0.00    -0.050 A 
BRANCH  23  29
ATOM     29  O   LIG    1      -10.461  -1.619   1.100  0.00  0.00    -0.310 OA
BRANCH  29  31
ATOM     30  C   LIG    1      -12.033  -2.531   2.693  0.00  0.00    +0.070 C 
ATOM     31  C   LIG    1      -10.781  -1.676   2.492  0.00  0.00    +0.190 C 
ENDBRANCH  29  31
ENDBRANCH  23  29
ENDBRANCH   1  26
TORSDOF 5
