REMARK  Name = ZINCvU0000000CAv.1
REMARK                            x       y       z     vdW  Elec       q    Type
REMARK                         _______ _______ _______ _____ _____    ______ ____
ROOT
ATOM      1  N   LIG    1        2.854  -3.626  -0.221  0.00  0.00    -0.460 N 
ATOM      2  C   LIG    1        4.183  -3.846  -0.221  0.00  0.00    +0.540 C 
ATOM      3  O   LIG    1        4.611  -4.981  -0.203  0.00  0.00    -0.450 OA
ENDROOT
BRANCH   2   4
ATOM      4  C   LIG    1        5.140  -2.682  -0.245  0.00  0.00    +0.150 C 
ATOM      5  C   LIG    1        5.077  -1.933   1.094  0.00  0.00    +0.260 C 
ATOM      6  O   LIG    1        6.004  -0.844   1.043  0.00  0.00    -0.290 OA
ATOM      7  C   LIG    1        7.246  -1.120   0.558  0.00  0.00    +0.040 A 
ATOM      8  C   LIG    1        8.285  -0.236   0.806  0.00  0.00    +0.030 A 
ATOM      9  C   LIG    1        9.551  -0.501   0.318  0.00  0.00    +0.030 A 
ATOM     10  C   LIG    1        9.784  -1.647  -0.419  0.00  0.00    +0.030 A 
ATOM     11  C   LIG    1        8.753  -2.533  -0.669  0.00  0.00    +0.030 A 
ATOM     12  C   LIG    1        7.481  -2.274  -0.181  0.00  0.00    +0.050 A 
ATOM     13  O   LIG    1        6.477  -3.158  -0.430  0.00  0.00    -0.280 OA
ENDBRANCH   2   4
BRANCH   1  14
ATOM     14  C   LIG    1        2.364  -2.337  -0.364  0.00  0.00    +0.290 A 
ATOM     15  N   LIG    1        2.022  -1.568   0.611  0.00  0.00    -0.440 NA
ATOM     16  C   LIG    1        1.561  -0.338   0.312  0.00  0.00    +0.080 A 
ATOM     17  C   LIG    1        1.128   0.680   1.188  0.00  0.00    +0.090 A 
ATOM     18  C   LIG    1        0.687   1.882   0.693  0.00  0.00    +0.030 A 
ATOM     19  C   LIG    1        0.660   2.116  -0.674  0.00  0.00    +0.060 A 
ATOM     20  C   LIG    1        1.079   1.137  -1.548  0.00  0.00    +0.060 A 
ATOM     21  C   LIG    1        1.529  -0.088  -1.064  0.00  0.00    -0.150 A 
ATOM     22  S   LIG    1        2.121  -1.521  -1.902  0.00  0.00    +0.090 S 
ENDBRANCH   1  14
BRANCH   1  26
ATOM     23  C   LIG    1        0.211  -6.825   0.211  0.00  0.00    +0.120 A 
ATOM     24  C   LIG    1       -0.274  -5.560  -0.085  0.00  0.00    +0.010 A 
ATOM     25  C   LIG    1        0.600  -4.500  -0.228  0.00  0.00    +0.040 A 
ATOM     26  C   LIG    1        1.965  -4.702  -0.076  0.00  0.00    +0.100 A 
ATOM     27  C   LIG    1        2.451  -5.970   0.215  0.00  0.00    +0.080 A 
ATOM     28  C   LIG    1        1.575  -7.027   0.363  0.00  0.00    -0.050 A 
BRANCH  23  29
ATOM     29  O   LIG    1       -0.650  -7.868   0.352  0.00  0.00    -0.310 OA
BRANCH  29  31
ATOM     30  C   LIG    1       -1.196 -10.183   0.777  0.00  0.00    +0.070 C 
ATOM     31  C   LIG    1       -0.081  -9.143   0.657  0.00  0.00    +0.170 C 
ENDBRANCH  29  31
ENDBRANCH  23  29
ENDBRANCH   1  26
TORSDOF 5
