REMARK  Name = ZINCpe000000Zufu.0
REMARK                            x       y       z     vdW  Elec       q    Type
REMARK                         _______ _______ _______ _____ _____    ______ ____
ROOT
ATOM      1  O   LIG    1       -0.790  -1.679   1.994  0.00  0.00    -0.490 OA
ATOM      2  C   LIG    1        0.386  -1.384   1.993  0.00  0.00    +0.490 C 
ATOM      3  N   LIG    1        0.875  -0.571   1.036  0.00  0.00    -0.620 N 
ATOM      4  C   LIG    1        0.023  -0.107  -0.069  0.00  0.00    +0.290 C 
ATOM      5  C   LIG    1        0.138   1.418  -0.166  0.00  0.00    +0.220 C 
ATOM      6  N   LIG    1        1.554   1.793  -0.275  0.00  0.00    -0.460 N 
ATOM      7  C   LIG    1        2.303   1.403   0.927  0.00  0.00    +0.210 C 
ATOM      8  C   LIG    1        2.276  -0.123   1.069  0.00  0.00    +0.290 C 
ENDROOT
BRANCH   2   9
ATOM      9  C   LIG    1        1.301  -1.927   3.060  0.00  0.00    +0.230 C 
ATOM     10  N   LIG    1        1.673  -0.849   3.984  0.00  0.00    -0.670 NA
ATOM     11  H   LIG    1        2.510  -0.380   3.674  0.00  0.00    +0.350 HD
ATOM     12  C   LIG    1        0.589   0.105   4.200  0.00  0.00    +0.150 C 
ATOM     13  C   LIG    1       -0.576  -0.467   4.979  0.00  0.00    +0.230 C 
ATOM     14  O   LIG    1       -1.217  -1.513   4.236  0.00  0.00    -0.310 OA
ATOM     15  C   LIG    1       -0.663  -2.747   4.374  0.00  0.00    +0.140 A 
ATOM     16  C   LIG    1       -1.345  -3.744   5.058  0.00  0.00    -0.010 A 
ATOM     17  C   LIG    1       -0.763  -4.987   5.218  0.00  0.00    +0.030 A 
ATOM     18  C   LIG    1        0.493  -5.240   4.700  0.00  0.00    -0.010 A 
ATOM     19  C   LIG    1        1.170  -4.250   4.007  0.00  0.00    +0.040 A 
ATOM     20  C   LIG    1        0.584  -3.013   3.840  0.00  0.00    -0.100 A 
ENDBRANCH   2   9
BRANCH   6  21
ATOM     21  C   LIG    1        1.691   3.147  -0.527  0.00  0.00    +0.490 A 
ATOM     22  N   LIG    1        0.604   3.897  -0.639  0.00  0.00    -0.550 NA
ATOM     23  C   LIG    1        0.700   5.195  -0.874  0.00  0.00    +0.340 A 
ATOM     24  C   LIG    1        1.956   5.766  -1.014  0.00  0.00    -0.110 A 
ATOM     25  C   LIG    1        3.071   4.952  -0.897  0.00  0.00    +0.350 A 
ATOM     26  N   LIG    1        2.905   3.662  -0.656  0.00  0.00    -0.530 NA
ENDBRANCH   6  21
TORSDOF 2
