REMARK  Name = ZINCpk00000KfLg9.0
REMARK                            x       y       z     vdW  Elec       q    Type
REMARK                         _______ _______ _______ _____ _____    ______ ____
ROOT
ATOM      1  C   LIG    1        0.855  -0.483  -1.172  0.00  0.00    +0.220 C 
ATOM      2  C   LIG    1        2.240   0.164  -1.091  0.00  0.00    +0.020 C 
ATOM      3  C   LIG    1        2.100   1.685  -1.183  0.00  0.00    +0.030 C 
ATOM      4  C   LIG    1        1.261   2.189  -0.004  0.00  0.00    +0.260 C 
ATOM      5  N   LIG    1       -0.018   1.465   0.010  0.00  0.00    -0.630 N 
ATOM      6  C   LIG    1       -1.187   2.136   0.019  0.00  0.00    +0.710 C 
ATOM      7  N   LIG    1       -1.192   3.479   0.128  0.00  0.00    -0.740 N 
ATOM      8  H   LIG    1       -0.355   3.969   0.127  0.00  0.00    +0.400 HD
ATOM      9  O   LIG    1       -2.237   1.529  -0.070  0.00  0.00    -0.580 OA
ATOM     10  C   LIG    1        0.002  -0.004   0.007  0.00  0.00    +0.290 C 
ENDROOT
BRANCH   1  13
ATOM     11  C   LIG    1        0.182  -4.228  -1.594  0.00  0.00    +0.100 C 
ATOM     12  C   LIG    1        0.040  -2.729  -1.652  0.00  0.00    +0.510 C 
ATOM     13  N   LIG    1        0.993  -1.941  -1.115  0.00  0.00    -0.730 N 
ATOM     14  H   LIG    1        1.770  -2.338  -0.692  0.00  0.00    +0.400 HD
ATOM     15  O   LIG    1       -0.931  -2.231  -2.182  0.00  0.00    -0.540 OA
ENDBRANCH   1  13
BRANCH   7  16
ATOM     16  C   LIG    1       -2.462   4.199   0.249  0.00  0.00    +0.280 C 
BRANCH  16  17
ATOM     17  C   LIG    1       -2.188   5.701   0.357  0.00  0.00    +0.270 C 
BRANCH  17  18
ATOM     18  N   LIG    1       -3.458   6.421   0.477  0.00  0.00    -0.730 N 
ATOM     19  H   LIG    1       -4.296   5.931   0.478  0.00  0.00    +0.410 HD
BRANCH  18  20
ATOM     20  C   LIG    1       -3.464   7.807   0.590  0.00  0.00    +0.290 A 
ATOM     21  C   LIG    1       -2.268   8.511   0.594  0.00  0.00    -0.070 A 
ATOM     22  C   LIG    1       -2.274   9.888   0.702  0.00  0.00    +0.130 A 
ATOM     23  C   LIG    1       -3.468  10.578   0.815  0.00  0.00    -0.070 A 
ATOM     24  C   LIG    1       -4.670   9.896   0.818  0.00  0.00    +0.200 A 
ATOM     25  F   LIG    1       -5.833  10.574   0.930  0.00  0.00    -0.130 F 
ATOM     26  C   LIG    1       -4.679   8.501   0.705  0.00  0.00    -0.150 A 
BRANCH  26  27
ATOM     27  C   LIG    1       -5.920   7.786   0.708  0.00  0.00    +0.250 C 
ATOM     28  N   LIG    1       -6.904   7.218   0.710  0.00  0.00    -0.410 NA
ENDBRANCH  26  27
ENDBRANCH  18  20
ENDBRANCH  17  18
ENDBRANCH  16  17
ENDBRANCH   7  16
TORSDOF 6
