REMARK  Name = ZINCqH000000999c.0
REMARK                            x       y       z     vdW  Elec       q    Type
REMARK                         _______ _______ _______ _____ _____    ______ ____
ROOT
ATOM      1  N   LIG    1        4.102   7.325   0.889  0.00  0.00    -0.730 N 
ATOM      2  H   LIG    1        4.678   6.565   1.063  0.00  0.00    +0.400 HD
ATOM      3  C   LIG    1        4.372   8.520   1.452  0.00  0.00    +0.520 C 
ATOM      4  O   LIG    1        3.650   9.470   1.234  0.00  0.00    -0.520 OA
ENDROOT
BRANCH   1   6
ATOM      5  C   LIG    1        3.313   7.597  -1.410  0.00  0.00    +0.040 C 
ATOM      6  C   LIG    1        2.938   7.175   0.012  0.00  0.00    +0.280 C 
BRANCH   6   7
ATOM      7  C   LIG    1        2.494   5.735   0.009  0.00  0.00    -0.100 A 
ATOM      8  C   LIG    1        1.146   5.429   0.021  0.00  0.00    +0.060 A 
ATOM      9  C   LIG    1        0.736   4.109   0.018  0.00  0.00    +0.010 A 
ATOM     10  C   LIG    1        1.679   3.091   0.003  0.00  0.00    +0.140 A 
ATOM     11  C   LIG    1        3.032   3.402  -0.003  0.00  0.00    +0.000 A 
ATOM     12  C   LIG    1        3.436   4.723  -0.006  0.00  0.00    +0.040 A 
BRANCH  10  13
ATOM     13  N   LIG    1        1.266   1.751  -0.001  0.00  0.00    -0.410 N 
ATOM     14  C   LIG    1        2.079   0.647  -0.014  0.00  0.00    +0.120 A 
ATOM     15  C   LIG    1        1.273  -0.431  -0.012  0.00  0.00    +0.160 A 
ATOM     16  N   LIG    1        0.002  -0.004   0.002  0.00  0.00    -0.480 NA
ATOM     17  C   LIG    1       -0.016   1.301   0.009  0.00  0.00    +0.400 A 
ENDBRANCH  10  13
ENDBRANCH   6   7
ENDBRANCH   1   6
BRANCH   3  18
ATOM     18  C   LIG    1        5.569   8.674   2.354  0.00  0.00    +0.100 C 
BRANCH  18  19
ATOM     19  C   LIG    1        5.644  10.095   2.850  0.00  0.00    -0.070 A 
ATOM     20  C   LIG    1        5.006  10.454   4.022  0.00  0.00    +0.020 A 
ATOM     21  C   LIG    1        5.076  11.757   4.474  0.00  0.00    +0.010 A 
ATOM     22  C   LIG    1        5.785  12.706   3.757  0.00  0.00    -0.100 A 
ATOM     23  C   LIG    1        6.011  14.177   4.034  0.00  0.00    +0.070 C 
ATOM     24  C   LIG    1        6.483  14.773   2.690  0.00  0.00    +0.030 C 
ATOM     25  C   LIG    1        7.123  13.553   1.993  0.00  0.00    +0.070 C 
ATOM     26  C   LIG    1        6.424  12.348   2.585  0.00  0.00    -0.100 A 
ATOM     27  C   LIG    1        6.357  11.039   2.136  0.00  0.00    +0.030 A 
ENDBRANCH  18  19
ENDBRANCH   3  18
TORSDOF 5
