REMARK  Name = ZINCrH00000No4UO.0
REMARK                            x       y       z     vdW  Elec       q    Type
REMARK                         _______ _______ _______ _____ _____    ______ ____
ROOT
ATOM      1  N   LIG    1       -0.937   1.396  -0.984  0.00  0.00    -0.510 NA
ENDROOT
BRANCH   1   2
ATOM      2  C   LIG    1        0.190   0.755  -0.295  0.00  0.00    +0.290 C 
BRANCH   2   8
ATOM      3  C   LIG    1        1.490  -0.703  -1.853  0.00  0.00    -0.120 A 
ATOM      4  C   LIG    1        1.739  -1.940  -2.428  0.00  0.00    +0.060 A 
ATOM      5  C   LIG    1        0.948  -3.015  -2.051  0.00  0.00    -0.040 A 
ATOM      6  C   LIG    1       -0.054  -2.819  -1.120  0.00  0.00    +0.250 A 
ATOM      7  N   LIG    1       -0.259  -1.630  -0.589  0.00  0.00    -0.470 NA
ATOM      8  C   LIG    1        0.469  -0.584  -0.928  0.00  0.00    +0.090 A 
BRANCH   3  10
ATOM      9  C   LIG    1        3.505   0.618  -1.268  0.00  0.00    +0.030 C 
ATOM     10  C   LIG    1        2.322   0.495  -2.230  0.00  0.00    +0.060 C 
ENDBRANCH   3  10
ENDBRANCH   2   8
ENDBRANCH   1   2
BRANCH   1  11
ATOM     11  C   LIG    1       -2.146   0.566  -0.902  0.00  0.00    +0.260 C 
BRANCH  11  12
ATOM     12  C   LIG    1       -2.822   0.781   0.454  0.00  0.00    -0.030 C 
ATOM     13  C   LIG    1       -4.031  -0.095   0.788  0.00  0.00    +0.110 C 
ATOM     14 CL   LIG    1       -1.722   1.234   1.808  0.00  0.00    -0.080 Cl
ATOM     15  C   LIG    1       -4.228   1.386   0.454  0.00  0.00    +0.210 C 
ATOM     16  F   LIG    1       -4.797   1.698  -0.785  0.00  0.00    -0.150 F 
ATOM     17  F   LIG    1       -4.561   2.246   1.505  0.00  0.00    -0.150 F 
ENDBRANCH  11  12
ENDBRANCH   1  11
BRANCH   1  18
ATOM     18  C   LIG    1       -0.599   1.696  -2.382  0.00  0.00    +0.240 C 
BRANCH  18  19
ATOM     19  C   LIG    1       -1.636   2.622  -2.963  0.00  0.00    -0.090 A 
ATOM     20  C   LIG    1       -2.752   2.100  -3.592  0.00  0.00    +0.030 A 
ATOM     21  C   LIG    1       -3.712   2.943  -4.124  0.00  0.00    +0.010 A 
ATOM     22  C   LIG    1       -3.557   4.311  -4.039  0.00  0.00    +0.050 A 
ATOM     23  C   LIG    1       -2.430   4.844  -3.409  0.00  0.00    -0.140 A 
ATOM     24  C   LIG    1       -1.469   3.988  -2.870  0.00  0.00    +0.110 A 
BRANCH  23  25
ATOM     25  C   LIG    1       -2.258   6.309  -3.313  0.00  0.00    +0.560 C 
ATOM     26  O   LIG    1       -1.276   6.771  -2.764  0.00  0.00    -0.540 OA
ATOM     27  N   LIG    1       -3.188   7.133  -3.835  0.00  0.00    -0.850 N 
ATOM     28  H   LIG    1       -3.075   8.094  -3.772  0.00  0.00    +0.410 HD
ATOM     29  H   LIG    1       -3.971   6.765  -4.273  0.00  0.00    +0.400 HD
ENDBRANCH  23  25
ENDBRANCH  18  19
ENDBRANCH   1  18
TORSDOF 8
