REMARK  Name = ZINCrH00000No4Uo.1
REMARK                            x       y       z     vdW  Elec       q    Type
REMARK                         _______ _______ _______ _____ _____    ______ ____
ROOT
ATOM      1  C   LIG    1       -0.728   3.357   0.028  0.00  0.00    +0.170 C 
ATOM      2  N   LIG    1       -1.143   1.944   0.009  0.00  0.00    -0.710 N 
ATOM      3  H   LIG    1       -2.052   1.607   0.005  0.00  0.00    +0.450 HD
ATOM      4  C   LIG    1       -0.015   1.211  -0.001  0.00  0.00    +0.720 C 
ATOM      5  N   LIG    1        1.087   1.970   0.001  0.00  0.00    -0.430 N 
ATOM      6  O   LIG    1        0.002  -0.004  -0.015  0.00  0.00    -0.500 OA
ATOM      7  C   LIG    1       -1.224   4.055   1.296  0.00  0.00    +0.100 C 
ATOM      8  C   LIG    1        0.786   3.283   0.018  0.00  0.00    +0.510 C 
ATOM      9  O   LIG    1        1.565   4.213   0.024  0.00  0.00    -0.460 OA
ENDROOT
BRANCH   1  13
ATOM     10  C   LIG    1       -2.158   5.379  -3.454  0.00  0.00    +0.140 A 
ATOM     11  C   LIG    1       -2.932   4.396  -2.854  0.00  0.00    -0.010 A 
ATOM     12  C   LIG    1       -2.467   3.743  -1.729  0.00  0.00    +0.080 A 
ATOM     13  C   LIG    1       -1.232   4.070  -1.200  0.00  0.00    -0.140 A 
ATOM     14  C   LIG    1       -0.462   5.053  -1.792  0.00  0.00    +0.070 A 
ATOM     15  C   LIG    1       -0.919   5.705  -2.921  0.00  0.00    -0.070 A 
BRANCH  10  17
ATOM     16  C   LIG    1       -1.764   7.024  -5.125  0.00  0.00    +0.240 C 
ATOM     17  O   LIG    1       -2.614   6.023  -4.561  0.00  0.00    -0.310 OA
ENDBRANCH  10  17
ENDBRANCH   1  13
BRANCH   5  18
ATOM     18  N   LIG    1        2.393   1.462  -0.012  0.00  0.00    -0.200 NA
ATOM     19  C   LIG    1        3.403   2.270  -0.116  0.00  0.00    +0.290 C 
BRANCH  19  20
ATOM     20  C   LIG    1        4.769   1.731  -0.242  0.00  0.00    -0.080 A 
ATOM     21  C   LIG    1        5.858   2.597  -0.359  0.00  0.00    +0.130 A 
ATOM     22  C   LIG    1        7.135   2.086  -0.472  0.00  0.00    -0.110 A 
ATOM     23  C   LIG    1        7.340   0.717  -0.480  0.00  0.00    +0.130 A 
ATOM     24  C   LIG    1        6.269  -0.152  -0.370  0.00  0.00    -0.130 A 
ATOM     25 BR   LIG    1        6.563  -2.020  -0.384  0.00  0.00    -0.010 Br
ATOM     26 BR   LIG    1        8.609   3.260  -0.623  0.00  0.00    -0.020 Br
ATOM     27  C   LIG    1        4.981   0.345  -0.251  0.00  0.00    +0.200 A 
BRANCH  27  28
ATOM     28  O   LIG    1        3.929  -0.506  -0.143  0.00  0.00    -0.460 OA
ATOM     29  H   LIG    1        3.540  -0.760  -0.991  0.00  0.00    +0.400 HD
ENDBRANCH  27  28
ENDBRANCH  19  20
ENDBRANCH   5  18
TORSDOF 5
