REMARK  Name = ZINCrH000004jl0O.0
REMARK                            x       y       z     vdW  Elec       q    Type
REMARK                         _______ _______ _______ _____ _____    ______ ____
ROOT
ATOM      1  C   LIG    1       -0.014   1.209   0.009  0.00  0.00    +0.530 C 
ATOM      2  N   LIG    1        1.143   1.898   0.001  0.00  0.00    -0.620 N 
ATOM      3  C   LIG    1        1.269   3.367   0.009  0.00  0.00    +0.240 C 
ATOM      4  C   LIG    1        2.659   3.650  -0.615  0.00  0.00    +0.040 C 
ATOM      5  C   LIG    1        3.500   2.478  -0.044  0.00  0.00    +0.050 C 
ATOM      6  C   LIG    1        2.491   1.310  -0.009  0.00  0.00    +0.260 C 
ATOM      7  O   LIG    1        0.002  -0.004   0.002  0.00  0.00    -0.510 OA
ENDROOT
BRANCH   6   8
ATOM      8  C   LIG    1        2.700   0.486   1.236  0.00  0.00    -0.080 A 
ATOM      9  C   LIG    1        2.221   0.938   2.450  0.00  0.00    +0.020 A 
ATOM     10  C   LIG    1        2.410   0.186   3.595  0.00  0.00    -0.040 A 
ATOM     11  C   LIG    1        3.081  -1.024   3.526  0.00  0.00    +0.100 A 
ATOM     12  C   LIG    1        3.564  -1.479   2.302  0.00  0.00    +0.100 A 
ATOM     13  C   LIG    1        3.366  -0.723   1.158  0.00  0.00    -0.030 A 
BRANCH  12  14
ATOM     14  O   LIG    1        4.223  -2.666   2.229  0.00  0.00    -0.310 OA
ATOM     15  C   LIG    1        4.691  -3.070   0.940  0.00  0.00    +0.240 C 
ENDBRANCH  12  14
BRANCH  11  16
ATOM     16  O   LIG    1        3.267  -1.766   4.650  0.00  0.00    -0.310 OA
ATOM     17  C   LIG    1        2.744  -1.237   5.870  0.00  0.00    +0.230 C 
ENDBRANCH  11  16
ENDBRANCH   6   8
BRANCH   1  18
ATOM     18  C   LIG    1       -1.330   1.944   0.019  0.00  0.00    +0.150 C 
BRANCH  18  23
ATOM     19  C   LIG    1       -3.110   0.369   1.133  0.00  0.00    +0.040 A 
ATOM     20  N   LIG    1       -4.022  -0.427   0.653  0.00  0.00    -0.360 NA
ATOM     21  O   LIG    1       -4.028  -0.420  -0.556  0.00  0.00    +0.100 OA
ATOM     22  C   LIG    1       -3.097   0.409  -1.048  0.00  0.00    -0.010 A 
ATOM     23  C   LIG    1       -2.462   0.950   0.019  0.00  0.00    -0.180 A 
BRANCH  19  25
ATOM     24  C   LIG    1       -3.656   1.791   3.090  0.00  0.00    +0.040 C 
ATOM     25  C   LIG    1       -2.807   0.621   2.587  0.00  0.00    +0.110 C 
ENDBRANCH  19  25
BRANCH  22  26
ATOM     26  C   LIG    1       -2.812   0.684  -2.502  0.00  0.00    +0.140 C 
ATOM     27  C   LIG    1       -1.764  -0.306  -3.013  0.00  0.00    +0.040 C 
ENDBRANCH  22  26
ENDBRANCH  18  23
ENDBRANCH   1  18
TORSDOF 7
