REMARK  Name = ZINCpk00000KfLQP.0
REMARK                            x       y       z     vdW  Elec       q    Type
REMARK                         _______ _______ _______ _____ _____    ______ ____
ROOT
ATOM      1  C   LIG    1        2.145   1.503  -1.232  0.00  0.00    +0.030 C 
ATOM      2  C   LIG    1        1.420   2.051  -0.001  0.00  0.00    +0.010 C 
ATOM      3  C   LIG    1       -0.019   1.526   0.010  0.00  0.00    +0.030 C 
ATOM      4  C   LIG    1        0.002  -0.004   0.002  0.00  0.00    +0.170 C 
ATOM      5  N   LIG    1        0.706  -0.479  -1.196  0.00  0.00    -0.530 NA
ATOM      6  C   LIG    1        2.103  -0.026  -1.205  0.00  0.00    +0.190 C 
ENDROOT
BRANCH   1  11
ATOM      7  N   LIG    1        4.303   3.805  -0.046  0.00  0.00    -0.580 N 
ATOM      8  C   LIG    1        4.638   2.712   0.650  0.00  0.00    +0.700 C 
ATOM      9  N   LIG    1        4.265   1.573   0.033  0.00  0.00    -0.720 N 
ATOM     10  H   LIG    1        4.404   0.666   0.350  0.00  0.00    +0.440 HD
ATOM     11  C   LIG    1        3.601   1.975  -1.219  0.00  0.00    +0.130 C 
ATOM     12  C   LIG    1        4.355   1.421  -2.430  0.00  0.00    +0.090 C 
ATOM     13  O   LIG    1        5.217   2.743   1.718  0.00  0.00    -0.540 OA
ATOM     14  C   LIG    1        3.671   3.489  -1.194  0.00  0.00    +0.530 C 
ATOM     15  O   LIG    1        3.247   4.256  -2.031  0.00  0.00    -0.460 OA
BRANCH   7  17
ATOM     16  C   LIG    1        3.417   5.698   1.223  0.00  0.00    +0.030 C 
ATOM     17  C   LIG    1        4.587   5.175   0.387  0.00  0.00    +0.310 C 
ENDBRANCH   7  17
ENDBRANCH   1  11
BRANCH   5  18
ATOM     18  C   LIG    1        0.626  -1.941  -1.309  0.00  0.00    +0.330 C 
BRANCH  18  19
ATOM     19  C   LIG    1       -0.805  -2.349  -1.549  0.00  0.00    +0.180 A 
ATOM     20  N   LIG    1       -1.382  -2.485  -2.706  0.00  0.00    -0.360 NA
ATOM     21  O   LIG    1       -2.537  -2.824  -2.561  0.00  0.00    +0.080 OA
ATOM     22  C   LIG    1       -2.816  -2.939  -1.259  0.00  0.00    +0.210 A 
ATOM     23  N   LIG    1       -1.718  -2.643  -0.607  0.00  0.00    -0.480 NA
BRANCH  22  24
ATOM     24  C   LIG    1       -4.138  -3.337  -0.656  0.00  0.00    +0.070 C 
ATOM     25  C   LIG    1       -5.225  -3.842  -1.608  0.00  0.00    +0.070 C 
ATOM     26  C   LIG    1       -5.351  -2.457  -0.967  0.00  0.00    +0.070 C 
ENDBRANCH  22  24
ENDBRANCH  18  19
ENDBRANCH   5  18
TORSDOF 5
