REMARK  Name = ZINCrD0000073BdL.0
REMARK                            x       y       z     vdW  Elec       q    Type
REMARK                         _______ _______ _______ _____ _____    ______ ____
ROOT
ATOM      1  O   LIG    1        3.013   3.552  -0.009  0.00  0.00    -0.350 OA
ENDROOT
BRANCH   1   2
ATOM      2  C   LIG    1        1.699   3.247   0.003  0.00  0.00    +0.540 C 
ATOM      3  O   LIG    1        0.869   4.135   0.016  0.00  0.00    -0.480 OA
BRANCH   2   9
ATOM      4  C   LIG    1        0.664  -2.695  -0.019  0.00  0.00    +0.170 A 
ATOM      5  C   LIG    1       -0.673  -2.300  -0.004  0.00  0.00    -0.080 A 
ATOM      6  C   LIG    1       -1.006  -0.978   0.007  0.00  0.00    +0.120 A 
ATOM      7  C   LIG    1        0.002  -0.004   0.002  0.00  0.00    -0.160 A 
ATOM      8  C   LIG    1       -0.017   1.411   0.010  0.00  0.00    +0.090 A 
ATOM      9  C   LIG    1        1.272   1.843  -0.000  0.00  0.00    +0.010 A 
ATOM     10  N   LIG    1        2.117   0.747  -0.014  0.00  0.00    -0.570 N 
ATOM     11  H   LIG    1        3.087   0.781  -0.024  0.00  0.00    +0.430 HD
ATOM     12  C   LIG    1        1.356  -0.398  -0.013  0.00  0.00    +0.170 A 
ATOM     13  C   LIG    1        1.675  -1.751  -0.023  0.00  0.00    -0.050 A 
BRANCH   4  15
ATOM     14  C   LIG    1       -0.113  -4.941  -0.024  0.00  0.00    +0.250 C 
ATOM     15  O   LIG    1        0.977  -4.017  -0.029  0.00  0.00    -0.310 OA
ENDBRANCH   4  15
ENDBRANCH   2   9
ENDBRANCH   1   2
BRANCH   1  16
ATOM     16  C   LIG    1        3.362   4.962  -0.005  0.00  0.00    +0.250 C 
ATOM     17  C   LIG    1        3.470   5.464  -1.446  0.00  0.00    +0.100 C 
BRANCH  16  18
ATOM     18  C   LIG    1        4.684   5.150   0.694  0.00  0.00    +0.450 A 
ATOM     19  N   LIG    1        5.740   5.386  -0.035  0.00  0.00    -0.570 NA
ATOM     20  C   LIG    1        6.954   5.571   0.516  0.00  0.00    +0.530 A 
ATOM     21  C   LIG    1        7.070   5.487   1.983  0.00  0.00    -0.210 A 
ATOM     22  C   LIG    1        8.286   5.660   2.640  0.00  0.00    +0.110 A 
ATOM     23  C   LIG    1        8.332   5.570   4.015  0.00  0.00    -0.010 A 
ATOM     24  C   LIG    1        7.179   5.311   4.742  0.00  0.00    +0.090 A 
ATOM     25  C   LIG    1        5.968   5.138   4.105  0.00  0.00    -0.020 A 
ATOM     26  C   LIG    1        5.901   5.224   2.721  0.00  0.00    +0.170 A 
ATOM     27  O   LIG    1        7.931   5.796  -0.178  0.00  0.00    -0.470 OA
ATOM     28  N   LIG    1        4.715   5.060   2.035  0.00  0.00    -0.620 N 
ATOM     29  H   LIG    1        3.897   4.878   2.524  0.00  0.00    +0.420 HD
ENDBRANCH  16  18
ENDBRANCH   1  16
TORSDOF 5
