REMARK  Name = ZINCnE000001CKVh.1
REMARK                            x       y       z     vdW  Elec       q    Type
REMARK                         _______ _______ _______ _____ _____    ______ ____
ROOT
ATOM      1  C   LIG    1       -3.627   2.805   0.035  0.00  0.00    +0.110 C 
ENDROOT
BRANCH   1   2
ATOM      2  C   LIG    1       -4.844   1.915   0.037  0.00  0.00    -0.060 A 
ATOM      3  C   LIG    1       -5.410   1.518  -1.160  0.00  0.00    +0.060 A 
ATOM      4  C   LIG    1       -6.522   0.698  -1.161  0.00  0.00    -0.060 A 
ATOM      5  C   LIG    1       -7.077   0.282   0.040  0.00  0.00    +0.090 A 
ATOM      6  C   LIG    1       -6.510   0.686   1.240  0.00  0.00    +0.010 A 
ATOM      7  C   LIG    1       -5.394   1.502   1.236  0.00  0.00    +0.060 A 
BRANCH   5   8
ATOM      8  O   LIG    1       -8.174  -0.519   0.042  0.00  0.00    -0.310 OA
BRANCH   8   9
ATOM      9  C   LIG    1       -8.704  -0.896  -1.230  0.00  0.00    +0.600 C 
ATOM     10  F   LIG    1       -9.078   0.252  -1.938  0.00  0.00    -0.170 F 
ATOM     11  F   LIG    1       -9.823  -1.715  -1.046  0.00  0.00    -0.140 F 
ATOM     12  F   LIG    1       -7.730  -1.593  -1.954  0.00  0.00    -0.160 F 
ENDBRANCH   8   9
ENDBRANCH   5   8
ENDBRANCH   1   2
BRANCH   1  14
ATOM     13  N   LIG    1       -1.168   2.538   0.022  0.00  0.00    -0.660 NA
ATOM     14  C   LIG    1       -2.383   1.955   0.025  0.00  0.00    +0.460 C 
ATOM     15  O   LIG    1       -2.475   0.745   0.019  0.00  0.00    -0.600 OA
BRANCH  13  19
ATOM     16  C   LIG    1        2.157   1.284  -0.012  0.00  0.00    -0.000 A 
ATOM     17  C   LIG    1        1.712  -0.004  -0.014  0.00  0.00    -0.160 A 
ATOM     18  S   LIG    1        0.002  -0.004   0.002  0.00  0.00    +0.060 S 
ATOM     19  C   LIG    1       -0.022   1.755   0.012  0.00  0.00    +0.360 A 
ATOM     20  N   LIG    1        1.190   2.209   0.003  0.00  0.00    -0.520 NA
BRANCH  16  22
ATOM     21  C   LIG    1        4.005   3.075  -0.019  0.00  0.00    +0.070 C 
ATOM     22  C   LIG    1        3.580   1.629  -0.023  0.00  0.00    +0.430 C 
ATOM     23  O   LIG    1        4.417   0.751  -0.035  0.00  0.00    -0.480 OA
ENDBRANCH  16  22
ENDBRANCH  13  19
ENDBRANCH   1  14
TORSDOF 6
