REMARK  Name = ZINCqH0000003oYI.0
REMARK                            x       y       z     vdW  Elec       q    Type
REMARK                         _______ _______ _______ _____ _____    ______ ____
ROOT
ATOM      1  C   LIG    1       -1.248  -2.094   0.003  0.00  0.00    -0.180 A 
ATOM      2  C   LIG    1       -1.288  -2.845  -1.142  0.00  0.00    +0.040 A 
ATOM      3  S   LIG    1       -1.348  -4.509  -0.780  0.00  0.00    +0.350 S 
ATOM      4  C   LIG    1       -1.320  -4.219   0.950  0.00  0.00    -0.070 A 
ATOM      5  C   LIG    1       -1.262  -2.905   1.210  0.00  0.00    +0.020 A 
ENDROOT
BRANCH   5   6
ATOM      6  C   LIG    1       -1.221  -2.342   2.575  0.00  0.00    +0.030 A 
ATOM      7  C   LIG    1       -2.062  -2.659   3.595  0.00  0.00    -0.030 A 
ATOM      8  C   LIG    1       -1.661  -1.890   4.707  0.00  0.00    -0.060 A 
ATOM      9  C   LIG    1       -0.605  -1.151   4.314  0.00  0.00    +0.180 A 
ATOM     10  O   LIG    1       -0.339  -1.430   3.027  0.00  0.00    -0.170 OA
ENDBRANCH   5   6
BRANCH   2  11
ATOM     11  N   LIG    1       -1.281  -2.321  -2.425  0.00  0.00    -0.630 N 
ATOM     12  H   LIG    1       -1.246  -1.361  -2.556  0.00  0.00    +0.420 HD
ATOM     13  C   LIG    1       -1.323  -3.146  -3.490  0.00  0.00    +0.530 C 
ATOM     14  O   LIG    1       -1.367  -4.347  -3.325  0.00  0.00    -0.480 OA
BRANCH  13  15
ATOM     15  C   LIG    1       -1.315  -2.577  -4.885  0.00  0.00    +0.130 C 
BRANCH  15  16
ATOM     16  S   LIG    1       -1.378  -3.927  -6.088  0.00  0.00    +0.100 S 
BRANCH  16  17
ATOM     17  C   LIG    1       -1.358  -3.002  -7.588  0.00  0.00    +0.280 A 
ATOM     18  N   LIG    1       -1.312  -1.678  -7.531  0.00  0.00    -0.530 NA
ATOM     19  C   LIG    1       -1.291  -0.955  -8.637  0.00  0.00    +0.330 A 
ATOM     20  C   LIG    1       -1.328  -1.596  -9.866  0.00  0.00    -0.080 A 
ATOM     21  C   LIG    1       -1.380  -2.981  -9.889  0.00  0.00    +0.350 A 
ATOM     22  N   LIG    1       -1.393  -3.646  -8.746  0.00  0.00    -0.500 NA
ENDBRANCH  16  17
ENDBRANCH  15  16
ENDBRANCH  13  15
ENDBRANCH   2  11
BRANCH   1  23
ATOM     23  C   LIG    1       -1.192  -0.633   0.010  0.00  0.00    +0.540 C 
ATOM     24  O   LIG    1       -2.221   0.016   0.023  0.00  0.00    -0.490 OA
BRANCH  23  25
ATOM     25  O   LIG    1        0.002  -0.004   0.002  0.00  0.00    -0.340 OA
BRANCH  25  27
ATOM     26  C   LIG    1        1.418   1.954  -0.001  0.00  0.00    +0.070 C 
ATOM     27  C   LIG    1       -0.017   1.425   0.010  0.00  0.00    +0.200 C 
ENDBRANCH  25  27
ENDBRANCH  23  25
ENDBRANCH   1  23
TORSDOF 8
