REMARK  Name = ZINCnE000001GLOM.0
REMARK                            x       y       z     vdW  Elec       q    Type
REMARK                         _______ _______ _______ _____ _____    ______ ____
ROOT
ATOM      1  S   LIG    1        2.712   0.920  -0.019  0.00  0.00    +2.610 S 
ATOM      2  O   LIG    1        2.455  -0.369   0.521  0.00  0.00    -1.030 OA
ATOM      3  O   LIG    1        3.679   1.811   0.521  0.00  0.00    -1.020 OA
ENDROOT
BRANCH   1   7
ATOM      4  C   LIG    1       -1.237   3.137   0.031  0.00  0.00    +0.160 A 
ATOM      5  C   LIG    1       -1.218   1.750   0.017  0.00  0.00    -0.100 A 
ATOM      6  C   LIG    1       -0.013   1.076   0.008  0.00  0.00    +0.160 A 
ATOM      7  C   LIG    1        1.176   1.783   0.000  0.00  0.00    -0.650 A 
ATOM      8  C   LIG    1        1.160   3.165   0.007  0.00  0.00    +0.160 A 
ATOM      9  C   LIG    1       -0.043   3.844   0.023  0.00  0.00    -0.050 A 
BRANCH   4  10
ATOM     10  O   LIG    1       -2.422   3.802   0.045  0.00  0.00    -0.320 OA
BRANCH  10  12
ATOM     11  C   LIG    1       -4.835   3.926   0.069  0.00  0.00    +0.070 C 
ATOM     12  C   LIG    1       -3.611   3.009   0.053  0.00  0.00    +0.170 C 
ENDBRANCH  10  12
ENDBRANCH   4  10
ENDBRANCH   1   7
BRANCH   1  13
ATOM     13  N   LIG    1        3.124   0.689  -1.606  0.00  0.00    -1.050 NA
BRANCH  13  14
ATOM     14  C   LIG    1        4.307   0.025  -1.929  0.00  0.00    +0.320 A 
ATOM     15  C   LIG    1        5.139  -0.435  -0.933  0.00  0.00    -0.210 A 
ATOM     16  C   LIG    1        6.321  -1.104  -1.242  0.00  0.00    +0.090 A 
ATOM     17  C   LIG    1        6.690  -1.312  -2.536  0.00  0.00    -0.130 A 
ATOM     18  C   LIG    1        5.871  -0.853  -3.581  0.00  0.00    -0.040 A 
ATOM     19  C   LIG    1        6.225  -1.052  -4.928  0.00  0.00    +0.020 A 
ATOM     20  C   LIG    1        5.382  -0.578  -5.893  0.00  0.00    -0.040 A 
ATOM     21  C   LIG    1        4.210   0.080  -5.529  0.00  0.00    +0.200 A 
ATOM     22  N   LIG    1        3.884   0.263  -4.272  0.00  0.00    -0.410 NA
ATOM     23  C   LIG    1        4.664  -0.175  -3.281  0.00  0.00    +0.090 A 
ENDBRANCH  13  14
ENDBRANCH   1  13
TORSDOF 5
