REMARK  Name = ZINCqH0000007OTK.0
REMARK                            x       y       z     vdW  Elec       q    Type
REMARK                         _______ _______ _______ _____ _____    ______ ____
ROOT
ATOM      1  C   LIG    1        2.054  -0.600   1.174  0.00  0.00    +0.520 C 
ATOM      2  N   LIG    1        0.711  -0.489   1.189  0.00  0.00    -0.730 N 
ATOM      3  H   LIG    1        0.213  -0.731   1.986  0.00  0.00    +0.410 HD
ATOM      4  O   LIG    1        2.676  -0.297   0.177  0.00  0.00    -0.510 OA
ENDROOT
BRANCH   2   5
ATOM      5  C   LIG    1        0.002  -0.004   0.002  0.00  0.00    +0.350 C 
ATOM      6  C   LIG    1       -0.019   1.526   0.010  0.00  0.00    +0.050 C 
BRANCH   5   7
ATOM      7  C   LIG    1       -1.412  -0.526   0.013  0.00  0.00    +0.020 A 
ATOM      8  C   LIG    1       -2.076  -0.964  -1.065  0.00  0.00    -0.030 A 
ATOM      9  C   LIG    1       -3.403  -1.372  -0.590  0.00  0.00    -0.130 A 
ATOM     10  C   LIG    1       -4.537  -1.902  -1.204  0.00  0.00    +0.060 A 
ATOM     11  C   LIG    1       -5.654  -2.180  -0.446  0.00  0.00    +0.000 A 
ATOM     12  C   LIG    1       -5.651  -1.936   0.919  0.00  0.00    +0.050 A 
ATOM     13  C   LIG    1       -4.536  -1.412   1.538  0.00  0.00    +0.020 A 
ATOM     14  C   LIG    1       -3.400  -1.124   0.793  0.00  0.00    +0.060 A 
ATOM     15  O   LIG    1       -2.188  -0.624   1.106  0.00  0.00    -0.190 OA
ENDBRANCH   5   7
ENDBRANCH   2   5
BRANCH   1  16
ATOM     16  C   LIG    1        2.783  -1.099   2.395  0.00  0.00    +0.210 C 
BRANCH  16  17
ATOM     17  N   LIG    1        4.226  -1.127   2.125  0.00  0.00    -0.510 NA
ATOM     18  C   LIG    1        4.550  -2.122   1.094  0.00  0.00    +0.200 C 
BRANCH  17  19
ATOM     19  C   LIG    1        4.987  -1.379   3.357  0.00  0.00    +0.240 C 
BRANCH  19  25
ATOM     20  C   LIG    1        6.971   0.128   3.075  0.00  0.00    +0.150 A 
ATOM     21  C   LIG    1        8.323   0.327   2.840  0.00  0.00    -0.080 A 
ATOM     22  C   LIG    1        9.151  -0.757   2.614  0.00  0.00    +0.040 A 
ATOM     23  C   LIG    1        8.633  -2.038   2.629  0.00  0.00    -0.040 A 
ATOM     24  C   LIG    1        7.286  -2.239   2.869  0.00  0.00    +0.060 A 
ATOM     25  C   LIG    1        6.454  -1.159   3.095  0.00  0.00    -0.120 A 
BRANCH  20  27
ATOM     26  C   LIG    1        6.755   2.489   3.256  0.00  0.00    +0.230 C 
ATOM     27  O   LIG    1        6.154   1.193   3.291  0.00  0.00    -0.300 OA
ENDBRANCH  20  27
ENDBRANCH  19  25
ENDBRANCH  17  19
ENDBRANCH  16  17
ENDBRANCH   1  16
TORSDOF 7
