REMARK  Name = ZINCrH000004vI8Y.0
REMARK                            x       y       z     vdW  Elec       q    Type
REMARK                         _______ _______ _______ _____ _____    ______ ____
ROOT
ATOM      1  C   LIG    1        4.489  -1.267   3.796  0.00  0.00    +0.560 C 
ATOM      2  N   LIG    1        4.217  -1.761   5.021  0.00  0.00    -0.720 N 
ATOM      3  H   LIG    1        3.298  -1.911   5.291  0.00  0.00    +0.400 HD
ATOM      4  O   LIG    1        5.641  -1.080   3.458  0.00  0.00    -0.520 OA
ENDROOT
BRANCH   1  13
ATOM      5  O   LIG    1        2.338   1.822  -2.113  0.00  0.00    -0.520 OA
ATOM      6  C   LIG    1        2.255   1.481  -0.952  0.00  0.00    +0.530 C 
ATOM      7  C   LIG    1        1.437   2.302   0.001  0.00  0.00    +0.060 C 
ATOM      8  C   LIG    1       -0.023   1.819   0.012  0.00  0.00    +0.140 C 
ATOM      9  S   LIG    1        0.002  -0.004   0.002  0.00  0.00    -0.130 S 
ATOM     10  C   LIG    1        1.311  -0.373   1.125  0.00  0.00    -0.110 A 
ATOM     11  C   LIG    1        1.031  -0.880   2.388  0.00  0.00    +0.100 A 
ATOM     12  C   LIG    1        2.062  -1.169   3.256  0.00  0.00    +0.040 A 
ATOM     13  C   LIG    1        3.387  -0.954   2.867  0.00  0.00    -0.090 A 
ATOM     14  C   LIG    1        3.669  -0.441   1.596  0.00  0.00    +0.080 A 
ATOM     15  C   LIG    1        2.632  -0.150   0.733  0.00  0.00    +0.170 A 
ATOM     16  N   LIG    1        2.894   0.379  -0.542  0.00  0.00    -0.670 N 
ATOM     17  H   LIG    1        3.538  -0.054  -1.124  0.00  0.00    +0.420 HD
ENDBRANCH   1  13
BRANCH   2  18
ATOM     18  C   LIG    1        5.311  -2.072   5.944  0.00  0.00    +0.390 C 
BRANCH  18  19
ATOM     19  C   LIG    1        4.744  -2.606   7.234  0.00  0.00    -0.000 A 
ATOM     20  N   LIG    1        4.320  -1.905   8.247  0.00  0.00    -0.340 NA
ATOM     21  O   LIG    1        3.918  -2.608   9.145  0.00  0.00    +0.120 OA
ATOM     22  C   LIG    1        4.025  -3.912   8.835  0.00  0.00    +0.020 A 
ATOM     23  C   LIG    1        4.562  -3.962   7.577  0.00  0.00    -0.030 A 
BRANCH  22  24
ATOM     24  C   LIG    1        3.635  -5.061   9.680  0.00  0.00    -0.030 A 
ATOM     25  C   LIG    1        3.804  -6.365   9.212  0.00  0.00    +0.040 A 
ATOM     26  C   LIG    1        3.444  -7.433  10.008  0.00  0.00    +0.010 A 
ATOM     27  C   LIG    1        2.906  -7.213  11.263  0.00  0.00    +0.030 A 
ATOM     28  C   LIG    1        2.731  -5.923  11.731  0.00  0.00    +0.010 A 
ATOM     29  C   LIG    1        3.092  -4.846  10.948  0.00  0.00    +0.040 A 
ENDBRANCH  22  24
ENDBRANCH  18  19
ENDBRANCH   2  18
TORSDOF 4
