REMARK  Name = ZINCrD0000075d9v.0
REMARK                            x       y       z     vdW  Elec       q    Type
REMARK                         _______ _______ _______ _____ _____    ______ ____
ROOT
ATOM      1  N   LIG    1        1.260  -2.054  -0.021  0.00  0.00    -1.050 NA
ENDROOT
BRANCH   1   2
ATOM      2  C   LIG    1        1.226  -0.664  -0.013  0.00  0.00    +0.470 A 
ATOM      3  C   LIG    1        0.002  -0.004   0.002  0.00  0.00    -0.080 A 
ATOM      4  C   LIG    1       -0.017   1.379   0.010  0.00  0.00    +0.090 A 
ATOM      5  C   LIG    1        1.194   2.058   0.002  0.00  0.00    -0.350 A 
ATOM      6  C   LIG    1        2.373   1.339  -0.013  0.00  0.00    +0.340 A 
ATOM      7  N   LIG    1        2.361   0.020  -0.020  0.00  0.00    -0.590 NA
BRANCH   5   8
ATOM      8  C   LIG    1        1.222   3.565   0.009  0.00  0.00    +0.310 C 
BRANCH   8   9
ATOM      9  N   LIG    1        1.244   4.048   1.396  0.00  0.00    -0.380 N 
ATOM     10  C   LIG    1       -0.010   3.675   2.062  0.00  0.00    +0.250 C 
ATOM     11  C   LIG    1        0.042   4.103   3.531  0.00  0.00    +0.050 C 
ATOM     12  C   LIG    1        0.229   5.621   3.607  0.00  0.00    +0.030 C 
ATOM     13  C   LIG    1        1.500   6.007   2.845  0.00  0.00    +0.050 C 
ATOM     14  C   LIG    1        1.395   5.508   1.403  0.00  0.00    +0.240 C 
ATOM     15  H   LIG    1        2.021   3.628   1.885  0.00  0.00    +0.420 HD
ENDBRANCH   8   9
ENDBRANCH   5   8
ENDBRANCH   1   2
BRANCH   1  16
ATOM     16  S   LIG    1        2.714  -2.847  -0.039  0.00  0.00    +2.640 S 
ATOM     17  O   LIG    1        3.339  -2.567   1.206  0.00  0.00    -1.010 OA
ATOM     18  O   LIG    1        3.315  -2.554  -1.293  0.00  0.00    -1.010 OA
BRANCH  16  25
ATOM     19  C   LIG    1        1.344  -9.681   0.647  0.00  0.00    +0.310 C 
ATOM     20  N   LIG    1        1.549  -8.610  -0.333  0.00  0.00    -0.490 N 
ATOM     21  C   LIG    1        1.503  -8.768  -1.691  0.00  0.00    +0.210 A 
ATOM     22  C   LIG    1        1.733  -7.592  -2.296  0.00  0.00    -0.040 A 
ATOM     23  C   LIG    1        1.944  -6.600  -1.239  0.00  0.00    -0.140 A 
ATOM     24  C   LIG    1        2.220  -5.232  -1.234  0.00  0.00    +0.180 A 
ATOM     25  C   LIG    1        2.365  -4.574  -0.045  0.00  0.00    -0.660 A 
ATOM     26  C   LIG    1        2.247  -5.256   1.158  0.00  0.00    +0.130 A 
ATOM     27  C   LIG    1        1.969  -6.606   1.175  0.00  0.00    -0.030 A 
ATOM     28  C   LIG    1        1.817  -7.296  -0.023  0.00  0.00    +0.130 A 
ENDBRANCH  16  25
ENDBRANCH   1  16
TORSDOF 5
