REMARK  Name = ZINCAx0000000cCF.0
REMARK                            x       y       z     vdW  Elec       q    Type
REMARK                         _______ _______ _______ _____ _____    ______ ____
ROOT
ATOM      1  N   LIG    1       -1.195  -0.721   0.014  0.00  0.00    -0.680 N 
ATOM      2  H   LIG    1       -2.039  -0.255   0.112  0.00  0.00    +0.410 HD
ATOM      3  C   LIG    1       -1.176  -2.064  -0.099  0.00  0.00    +0.710 C 
ATOM      4  N   LIG    1       -2.334  -2.749  -0.193  0.00  0.00    -0.620 N 
ATOM      5  C   LIG    1       -3.617  -2.039  -0.281  0.00  0.00    +0.270 C 
ATOM      6  C   LIG    1       -4.352  -2.520  -1.544  0.00  0.00    +0.310 C 
ATOM      7  N   LIG    1       -4.354  -3.990  -1.553  0.00  0.00    -0.550 N 
ATOM      8  C   LIG    1       -3.070  -4.700  -1.459  0.00  0.00    +0.310 C 
ATOM      9  C   LIG    1       -2.335  -4.218  -0.202  0.00  0.00    +0.310 C 
ATOM     10  O   LIG    1       -0.116  -2.658  -0.117  0.00  0.00    -0.550 OA
ENDROOT
BRANCH   7  11
ATOM     11  C   LIG    1       -5.542  -4.692  -1.649  0.00  0.00    +0.360 A 
ATOM     12  N   LIG    1       -6.736  -4.199  -1.738  0.00  0.00    -0.340 NA
ATOM     13  N   LIG    1       -7.824  -5.061  -1.828  0.00  0.00    -0.340 N 
ATOM     14  C   LIG    1       -9.156  -4.716  -1.929  0.00  0.00    +0.200 A 
ATOM     15  C   LIG    1      -10.101  -5.670  -2.010  0.00  0.00    -0.100 A 
ATOM     16  C   LIG    1       -9.717  -7.034  -1.990  0.00  0.00    +0.520 A 
ATOM     17  N   LIG    1       -8.418  -7.334  -1.891  0.00  0.00    -0.540 NA
ATOM     18  O   LIG    1      -10.557  -7.920  -2.062  0.00  0.00    -0.500 OA
ATOM     19  C   LIG    1       -9.555  -3.263  -1.949  0.00  0.00    +0.160 C 
ATOM     20  C   LIG    1       -7.508  -6.383  -1.814  0.00  0.00    +0.340 A 
ATOM     21  S   LIG    1       -5.743  -6.452  -1.684  0.00  0.00    +0.140 S 
ENDBRANCH   7  11
BRANCH   1  28
ATOM     22  C   LIG    1        0.079   1.254   0.609  0.00  0.00    -0.060 A 
ATOM     23  C   LIG    1        1.280   1.964   0.580  0.00  0.00    +0.130 A 
ATOM     24  C   LIG    1        2.382   1.426  -0.053  0.00  0.00    -0.060 A 
ATOM     25  C   LIG    1        2.301   0.183  -0.661  0.00  0.00    +0.100 A 
ATOM     26  C   LIG    1        1.118  -0.529  -0.639  0.00  0.00    +0.050 A 
ATOM     27 CL   LIG    1        3.876   2.310  -0.089  0.00  0.00    -0.050 Cl
ATOM     28  C   LIG    1        0.001  -0.003  -0.008  0.00  0.00    +0.220 A 
BRANCH  22  32
ATOM     29  C   LIG    1       -2.437   3.087   2.345  0.00  0.00    +0.190 A 
ATOM     30  N   LIG    1       -3.062   2.003   1.992  0.00  0.00    -0.370 NA
ATOM     31  O   LIG    1       -2.322   1.267   1.374  0.00  0.00    +0.060 OA
ATOM     32  C   LIG    1       -1.105   1.827   1.278  0.00  0.00    +0.230 A 
ATOM     33  N   LIG    1       -1.176   2.994   1.896  0.00  0.00    -0.460 NA
BRANCH  29  34
ATOM     34  C   LIG    1       -3.024   4.239   3.119  0.00  0.00    +0.180 C 
BRANCH  34  35
ATOM     35  C   LIG    1       -3.616   5.259   2.145  0.00  0.00    +0.180 C 
BRANCH  35  37
ATOM     36  C   LIG    1       -4.755   7.367   2.058  0.00  0.00    +0.200 C 
ATOM     37  O   LIG    1       -4.172   6.352   2.879  0.00  0.00    -0.390 OA
ENDBRANCH  35  37
ENDBRANCH  34  35
ENDBRANCH  29  34
ENDBRANCH  22  32
ENDBRANCH   1  28
TORSDOF 6
