REMARK  Name = ZINCpe00000FU95d.0
REMARK                            x       y       z     vdW  Elec       q    Type
REMARK                         _______ _______ _______ _____ _____    ______ ____
ROOT
ATOM      1  C   LIG    1       -2.118   4.268  -3.250  0.00  0.00    +0.180 C 
ATOM      2  C   LIG    1       -1.663   3.001  -2.572  0.00  0.00    +0.120 A 
ATOM      3  N   LIG    1       -0.978   2.929  -1.465  0.00  0.00    -0.270 NA
ATOM      4  N   LIG    1       -0.747   1.584  -1.158  0.00  0.00    -0.340 N 
ATOM      5  C   LIG    1       -1.309   0.825  -2.115  0.00  0.00    +0.150 A 
ATOM      6 CL   LIG    1       -1.295  -0.910  -2.193  0.00  0.00    +0.020 Cl
ATOM      7  C   LIG    1       -1.903   1.683  -3.026  0.00  0.00    -0.210 A 
ENDROOT
BRANCH   4   8
ATOM      8  C   LIG    1       -0.013   1.086   0.008  0.00  0.00    +0.290 C 
ATOM      9  C   LIG    1        1.426   1.632  -0.003  0.00  0.00    +0.080 C 
ATOM     10  C   LIG    1        2.060   1.381   1.379  0.00  0.00    -0.290 C 
ATOM     11  S   LIG    1        0.657   1.366   2.552  0.00  0.00    +2.400 S 
ATOM     12  O   LIG    1        0.729   2.513   3.388  0.00  0.00    -0.920 OA
ATOM     13  O   LIG    1        0.539   0.073   3.130  0.00  0.00    -0.920 OA
ATOM     14  C   LIG    1       -0.673   1.601   1.313  0.00  0.00    -0.300 C 
ENDBRANCH   4   8
BRANCH   7  15
ATOM     15  C   LIG    1       -2.638   1.298  -4.237  0.00  0.00    +0.200 C 
ATOM     16  C   LIG    1       -2.094   0.417  -5.107  0.00  0.00    -0.060 C 
BRANCH  16  17
ATOM     17  C   LIG    1       -2.803   0.045  -6.274  0.00  0.00    +0.510 C 
ATOM     18  O   LIG    1       -3.902   0.518  -6.494  0.00  0.00    -0.510 OA
BRANCH  17  19
ATOM     19  O   LIG    1       -2.260  -0.833  -7.142  0.00  0.00    -0.330 OA
BRANCH  19  20
ATOM     20  C   LIG    1       -3.031  -1.163  -8.299  0.00  0.00    +0.250 C 
BRANCH  20  21
ATOM     21  C   LIG    1       -2.270  -2.150  -9.146  0.00  0.00    +0.510 C 
ATOM     22  N   LIG    1       -2.807  -2.607 -10.295  0.00  0.00    -0.620 N 
ATOM     23  C   LIG    1       -4.130  -2.144 -10.720  0.00  0.00    +0.290 C 
ATOM     24  C   LIG    1       -2.067  -3.567 -11.118  0.00  0.00    +0.300 C 
ATOM     25  O   LIG    1       -1.175  -2.534  -8.793  0.00  0.00    -0.510 OA
ENDBRANCH  20  21
ENDBRANCH  19  20
ENDBRANCH  17  19
ENDBRANCH  16  17
ENDBRANCH   7  15
TORSDOF 6
