REMARK  Name = ZINCtV00000tRTwv.0
REMARK                            x       y       z     vdW  Elec       q    Type
REMARK                         _______ _______ _______ _____ _____    ______ ____
ROOT
ATOM      1  C   LIG    1        2.358   1.021   0.154  0.00  0.00    -0.150 A 
ATOM      2  C   LIG    1        1.157   1.689   0.058  0.00  0.00    +0.400 A 
ATOM      3  N   LIG    1        1.101   3.053   0.018  0.00  0.00    -0.400 N 
ATOM      4  C   LIG    1        0.041   3.940  -0.071  0.00  0.00    +0.020 A 
ATOM      5  C   LIG    1       -1.335   3.786  -0.150  0.00  0.00    +0.050 A 
ATOM      6  C   LIG    1       -2.148   4.898  -0.229  0.00  0.00    +0.010 A 
ATOM      7  C   LIG    1       -1.599   6.172  -0.231  0.00  0.00    +0.040 A 
ATOM      8  C   LIG    1       -0.236   6.346  -0.153  0.00  0.00    +0.060 A 
ATOM      9  C   LIG    1        0.604   5.229  -0.072  0.00  0.00    +0.100 A 
ATOM     10  N   LIG    1        1.947   5.084   0.013  0.00  0.00    -0.490 NA
ATOM     11  C   LIG    1        2.252   3.801   0.067  0.00  0.00    +0.330 A 
ATOM     12  C   LIG    1        3.544   3.111   0.163  0.00  0.00    -0.040 A 
ATOM     13  C   LIG    1        3.558   1.717   0.202  0.00  0.00    +0.060 A 
ATOM     14  C   LIG    1        4.864   0.973   0.301  0.00  0.00    +0.120 C 
ENDROOT
BRANCH  12  15
ATOM     15  C   LIG    1        4.766   3.855   0.217  0.00  0.00    +0.270 C 
ATOM     16  N   LIG    1        5.736   4.445   0.260  0.00  0.00    -0.400 NA
ENDBRANCH  12  15
BRANCH   2  17
ATOM     17  N   LIG    1       -0.011   0.966   0.007  0.00  0.00    -0.690 N 
ATOM     18  H   LIG    1       -0.277   0.421   0.764  0.00  0.00    +0.420 HD
BRANCH  17  19
ATOM     19  C   LIG    1       -0.812   1.012  -1.137  0.00  0.00    +0.180 A 
ATOM     20  C   LIG    1       -0.363   1.671  -2.275  0.00  0.00    -0.050 A 
ATOM     21  C   LIG    1       -1.155   1.710  -3.406  0.00  0.00    +0.050 A 
ATOM     22  C   LIG    1       -2.399   1.104  -3.402  0.00  0.00    -0.110 A 
ATOM     23  C   LIG    1       -2.851   0.453  -2.269  0.00  0.00    +0.050 A 
ATOM     24  C   LIG    1       -3.262   1.154  -4.636  0.00  0.00    +0.100 C 
ATOM     25  C   LIG    1       -2.062   0.405  -1.137  0.00  0.00    -0.030 A 
ENDBRANCH  17  19
ENDBRANCH   2  17
BRANCH   1  26
ATOM     26  C   LIG    1        2.369  -0.485   0.202  0.00  0.00    +0.100 C 
BRANCH  26  27
ATOM     27  C   LIG    1        2.589  -1.038  -1.208  0.00  0.00    +0.010 C 
BRANCH  27  28
ATOM     28  C   LIG    1        2.600  -2.568  -1.159  0.00  0.00    +0.000 C 
BRANCH  28  30
ATOM     29  C   LIG    1        2.831  -4.650  -2.521  0.00  0.00    +0.000 C 
ATOM     30  C   LIG    1        2.820  -3.121  -2.569  0.00  0.00    -0.010 C 
ENDBRANCH  28  30
ENDBRANCH  27  28
ENDBRANCH  26  27
ENDBRANCH   1  26
TORSDOF 7
