REMARK  Name = ZINCpk000000n1nh.0
REMARK                            x       y       z     vdW  Elec       q    Type
REMARK                         _______ _______ _______ _____ _____    ______ ____
ROOT
ATOM      1  N   LIG    1        3.261  -2.838   2.228  0.00  0.00    -0.660 N 
ATOM      2  H   LIG    1        4.121  -2.911   2.671  0.00  0.00    +0.430 HD
ATOM      3  C   LIG    1        2.455  -3.915   2.139  0.00  0.00    +0.520 C 
ATOM      4  O   LIG    1        1.424  -3.850   1.504  0.00  0.00    -0.510 OA
ENDROOT
BRANCH   1  13
ATOM      5  C   LIG    1        3.807  -0.759   1.103  0.00  0.00    -0.200 A 
ATOM      6  C   LIG    1        3.391   0.465   0.560  0.00  0.00    +0.120 A 
ATOM      7  C   LIG    1        2.060   0.818   0.596  0.00  0.00    +0.000 A 
ATOM      8  C   LIG    1        1.121  -0.042   1.175  0.00  0.00    +0.100 A 
ATOM      9  O   LIG    1       -0.111   0.537   1.083  0.00  0.00    -0.300 OA
ATOM     10  C   LIG    1        0.136   1.930   0.817  0.00  0.00    +0.440 C 
ATOM     11  C   LIG    1        1.523  -1.254   1.714  0.00  0.00    +0.020 A 
ATOM     12  O   LIG    1        1.409   1.931   0.145  0.00  0.00    -0.300 OA
ATOM     13  C   LIG    1        2.858  -1.620   1.684  0.00  0.00    +0.230 A 
BRANCH   5  15
ATOM     14  C   LIG    1        6.217  -0.267   0.346  0.00  0.00    +0.090 C 
ATOM     15  C   LIG    1        5.221  -1.138   1.067  0.00  0.00    +0.410 C 
ATOM     16  O   LIG    1        5.591  -2.155   1.617  0.00  0.00    -0.470 OA
ENDBRANCH   5  15
ENDBRANCH   1  13
BRANCH   3  17
ATOM     17  C   LIG    1        2.836  -5.200   2.829  0.00  0.00    +0.080 C 
BRANCH  17  18
ATOM     18  C   LIG    1        1.758  -6.255   2.572  0.00  0.00    +0.040 C 
BRANCH  18  19
ATOM     19  C   LIG    1        2.145  -7.559   3.272  0.00  0.00    +0.300 C 
BRANCH  19  20
ATOM     20  N   LIG    1        1.113  -8.570   3.026  0.00  0.00    -0.570 N 
ATOM     21  C   LIG    1        0.058  -8.740   3.831  0.00  0.00    +0.530 C 
ATOM     22  C   LIG    1       -0.808  -9.856   3.289  0.00  0.00    +0.080 C 
ATOM     23  C   LIG    1       -0.057 -10.314   2.023  0.00  0.00    +0.080 C 
ATOM     24  O   LIG    1       -0.170  -8.099   4.835  0.00  0.00    -0.480 OA
ATOM     25  C   LIG    1        1.152  -9.404   1.979  0.00  0.00    +0.530 C 
ATOM     26  O   LIG    1        2.017  -9.427   1.131  0.00  0.00    -0.480 OA
ENDBRANCH  19  20
ENDBRANCH  18  19
ENDBRANCH  17  18
ENDBRANCH   3  17
TORSDOF 6
