REMARK  Name = ZINCtV000002IzF4.0
REMARK                            x       y       z     vdW  Elec       q    Type
REMARK                         _______ _______ _______ _____ _____    ______ ____
ROOT
ATOM      1  C   LIG    1       -1.769   0.714   0.510  0.00  0.00    +0.100 C 
ATOM      2  C   LIG    1       -0.594   1.656   0.527  0.00  0.00    -0.090 A 
ATOM      3  C   LIG    1        0.684   1.161   0.716  0.00  0.00    +0.040 A 
ATOM      4  C   LIG    1        1.773   2.014   0.730  0.00  0.00    +0.010 A 
ATOM      5  C   LIG    1        1.586   3.374   0.560  0.00  0.00    +0.120 A 
ATOM      6  O   LIG    1        2.638   4.231   0.573  0.00  0.00    -0.330 OA
ATOM      7  C   LIG    1        3.090   4.750  -0.669  0.00  0.00    +0.250 C 
ATOM      8  C   LIG    1        1.927   5.208  -1.544  0.00  0.00    +0.060 C 
ATOM      9  C   LIG    1        0.939   6.003  -0.730  0.00  0.00    -0.110 A 
ATOM     10  C   LIG    1        0.113   5.336   0.187  0.00  0.00    +0.210 A 
ATOM     11  N   LIG    1       -0.783   6.003   0.892  0.00  0.00    -0.440 NA
ATOM     12  C   LIG    1       -0.935   7.325   0.788  0.00  0.00    +0.060 A 
ATOM     13  S   LIG    1       -2.042   8.405   1.624  0.00  0.00    +0.140 S 
ATOM     14  C   LIG    1       -1.424   9.816   0.783  0.00  0.00    -0.160 A 
ATOM     15  C   LIG    1       -0.448   9.487  -0.067  0.00  0.00    -0.080 A 
ATOM     16  C   LIG    1        0.283  10.500  -0.938  0.00  0.00    +0.100 C 
ATOM     17  C   LIG    1       -0.544  11.786  -0.999  0.00  0.00    +0.020 C 
ATOM     18  C   LIG    1       -0.909  12.215   0.425  0.00  0.00    +0.020 C 
ATOM     19  C   LIG    1       -1.934  11.231   0.994  0.00  0.00    +0.120 C 
ATOM     20  C   LIG    1       -0.141   8.063  -0.090  0.00  0.00    -0.100 A 
ATOM     21  C   LIG    1        0.830   7.373  -0.873  0.00  0.00    +0.040 A 
ATOM     22  C   LIG    1        0.291   3.877   0.372  0.00  0.00    -0.070 A 
ATOM     23  C   LIG    1       -0.796   3.013   0.360  0.00  0.00    +0.060 A 
ENDROOT
BRANCH  21  24
ATOM     24  C   LIG    1        1.702   8.108  -1.820  0.00  0.00    -0.050 A 
ATOM     25  C   LIG    1        1.509   7.979  -3.194  0.00  0.00    +0.020 A 
ATOM     26  C   LIG    1        2.321   8.669  -4.071  0.00  0.00    +0.010 A 
ATOM     27  C   LIG    1        3.332   9.481  -3.588  0.00  0.00    +0.020 A 
ATOM     28  C   LIG    1        3.531   9.610  -2.225  0.00  0.00    +0.010 A 
ATOM     29  C   LIG    1        2.723   8.928  -1.339  0.00  0.00    +0.020 A 
ENDBRANCH  21  24
TORSDOF 1
