REMARK  Name = ZINCpe00000RbvjD.0
REMARK                            x       y       z     vdW  Elec       q    Type
REMARK                         _______ _______ _______ _____ _____    ______ ____
ROOT
ATOM      1  C   LIG    1       -0.755   1.594  -1.231  0.00  0.00    +0.280 C 
ATOM      2  C   LIG    1       -0.013   1.086   0.008  0.00  0.00    +0.180 C 
ATOM      3  N   LIG    1       -0.703   1.561   1.216  0.00  0.00    -0.530 NA
ATOM      4  C   LIG    1       -0.769   3.029   1.235  0.00  0.00    +0.160 C 
ATOM      5  C   LIG    1       -1.504   3.518  -0.017  0.00  0.00    +0.250 C 
ATOM      6  O   LIG    1       -0.837   3.021  -1.180  0.00  0.00    -0.370 OA
ENDROOT
BRANCH   1  11
ATOM      7  C   LIG    1        0.445  -0.381  -5.723  0.00  0.00    +0.200 C 
ATOM      8  C   LIG    1        0.507   0.330  -4.396  0.00  0.00    +0.190 A 
ATOM      9  N   LIG    1        1.552   0.919  -3.882  0.00  0.00    -0.290 NA
ATOM     10  N   LIG    1        1.246   1.422  -2.738  0.00  0.00    -0.260 NA
ATOM     11  C   LIG    1       -0.008   1.177  -2.471  0.00  0.00    +0.170 A 
ATOM     12  N   LIG    1       -0.511   0.473  -3.514  0.00  0.00    -0.570 N 
ATOM     13  H   LIG    1       -1.417   0.140  -3.609  0.00  0.00    +0.430 HD
ENDBRANCH   1  11
BRANCH   3  14
ATOM     14  C   LIG    1       -0.053   1.047   2.430  0.00  0.00    +0.180 C 
BRANCH  14  15
ATOM     15  C   LIG    1       -0.634   1.753   3.657  0.00  0.00    +0.300 C 
BRANCH  15  16
ATOM     16  N   LIG    1        0.014   1.241   4.867  0.00  0.00    -0.550 N 
ATOM     17  C   LIG    1       -0.519   0.172   5.515  0.00  0.00    +0.570 A 
ATOM     18  N   LIG    1       -0.001  -0.343   6.588  0.00  0.00    -0.520 NA
ATOM     19  C   LIG    1        1.122   0.168   7.152  0.00  0.00    +0.150 A 
ATOM     20  C   LIG    1        1.676  -0.381   8.310  0.00  0.00    +0.030 A 
ATOM     21  C   LIG    1        2.817   0.170   8.848  0.00  0.00    +0.070 A 
ATOM     22  C   LIG    1        3.426   1.268   8.253  0.00  0.00    +0.000 A 
ATOM     23  C   LIG    1        2.898   1.828   7.110  0.00  0.00    +0.100 A 
ATOM     24  C   LIG    1        1.744   1.285   6.550  0.00  0.00    -0.200 A 
ATOM     25  C   LIG    1        1.135   1.840   5.332  0.00  0.00    +0.550 A 
ATOM     26  O   LIG    1        1.621   2.801   4.763  0.00  0.00    -0.510 OA
ENDBRANCH  15  16
ENDBRANCH  14  15
ENDBRANCH   3  14
TORSDOF 4
