REMARK  Name = ZINCpe00000RbvjD.1
REMARK                            x       y       z     vdW  Elec       q    Type
REMARK                         _______ _______ _______ _____ _____    ______ ____
ROOT
ATOM      1  C   LIG    1       -1.212  -0.896   0.010  0.00  0.00    +0.290 C 
ATOM      2  C   LIG    1       -1.832  -0.905   1.410  0.00  0.00    +0.170 C 
ATOM      3  N   LIG    1       -3.059  -1.715   1.392  0.00  0.00    -0.530 NA
ATOM      4  C   LIG    1       -4.022  -1.180   0.418  0.00  0.00    +0.150 C 
ATOM      5  C   LIG    1       -3.380  -1.169  -0.972  0.00  0.00    +0.250 C 
ATOM      6  O   LIG    1       -2.173  -0.403  -0.928  0.00  0.00    -0.370 OA
ENDROOT
BRANCH   1  10
ATOM      7  C   LIG    1        3.579   0.558  -0.029  0.00  0.00    +0.210 C 
ATOM      8  C   LIG    1        2.073   0.612  -0.015  0.00  0.00    +0.290 A 
ATOM      9  N   LIG    1        1.268  -0.419  -0.012  0.00  0.00    -0.530 NA
ATOM     10  C   LIG    1        0.002  -0.004   0.002  0.00  0.00    +0.230 A 
ATOM     11  N   LIG    1       -0.016   1.303   0.009  0.00  0.00    -0.290 NA
ATOM     12  N   LIG    1        1.323   1.727  -0.001  0.00  0.00    -0.480 N 
ATOM     13  H   LIG    1        1.643   2.643   0.001  0.00  0.00    +0.440 HD
ENDBRANCH   1  10
BRANCH   3  14
ATOM     14  C   LIG    1       -3.655  -1.796   2.732  0.00  0.00    +0.170 C 
BRANCH  14  15
ATOM     15  C   LIG    1       -5.045  -2.426   2.634  0.00  0.00    +0.300 C 
BRANCH  15  16
ATOM     16  N   LIG    1       -5.640  -2.507   3.971  0.00  0.00    -0.550 N 
ATOM     17  C   LIG    1       -6.388  -1.474   4.438  0.00  0.00    +0.570 A 
ATOM     18  N   LIG    1       -6.948  -1.470   5.609  0.00  0.00    -0.520 NA
ATOM     19  C   LIG    1       -6.821  -2.518   6.462  0.00  0.00    +0.150 A 
ATOM     20  C   LIG    1       -7.423  -2.515   7.721  0.00  0.00    +0.030 A 
ATOM     21  C   LIG    1       -7.268  -3.600   8.554  0.00  0.00    +0.070 A 
ATOM     22  C   LIG    1       -6.519  -4.700   8.157  0.00  0.00    +0.000 A 
ATOM     23  C   LIG    1       -5.915  -4.726   6.919  0.00  0.00    +0.100 A 
ATOM     24  C   LIG    1       -6.059  -3.638   6.061  0.00  0.00    -0.200 A 
ATOM     25  C   LIG    1       -5.444  -3.613   4.726  0.00  0.00    +0.550 A 
ATOM     26  O   LIG    1       -4.780  -4.548   4.318  0.00  0.00    -0.500 OA
ENDBRANCH  15  16
ENDBRANCH  14  15
ENDBRANCH   3  14
TORSDOF 4
