REMARK  Name = ZINCpe000000Zlqx.0
REMARK                            x       y       z     vdW  Elec       q    Type
REMARK                         _______ _______ _______ _____ _____    ______ ____
ROOT
ATOM      1  C   LIG    1       -2.120   5.339   4.043  0.00  0.00    -0.020 C 
ATOM      2  C   LIG    1       -1.568   6.665   4.572  0.00  0.00    +0.060 C 
ATOM      3  C   LIG    1       -2.487   7.200   5.673  0.00  0.00    +0.010 C 
ATOM      4  C   LIG    1       -3.880   7.455   5.090  0.00  0.00    +0.270 C 
ATOM      5  N   LIG    1       -4.359   6.221   4.450  0.00  0.00    -0.610 N 
ATOM      6  C   LIG    1       -5.554   5.694   4.783  0.00  0.00    +0.520 C 
ATOM      7  O   LIG    1       -5.937   4.676   4.248  0.00  0.00    -0.530 OA
ATOM      8  C   LIG    1       -3.509   5.573   3.441  0.00  0.00    +0.300 C 
ENDROOT
BRANCH   1  10
ATOM      9  O   LIG    1       -0.196   5.411   2.678  0.00  0.00    -0.520 OA
ATOM     10  C   LIG    1       -1.197   4.798   2.982  0.00  0.00    +0.530 C 
ATOM     11  N   LIG    1       -1.484   3.631   2.370  0.00  0.00    -0.720 N 
ATOM     12  H   LIG    1       -2.285   3.141   2.613  0.00  0.00    +0.400 HD
BRANCH  11  13
ATOM     13  C   LIG    1       -0.587   3.105   1.339  0.00  0.00    +0.260 C 
ATOM     14  C   LIG    1       -0.737   1.584   1.265  0.00  0.00    +0.040 C 
ATOM     15  C   LIG    1       -0.013   1.086   0.008  0.00  0.00    +0.040 C 
ATOM     16  C   LIG    1       -0.759   1.596  -1.226  0.00  0.00    +0.260 C 
ATOM     17  N   LIG    1       -0.986   3.032  -1.127  0.00  0.00    -0.720 N 
ATOM     18  H   LIG    1       -1.187   3.517  -1.942  0.00  0.00    +0.400 HD
ATOM     19  C   LIG    1       -0.935   3.720   0.014  0.00  0.00    +0.500 C 
ATOM     20  O   LIG    1       -1.181   4.907  -0.020  0.00  0.00    -0.530 OA
ENDBRANCH  11  13
ENDBRANCH   1  10
BRANCH   6  21
ATOM     21  C   LIG    1       -6.413   6.371   5.819  0.00  0.00    +0.100 C 
BRANCH  21  22
ATOM     22  C   LIG    1       -7.687   5.587   6.005  0.00  0.00    -0.070 A 
ATOM     23  C   LIG    1       -8.797   5.879   5.236  0.00  0.00    +0.010 A 
ATOM     24  C   LIG    1       -9.964   5.157   5.403  0.00  0.00    +0.000 A 
ATOM     25  C   LIG    1      -10.023   4.149   6.347  0.00  0.00    +0.000 A 
ATOM     26  C   LIG    1       -8.914   3.859   7.120  0.00  0.00    +0.000 A 
ATOM     27  C   LIG    1       -7.746   4.579   6.949  0.00  0.00    +0.010 A 
ENDBRANCH  21  22
ENDBRANCH   6  21
TORSDOF 4
