REMARK  Name = ZINCrH000004rvO6.1
REMARK                            x       y       z     vdW  Elec       q    Type
REMARK                         _______ _______ _______ _____ _____    ______ ____
ROOT
ATOM      1  C   LIG    1        3.797   2.578  -1.818  0.00  0.00    +0.120 A 
ATOM      2  C   LIG    1        4.305   3.453  -0.866  0.00  0.00    +0.050 A 
ATOM      3  C   LIG    1        4.647   4.741  -1.228  0.00  0.00    -0.110 A 
ATOM      4  C   LIG    1        4.476   5.163  -2.533  0.00  0.00    +0.060 A 
ATOM      5  C   LIG    1        3.967   4.296  -3.482  0.00  0.00    +0.020 A 
ATOM      6  C   LIG    1        3.626   3.005  -3.129  0.00  0.00    -0.080 A 
ATOM      7  C   LIG    1        3.070   2.061  -4.163  0.00  0.00    +0.090 C 
ENDROOT
BRANCH   1   8
ATOM      8  N   LIG    1        3.453   1.273  -1.456  0.00  0.00    -1.060 N 
ATOM      9  H   LIG    1        3.949   0.523  -1.821  0.00  0.00    +0.430 HD
BRANCH   8  10
ATOM     10  S   LIG    1        2.201   1.008  -0.406  0.00  0.00    +2.690 S 
ATOM     11  O   LIG    1        2.101  -0.401  -0.249  0.00  0.00    -0.950 OA
ATOM     12  O   LIG    1        2.394   1.900   0.682  0.00  0.00    -0.940 OA
BRANCH  10  17
ATOM     13  C   LIG    1       -2.862   2.771  -3.179  0.00  0.00    +0.120 C 
ATOM     14  C   LIG    1       -1.597   2.332  -2.487  0.00  0.00    +0.000 A 
ATOM     15  C   LIG    1       -1.410   1.000  -2.170  0.00  0.00    -0.010 A 
ATOM     16  C   LIG    1       -0.252   0.596  -1.530  0.00  0.00    +0.160 A 
ATOM     17  C   LIG    1        0.723   1.523  -1.216  0.00  0.00    -0.720 A 
ATOM     18  C   LIG    1        0.539   2.857  -1.538  0.00  0.00    +0.210 A 
ATOM     19  F   LIG    1        1.492   3.764  -1.232  0.00  0.00    -0.110 F 
ATOM     20  C   LIG    1       -0.623   3.261  -2.174  0.00  0.00    -0.040 A 
ENDBRANCH  10  17
ENDBRANCH   8  10
ENDBRANCH   1   8
BRANCH   3  21
ATOM     21  C   LIG    1        5.203   5.690  -0.197  0.00  0.00    +0.330 C 
BRANCH  21  22
ATOM     22  C   LIG    1        4.085   6.525   0.372  0.00  0.00    +0.100 A 
ATOM     23  C   LIG    1        3.877   6.549   1.738  0.00  0.00    -0.010 A 
ATOM     24  C   LIG    1        2.849   7.325   2.251  0.00  0.00    +0.070 A 
ATOM     25  C   LIG    1        2.058   8.042   1.366  0.00  0.00    -0.030 A 
ATOM     26  C   LIG    1        2.323   7.965   0.012  0.00  0.00    +0.260 A 
ATOM     27  N   LIG    1        3.313   7.220  -0.441  0.00  0.00    -0.470 NA
ENDBRANCH  21  22
BRANCH  21  28
ATOM     28  O   LIG    1        6.172   6.544  -0.809  0.00  0.00    -0.540 OA
ATOM     29  H   LIG    1        5.822   7.082  -1.532  0.00  0.00    +0.380 HD
ENDBRANCH  21  28
ENDBRANCH   3  21
TORSDOF 6
