REMARK  Name = ZINCpe000000SUQ2.0
REMARK                            x       y       z     vdW  Elec       q    Type
REMARK                         _______ _______ _______ _____ _____    ______ ____
ROOT
ATOM      1  C   LIG    1        4.140  -0.196  -2.897  0.00  0.00    +0.520 C 
ATOM      2  N   LIG    1        5.032  -1.156  -2.582  0.00  0.00    -0.640 N 
ATOM      3  H   LIG    1        5.840  -0.927  -2.096  0.00  0.00    +0.410 HD
ATOM      4  O   LIG    1        3.130  -0.483  -3.504  0.00  0.00    -0.510 OA
ENDROOT
BRANCH   1   7
ATOM      5  C   LIG    1        2.403   1.016  -1.024  0.00  0.00    +0.220 C 
ATOM      6  C   LIG    1        3.859   1.481  -1.082  0.00  0.00    +0.060 C 
ATOM      7  C   LIG    1        4.398   1.233  -2.495  0.00  0.00    +0.000 C 
ATOM      8  C   LIG    1        3.674   2.177  -3.458  0.00  0.00    +0.100 C 
ATOM      9  C   LIG    1        2.191   2.102  -3.229  0.00  0.00    +0.540 C 
ATOM     10  O   LIG    1        1.454   2.522  -4.095  0.00  0.00    -0.560 OA
ATOM     11  N   LIG    1        1.642   1.597  -2.123  0.00  0.00    -0.710 N 
ATOM     12  H   LIG    1        0.675   1.617  -2.046  0.00  0.00    +0.400 HD
BRANCH   5  13
ATOM     13  C   LIG    1        1.785   1.454   0.305  0.00  0.00    +0.010 C 
BRANCH  13  15
ATOM     14  C   LIG    1        2.242  -0.760   1.371  0.00  0.00    +0.020 C 
ATOM     15  C   LIG    1        2.501   0.745   1.458  0.00  0.00    -0.020 C 
ATOM     16  C   LIG    1        1.971   1.278   2.791  0.00  0.00    +0.030 C 
ENDBRANCH  13  15
ENDBRANCH   5  13
ENDBRANCH   1   7
BRANCH   2  17
ATOM     17  C   LIG    1        4.791  -2.492  -2.957  0.00  0.00    +0.000 A 
ATOM     18  C   LIG    1        5.601  -3.551  -2.705  0.00  0.00    +0.200 A 
ATOM     19  N   LIG    1        5.009  -4.654  -3.231  0.00  0.00    -0.360 N 
ATOM     20  N   LIG    1        3.803  -4.255  -3.821  0.00  0.00    -0.280 NA
ATOM     21  C   LIG    1        3.669  -2.964  -3.652  0.00  0.00    +0.270 A 
BRANCH  19  22
ATOM     22  C   LIG    1        5.537  -6.020  -3.189  0.00  0.00    +0.280 C 
ATOM     23  C   LIG    1        5.229  -6.678  -1.824  0.00  0.00    +0.060 C 
ATOM     24  C   LIG    1        6.504  -7.517  -1.583  0.00  0.00    +0.270 C 
ATOM     25  N   LIG    1        7.563  -6.848  -2.348  0.00  0.00    -0.720 N 
ATOM     26  H   LIG    1        8.512  -6.995  -2.213  0.00  0.00    +0.420 HD
ATOM     27  C   LIG    1        7.048  -6.005  -3.261  0.00  0.00    +0.510 C 
ATOM     28  O   LIG    1        7.700  -5.332  -4.030  0.00  0.00    -0.500 OA
ENDBRANCH  19  22
ENDBRANCH   2  17
TORSDOF 5
