REMARK  Name = ZINCqH0000003egQ.0
REMARK                            x       y       z     vdW  Elec       q    Type
REMARK                         _______ _______ _______ _____ _____    ______ ____
ROOT
ATOM      1  N   LIG    1       -2.926   1.929   2.463  0.00  0.00    -0.740 N 
ATOM      2  H   LIG    1       -2.368   2.362   1.798  0.00  0.00    +0.400 HD
ATOM      3  C   LIG    1       -4.255   1.823   2.260  0.00  0.00    +0.710 C 
ATOM      4  N   LIG    1       -4.807   2.317   1.135  0.00  0.00    -0.730 N 
ATOM      5  H   LIG    1       -4.248   2.749   0.470  0.00  0.00    +0.400 HD
ATOM      6  O   LIG    1       -4.955   1.280   3.094  0.00  0.00    -0.590 OA
ENDROOT
BRANCH   4   7
ATOM      7  C   LIG    1       -6.250   2.200   0.915  0.00  0.00    +0.250 C 
ATOM      8  C   LIG    1       -6.631   1.140  -0.132  0.00  0.00    +0.030 C 
ATOM      9  C   LIG    1       -6.506   2.255  -1.188  0.00  0.00    +0.030 C 
ATOM     10  C   LIG    1       -6.812   3.251  -0.057  0.00  0.00    +0.040 C 
BRANCH   9  11
ATOM     11  C   LIG    1       -7.572   2.203  -2.252  0.00  0.00    -0.070 A 
ATOM     12  C   LIG    1       -7.255   2.513  -3.562  0.00  0.00    +0.060 A 
ATOM     13  C   LIG    1       -8.231   2.466  -4.539  0.00  0.00    +0.010 A 
ATOM     14  C   LIG    1       -9.527   2.109  -4.207  0.00  0.00    +0.100 A 
ATOM     15  C   LIG    1       -9.843   1.799  -2.894  0.00  0.00    -0.070 A 
ATOM     16 CL   LIG    1      -11.467   1.351  -2.474  0.00  0.00    -0.050 Cl
ATOM     17  F   LIG    1      -10.482   2.063  -5.161  0.00  0.00    -0.130 F 
ATOM     18  C   LIG    1       -8.864   1.841  -1.919  0.00  0.00    +0.060 A 
ENDBRANCH   9  11
ENDBRANCH   4   7
BRANCH   1  19
ATOM     19  C   LIG    1       -2.326   1.392   3.687  0.00  0.00    +0.340 C 
BRANCH  19  20
ATOM     20  C   LIG    1       -0.817   1.643   3.667  0.00  0.00    -0.100 C 
ATOM     21  C   LIG    1       -0.421   3.066   4.093  0.00  0.00    +0.050 C 
ATOM     22  C   LIG    1       -0.368   2.534   5.535  0.00  0.00    +0.030 C 
ATOM     23  C   LIG    1       -0.094   1.147   4.930  0.00  0.00    +0.070 C 
BRANCH  20  24
ATOM     24  C   LIG    1       -0.166   1.194   2.384  0.00  0.00    +0.480 C 
ATOM     25  O   LIG    1        0.829   0.510   2.418  0.00  0.00    -0.500 OA
BRANCH  24  26
ATOM     26  O   LIG    1       -0.692   1.554   1.203  0.00  0.00    -0.360 OA
BRANCH  26  28
ATOM     27  C   LIG    1       -0.753   1.593  -1.232  0.00  0.00    +0.070 C 
ATOM     28  C   LIG    1       -0.013   1.086   0.008  0.00  0.00    +0.200 C 
ENDBRANCH  26  28
ENDBRANCH  24  26
ENDBRANCH  20  24
ENDBRANCH  19  20
ENDBRANCH   1  19
TORSDOF 7
