REMARK  Name = ZINCBI0000000hwj.1
REMARK                            x       y       z     vdW  Elec       q    Type
REMARK                         _______ _______ _______ _____ _____    ______ ____
ROOT
ATOM      1  N   LIG    1       -4.144  -0.133   1.452  0.00  0.00    -0.500 N 
ATOM      2  C   LIG    1       -5.336   0.580   1.408  0.00  0.00    +0.590 C 
ATOM      3  C   LIG    1       -6.469   0.050   2.191  0.00  0.00    -0.290 C 
ATOM      4  C   LIG    1       -6.467  -1.307   2.499  0.00  0.00    +0.330 C 
ATOM      5  C   LIG    1       -5.388  -2.101   2.086  0.00  0.00    -0.350 A 
ATOM      6  C   LIG    1       -5.435  -3.514   2.199  0.00  0.00    +0.560 A 
ATOM      7  O   LIG    1       -6.396  -4.066   2.706  0.00  0.00    -0.460 OA
ATOM      8  N   LIG    1       -4.391  -4.234   1.732  0.00  0.00    -0.430 N 
ATOM      9  C   LIG    1       -4.429  -5.594   1.821  0.00  0.00    +0.320 A 
ATOM     10  C   LIG    1       -3.410  -6.347   1.350  0.00  0.00    +0.030 A 
ATOM     11  C   LIG    1       -2.296  -5.733   0.762  0.00  0.00    +0.190 A 
ATOM     12  C   LIG    1       -2.246  -4.374   0.673  0.00  0.00    +0.040 A 
ATOM     13  C   LIG    1       -3.313  -3.606   1.173  0.00  0.00    +0.450 A 
ATOM     14  N   LIG    1       -3.248  -2.276   1.088  0.00  0.00    -0.560 NA
ATOM     15  C   LIG    1       -4.231  -1.507   1.528  0.00  0.00    +0.500 A 
ENDROOT
BRANCH   3  16
ATOM     16  C   LIG    1       -7.560   0.927   2.633  0.00  0.00    +0.590 C 
ATOM     17  N   LIG    1       -8.640   0.402   3.245  0.00  0.00    -0.710 N 
ATOM     18  H   LIG    1       -8.665  -0.544   3.458  0.00  0.00    +0.400 HD
ATOM     19  O   LIG    1       -7.489   2.127   2.448  0.00  0.00    -0.540 OA
BRANCH  17  20
ATOM     20  C   LIG    1       -9.777   1.260   3.587  0.00  0.00    +0.290 C 
ATOM     21  C   LIG    1       -9.521   1.932   4.937  0.00  0.00    +0.050 C 
BRANCH  20  22
ATOM     22  C   LIG    1      -11.029   0.425   3.670  0.00  0.00    -0.100 A 
ATOM     23  C   LIG    1      -10.984  -0.832   4.242  0.00  0.00    +0.000 A 
ATOM     24  C   LIG    1      -12.134  -1.596   4.322  0.00  0.00    +0.020 A 
ATOM     25  C   LIG    1      -13.326  -1.106   3.822  0.00  0.00    +0.020 A 
ATOM     26  C   LIG    1      -13.369   0.149   3.246  0.00  0.00    +0.020 A 
ATOM     27  C   LIG    1      -12.221   0.915   3.169  0.00  0.00    +0.030 A 
ENDBRANCH  20  22
ENDBRANCH  17  20
ENDBRANCH   3  16
BRANCH   2  28
ATOM     28  N   LIG    1       -5.452   1.676   0.701  0.00  0.00    -0.710 NA
ATOM     29  H   LIG    1       -6.272   2.192   0.737  0.00  0.00    +0.460 HD
ATOM     30  H   LIG    1       -4.717   1.971   0.141  0.00  0.00    +0.430 HD
ENDBRANCH   2  28
BRANCH   1  31
ATOM     31  C   LIG    1       -2.847   0.548   1.425  0.00  0.00    +0.330 C 
BRANCH  31  32
ATOM     32  C   LIG    1       -2.384   0.705  -0.025  0.00  0.00    +0.080 C 
BRANCH  32  36
ATOM     33  C   LIG    1        1.399   2.692  -0.110  0.00  0.00    +0.140 A 
ATOM     34  C   LIG    1        1.343   1.308  -0.033  0.00  0.00    -0.010 A 
ATOM     35  C   LIG    1        0.118   0.668  -0.002  0.00  0.00    +0.070 A 
ATOM     36  C   LIG    1       -1.050   1.406  -0.052  0.00  0.00    -0.140 A 
ATOM     37  C   LIG    1       -0.996   2.786  -0.123  0.00  0.00    +0.050 A 
ATOM     38  C   LIG    1        0.225   3.430  -0.155  0.00  0.00    -0.080 A 
BRANCH  33  40
ATOM     39  C   LIG    1        2.584   4.750  -0.221  0.00  0.00    +0.250 C 
ATOM     40  O   LIG    1        2.602   3.323  -0.141  0.00  0.00    -0.310 OA
ENDBRANCH  33  40
ENDBRANCH  32  36
ENDBRANCH  31  32
ENDBRANCH   1  31
TORSDOF 8
