REMARK  Name = ZINCvU00000006xR.0
REMARK                            x       y       z     vdW  Elec       q    Type
REMARK                         _______ _______ _______ _____ _____    ______ ____
ROOT
ATOM      1  C   LIG    1        8.806  -0.613  -0.540  0.00  0.00    +0.160 A 
ATOM      2  N   LIG    1        8.751  -1.927  -0.535  0.00  0.00    -0.290 NA
ATOM      3  N   LIG    1        9.931  -2.419  -0.658  0.00  0.00    -0.250 NA
ATOM      4  C   LIG    1       10.815  -1.452  -0.739  0.00  0.00    +0.230 A 
ATOM      5  N   LIG    1       10.121  -0.263  -0.666  0.00  0.00    -0.400 N 
ENDROOT
BRANCH   5   6
ATOM      6  C   LIG    1       10.653   1.033  -0.712  0.00  0.00    +0.090 A 
ATOM      7  C   LIG    1       11.033   1.670   0.462  0.00  0.00    +0.040 A 
ATOM      8  C   LIG    1       11.557   2.947   0.414  0.00  0.00    +0.030 A 
ATOM      9  C   LIG    1       11.703   3.591  -0.800  0.00  0.00    +0.050 A 
ATOM     10  C   LIG    1       11.326   2.959  -1.971  0.00  0.00    +0.030 A 
ATOM     11  C   LIG    1       10.806   1.680  -1.931  0.00  0.00    -0.060 A 
ATOM     12  C   LIG    1       10.401   0.990  -3.207  0.00  0.00    +0.100 C 
ENDBRANCH   5   6
BRANCH   4  13
ATOM     13  C   LIG    1       12.277  -1.607  -0.882  0.00  0.00    +0.030 A 
ATOM     14  C   LIG    1       13.081  -0.529  -1.274  0.00  0.00    -0.020 A 
ATOM     15  C   LIG    1       14.442  -0.718  -1.389  0.00  0.00    +0.270 A 
ATOM     16  N   LIG    1       14.986  -1.896  -1.147  0.00  0.00    -0.470 NA
ATOM     17  C   LIG    1       14.265  -2.939  -0.782  0.00  0.00    +0.280 A 
ATOM     18  C   LIG    1       12.898  -2.839  -0.636  0.00  0.00    +0.020 A 
ENDBRANCH   4  13
BRANCH   1  19
ATOM     19  S   LIG    1        7.439   0.491  -0.402  0.00  0.00    +0.100 S 
BRANCH  19  20
ATOM     20  C   LIG    1        6.083  -0.701  -0.276  0.00  0.00    +0.100 C 
BRANCH  20  23
ATOM     21  N   LIG    1        3.622  -0.651  -0.036  0.00  0.00    -0.670 N 
ATOM     22  H   LIG    1        3.638  -1.618   0.035  0.00  0.00    +0.420 HD
ATOM     23  C   LIG    1        4.776   0.037  -0.145  0.00  0.00    +0.540 C 
ATOM     24  O   LIG    1        4.762   1.250  -0.139  0.00  0.00    -0.500 OA
BRANCH  21  28
ATOM     25  C   LIG    1        0.872   3.129  -1.560  0.00  0.00    +0.100 C 
ATOM     26  C   LIG    1        1.039   1.866  -0.756  0.00  0.00    -0.030 A 
ATOM     27  C   LIG    1        2.246   1.195  -0.768  0.00  0.00    +0.020 A 
ATOM     28  C   LIG    1        2.399   0.031  -0.026  0.00  0.00    +0.160 A 
ATOM     29  C   LIG    1        1.338  -0.455   0.725  0.00  0.00    +0.000 A 
ATOM     30  C   LIG    1        0.133   0.220   0.734  0.00  0.00    +0.080 A 
ATOM     31  C   LIG    1       -0.017   1.379  -0.006  0.00  0.00    -0.110 A 
ATOM     32 BR   LIG    1       -1.666   2.304   0.014  0.00  0.00    -0.040 Br
ENDBRANCH  21  28
ENDBRANCH  20  23
ENDBRANCH  19  20
ENDBRANCH   1  19
TORSDOF 6
