REMARK  Name = ZINCtV00000L6kZc.0
REMARK                            x       y       z     vdW  Elec       q    Type
REMARK                         _______ _______ _______ _____ _____    ______ ____
ROOT
ATOM      1  C   LIG    1        1.653   2.106  -0.042  0.00  0.00    +0.170 A 
ATOM      2  N   LIG    1        2.596   1.196  -0.147  0.00  0.00    -0.290 NA
ATOM      3  N   LIG    1        3.753   1.755  -0.138  0.00  0.00    -0.260 NA
ATOM      4  C   LIG    1        3.620   3.056  -0.018  0.00  0.00    +0.230 A 
ATOM      5  N   LIG    1        2.272   3.320   0.047  0.00  0.00    -0.460 N 
ENDROOT
BRANCH   4   6
ATOM      6  C   LIG    1        4.714   4.049   0.037  0.00  0.00    -0.010 A 
ATOM      7  C   LIG    1        5.999   3.700  -0.383  0.00  0.00    +0.090 A 
ATOM      8  C   LIG    1        7.014   4.632  -0.334  0.00  0.00    +0.050 A 
ATOM      9  C   LIG    1        6.764   5.909   0.140  0.00  0.00    -0.020 A 
ATOM     10  C   LIG    1        5.492   6.259   0.563  0.00  0.00    +0.040 A 
ATOM     11 CL   LIG    1        8.049   7.074   0.206  0.00  0.00    -0.060 Cl
ATOM     12  C   LIG    1        4.468   5.337   0.514  0.00  0.00    +0.020 A 
ENDBRANCH   4   6
BRANCH   1  13
ATOM     13  S   LIG    1       -0.084   1.813  -0.014  0.00  0.00    +0.020 S 
BRANCH  13  14
ATOM     14  C   LIG    1       -0.102   0.011  -0.174  0.00  0.00    +0.090 C 
BRANCH  14  15
ATOM     15  C   LIG    1       -1.548  -0.487  -0.173  0.00  0.00    +0.060 C 
BRANCH  15  16
ATOM     16  C   LIG    1       -1.563  -2.011  -0.309  0.00  0.00    +0.040 C 
BRANCH  16  18
ATOM     17  O   LIG    1       -3.903  -1.709  -0.209  0.00  0.00    -0.450 OA
ATOM     18  C   LIG    1       -2.988  -2.502  -0.308  0.00  0.00    +0.430 C 
BRANCH  18  19
ATOM     19  C   LIG    1       -3.260  -3.883  -0.423  0.00  0.00    -0.310 A 
ATOM     20  C   LIG    1       -4.508  -4.451  -0.435  0.00  0.00    +0.110 A 
ATOM     21  C   LIG    1       -4.481  -5.817  -0.558  0.00  0.00    -0.010 A 
ATOM     22  C   LIG    1       -3.257  -6.356  -0.645  0.00  0.00    -0.050 A 
ATOM     23  S   LIG    1       -2.052  -5.151  -0.582  0.00  0.00    +0.230 S 
ENDBRANCH  18  19
ENDBRANCH  16  18
ENDBRANCH  15  16
ENDBRANCH  14  15
ENDBRANCH  13  14
ENDBRANCH   1  13
BRANCH   5  24
ATOM     24  C   LIG    1        1.633   4.631   0.184  0.00  0.00    +0.440 C 
BRANCH  24  25
ATOM     25  C   LIG    1        1.307   4.882   1.634  0.00  0.00    -0.060 A 
ATOM     26  C   LIG    1        2.060   5.587   2.499  0.00  0.00    -0.020 A 
ATOM     27  C   LIG    1        1.383   5.568   3.740  0.00  0.00    -0.060 A 
ATOM     28  C   LIG    1        0.258   4.854   3.560  0.00  0.00    +0.200 A 
ATOM     29  O   LIG    1        0.214   4.446   2.281  0.00  0.00    -0.160 OA
ENDBRANCH  24  25
ENDBRANCH   5  24
TORSDOF 9
