REMARK  Name = ZINCqH0000003iho.0
REMARK                            x       y       z     vdW  Elec       q    Type
REMARK                         _______ _______ _______ _____ _____    ______ ____
ROOT
ATOM      1  N   LIG    1        1.030  10.266   0.045  0.00  0.00    -0.720 N 
ATOM      2  H   LIG    1        1.877   9.792   0.035  0.00  0.00    +0.400 HD
ATOM      3  C   LIG    1       -0.128   9.576   0.053  0.00  0.00    +0.560 C 
ATOM      4  O   LIG    1       -1.189  10.170   0.067  0.00  0.00    -0.530 OA
ENDROOT
BRANCH   1   9
ATOM      5  C   LIG    1        2.800  15.195  -1.239  0.00  0.00    +0.650 C 
ATOM      6  N   LIG    1        1.992  14.286  -0.657  0.00  0.00    -0.600 N 
ATOM      7  C   LIG    1        2.278  13.786   0.694  0.00  0.00    +0.310 C 
ATOM      8  C   LIG    1        2.317  12.255   0.655  0.00  0.00    +0.030 C 
ATOM      9  C   LIG    1        1.010  11.731   0.054  0.00  0.00    +0.250 C 
ATOM     10  C   LIG    1        0.863  12.247  -1.379  0.00  0.00    +0.010 C 
ATOM     11  C   LIG    1        0.807  13.778  -1.363  0.00  0.00    +0.300 C 
ATOM     12  O   LIG    1        3.776  15.608  -0.644  0.00  0.00    -0.570 OA
BRANCH   5  13
ATOM     13  O   LIG    1        2.525  15.645  -2.478  0.00  0.00    -0.370 OA
BRANCH  13  15
ATOM     14  C   LIG    1        2.967  17.012  -4.444  0.00  0.00    +0.070 C 
ATOM     15  C   LIG    1        3.439  16.623  -3.041  0.00  0.00    +0.220 C 
ENDBRANCH  13  15
ENDBRANCH   5  13
ENDBRANCH   1   9
BRANCH   3  16
ATOM     16  C   LIG    1       -0.108   8.099   0.044  0.00  0.00    -0.140 A 
ATOM     17  C   LIG    1       -1.308   7.384   0.052  0.00  0.00    +0.090 A 
ATOM     18  C   LIG    1       -1.288   6.007   0.044  0.00  0.00    +0.010 A 
ATOM     19  C   LIG    1       -0.070   5.327   0.029  0.00  0.00    -0.010 A 
ATOM     20  C   LIG    1        1.129   6.040   0.027  0.00  0.00    +0.010 A 
ATOM     21  C   LIG    1        1.111   7.417   0.029  0.00  0.00    +0.050 A 
BRANCH  19  22
ATOM     22  C   LIG    1       -0.050   3.844   0.022  0.00  0.00    -0.060 A 
ATOM     23  C   LIG    1        1.165   3.161   0.007  0.00  0.00    +0.020 A 
ATOM     24  C   LIG    1        1.177   1.781   0.000  0.00  0.00    +0.010 A 
ATOM     25  C   LIG    1       -0.013   1.076   0.008  0.00  0.00    +0.010 A 
ATOM     26  C   LIG    1       -1.221   1.748   0.017  0.00  0.00    +0.010 A 
ATOM     27  C   LIG    1       -1.246   3.128   0.030  0.00  0.00    +0.020 A 
ENDBRANCH  19  22
ENDBRANCH   3  16
TORSDOF 5
