REMARK  Name = ZINCkj000005b6m4.0
REMARK                            x       y       z     vdW  Elec       q    Type
REMARK                         _______ _______ _______ _____ _____    ______ ____
ROOT
ATOM      1  N   LIG    1        0.978   3.039   2.271  0.00  0.00    -0.700 N 
ATOM      2  H   LIG    1        0.815   3.679   1.560  0.00  0.00    +0.410 HD
ATOM      3  C   LIG    1        0.292   1.879   2.304  0.00  0.00    +0.500 C 
ATOM      4  O   LIG    1        0.496   1.079   3.192  0.00  0.00    -0.520 OA
ENDROOT
BRANCH   3   5
ATOM      5  C   LIG    1       -0.728   1.577   1.237  0.00  0.00    +0.180 C 
ATOM      6  C   LIG    1       -0.013   1.086   0.008  0.00  0.00    +0.070 C 
ATOM      7  C   LIG    1       -0.771   1.603  -1.234  0.00  0.00    +0.040 C 
ATOM      8  C   LIG    1       -1.968   0.820  -1.512  0.00  0.00    +0.030 C 
ATOM      9  C   LIG    1       -2.980   0.868  -0.347  0.00  0.00    +0.050 C 
ATOM     10  C   LIG    1       -2.506  -0.073   0.728  0.00  0.00    +0.270 C 
ATOM     11  N   LIG    1       -1.700   0.598   1.770  0.00  0.00    -0.500 N 
ATOM     12  H   LIG    1       -1.195  -0.105   2.289  0.00  0.00    +0.440 HD
ATOM     13  H   LIG    1       -2.325   1.076   2.402  0.00  0.00    +0.430 HD
ENDBRANCH   3   5
BRANCH   1  14
ATOM     14  C   LIG    1        1.970   3.333   3.308  0.00  0.00    +0.390 C 
BRANCH  14  18
ATOM     15  C   LIG    1        3.922   6.693   2.358  0.00  0.00    -0.760 A 
ATOM     16  C   LIG    1        2.869   6.953   3.134  0.00  0.00    +0.160 A 
ATOM     17  C   LIG    1        2.131   5.843   3.507  0.00  0.00    +0.030 A 
ATOM     18  C   LIG    1        2.590   4.681   3.043  0.00  0.00    -0.200 A 
ATOM     19  S   LIG    1        4.026   4.962   2.066  0.00  0.00    +0.250 S 
BRANCH  15  21
ATOM     20  C   LIG    1        6.332   8.029   2.988  0.00  0.00    -0.230 C 
ATOM     21  S   LIG    1        5.039   7.899   1.723  0.00  0.00    +2.520 S 
ATOM     22  O   LIG    1        4.271   9.094   1.671  0.00  0.00    -0.920 OA
ATOM     23  O   LIG    1        5.556   7.308   0.539  0.00  0.00    -0.930 OA
ENDBRANCH  15  21
ENDBRANCH  14  18
ENDBRANCH   1  14
TORSDOF 4
