REMARK  Name = ZINCbw0000000HlB.0
REMARK                            x       y       z     vdW  Elec       q    Type
REMARK                         _______ _______ _______ _____ _____    ______ ____
ROOT
ATOM      1  C   LIG    1        4.008   3.322  -0.018  0.00  0.00    +0.130 C 
ATOM      2  C   LIG    1        3.696   1.848  -0.023  0.00  0.00    -0.060 A 
ATOM      3  C   LIG    1        4.635   0.923  -0.037  0.00  0.00    -0.020 A 
ATOM      4  S   LIG    1        3.948  -0.690  -0.040  0.00  0.00    +0.190 S 
ATOM      5  C   LIG    1        2.306  -0.064  -0.021  0.00  0.00    +0.090 A 
ATOM      6  N   LIG    1        1.124  -0.687  -0.013  0.00  0.00    -0.480 NA
ATOM      7  C   LIG    1        0.002  -0.004   0.002  0.00  0.00    +0.550 A 
ATOM      8  N   LIG    1       -0.016   1.317   0.009  0.00  0.00    -0.510 NA
ATOM      9  C   LIG    1        1.102   2.018   0.002  0.00  0.00    +0.280 A 
ATOM     10 CL   LIG    1        1.053   3.753   0.013  0.00  0.00    +0.010 Cl
ATOM     11  C   LIG    1        2.337   1.337  -0.013  0.00  0.00    -0.170 A 
ENDROOT
TORSDOF 0
