REMARK  Name = ZINCvU0000000Gf8.0
REMARK                            x       y       z     vdW  Elec       q    Type
REMARK                         _______ _______ _______ _____ _____    ______ ____
ROOT
ATOM      1  C   LIG    1       -6.772   5.490  -0.537  0.00  0.00    +0.150 A 
ATOM      2  N   LIG    1       -6.286   6.686  -0.289  0.00  0.00    -0.290 NA
ATOM      3  N   LIG    1       -7.204   7.574  -0.432  0.00  0.00    -0.260 NA
ATOM      4  C   LIG    1       -8.332   7.000  -0.779  0.00  0.00    +0.230 A 
ATOM      5  N   LIG    1       -8.089   5.649  -0.864  0.00  0.00    -0.460 N 
ENDROOT
BRANCH   4   6
ATOM      6  C   LIG    1       -9.620   7.679  -1.038  0.00  0.00    -0.010 A 
ATOM      7  C   LIG    1      -10.801   6.939  -1.106  0.00  0.00    +0.020 A 
ATOM      8  C   LIG    1      -12.000   7.578  -1.344  0.00  0.00    +0.040 A 
ATOM      9  C   LIG    1      -12.032   8.951  -1.524  0.00  0.00    -0.020 A 
ATOM     10  C   LIG    1      -10.863   9.690  -1.462  0.00  0.00    +0.050 A 
ATOM     11 CL   LIG    1      -13.543   9.748  -1.829  0.00  0.00    -0.060 Cl
ATOM     12  C   LIG    1       -9.658   9.063  -1.220  0.00  0.00    +0.090 A 
ENDBRANCH   4   6
BRANCH   1  13
ATOM     13  S   LIG    1       -5.888   3.968  -0.469  0.00  0.00    +0.100 S 
BRANCH  13  14
ATOM     14  C   LIG    1       -4.252   4.575   0.012  0.00  0.00    +0.110 C 
BRANCH  14  17
ATOM     15  N   LIG    1       -2.017   3.627   0.486  0.00  0.00    -0.670 N 
ATOM     16  H   LIG    1       -1.719   4.522   0.711  0.00  0.00    +0.410 HD
ATOM     17  C   LIG    1       -3.301   3.413   0.135  0.00  0.00    +0.530 C 
ATOM     18  O   LIG    1       -3.690   2.285  -0.082  0.00  0.00    -0.500 OA
BRANCH  15  26
ATOM     19  C   LIG    1       -1.758   2.002  -1.836  0.00  0.00    +0.100 C 
ATOM     20  C   LIG    1       -0.957   1.740  -0.586  0.00  0.00    -0.070 A 
ATOM     21  C   LIG    1       -0.069   0.683  -0.543  0.00  0.00    +0.020 A 
ATOM     22  C   LIG    1        0.670   0.445   0.601  0.00  0.00    +0.020 A 
ATOM     23  C   LIG    1        0.518   1.261   1.708  0.00  0.00    +0.010 A 
ATOM     24  C   LIG    1       -0.372   2.316   1.673  0.00  0.00    -0.090 A 
ATOM     25  C   LIG    1       -0.536   3.205   2.878  0.00  0.00    +0.080 C 
ATOM     26  C   LIG    1       -1.115   2.558   0.525  0.00  0.00    +0.130 A 
ENDBRANCH  15  26
ENDBRANCH  14  17
ENDBRANCH  13  14
ENDBRANCH   1  13
BRANCH   5  27
ATOM     27  C   LIG    1       -9.044   4.598  -1.225  0.00  0.00    +0.440 C 
BRANCH  27  28
ATOM     28  C   LIG    1       -9.589   3.962   0.028  0.00  0.00    -0.060 A 
ATOM     29  C   LIG    1      -10.755   4.271   0.623  0.00  0.00    -0.020 A 
ATOM     30  C   LIG    1      -10.867   3.437   1.760  0.00  0.00    -0.070 A 
ATOM     31  C   LIG    1       -9.763   2.669   1.790  0.00  0.00    +0.200 A 
ATOM     32  O   LIG    1       -8.995   2.988   0.736  0.00  0.00    -0.160 OA
ENDBRANCH  27  28
ENDBRANCH   5  27
TORSDOF 7
