REMARK  Name = ZINCqH0000001LoA.0
REMARK                            x       y       z     vdW  Elec       q    Type
REMARK                         _______ _______ _______ _____ _____    ______ ____
ROOT
ATOM      1  C   LIG    1       -2.451   0.806   0.130  0.00  0.00    -0.130 A 
ATOM      2  C   LIG    1       -2.396  -0.586   0.222  0.00  0.00    +0.040 A 
ATOM      3  C   LIG    1       -3.563  -1.313   0.333  0.00  0.00    +0.040 A 
ATOM      4  C   LIG    1       -4.786  -0.667   0.342  0.00  0.00    -0.090 A 
ATOM      5  C   LIG    1       -4.848   0.712   0.247  0.00  0.00    +0.040 A 
ATOM      6  C   LIG    1       -3.688   1.452   0.141  0.00  0.00    +0.080 A 
ENDROOT
BRANCH   1   9
ATOM      7  N   LIG    1       -0.011   0.966   0.007  0.00  0.00    -0.670 N 
ATOM      8  H   LIG    1        0.028  -0.003   0.007  0.00  0.00    +0.410 HD
ATOM      9  C   LIG    1       -1.204   1.592   0.017  0.00  0.00    +0.560 C 
ATOM     10  O   LIG    1       -1.256   2.804  -0.067  0.00  0.00    -0.510 OA
BRANCH   7  14
ATOM     11  C   LIG    1        3.509   3.192  -0.037  0.00  0.00    -0.090 A 
ATOM     12  C   LIG    1        3.458   1.997   0.657  0.00  0.00    +0.030 A 
ATOM     13  C   LIG    1        2.292   1.256   0.673  0.00  0.00    -0.010 A 
ATOM     14  C   LIG    1        1.171   1.713  -0.007  0.00  0.00    +0.140 A 
ATOM     15  C   LIG    1        1.228   2.911  -0.708  0.00  0.00    +0.020 A 
ATOM     16  C   LIG    1        2.395   3.650  -0.716  0.00  0.00    +0.030 A 
BRANCH  11  18
ATOM     17  C   LIG    1        5.267   4.156  -1.497  0.00  0.00    +0.030 C 
ATOM     18  C   LIG    1        4.783   3.997  -0.054  0.00  0.00    +0.020 C 
ATOM     19  C   LIG    1        4.522   5.378   0.552  0.00  0.00    +0.030 C 
ENDBRANCH  11  18
ENDBRANCH   7  14
ENDBRANCH   1   9
BRANCH   4  20
ATOM     20  C   LIG    1       -6.057  -1.469   0.458  0.00  0.00    +0.360 C 
BRANCH  20  21
ATOM     21  N   LIG    1       -6.532  -1.827  -0.881  0.00  0.00    -0.570 N 
ATOM     22  C   LIG    1       -7.374  -1.057  -1.581  0.00  0.00    +0.530 C 
ATOM     23  C   LIG    1       -7.657  -1.713  -2.915  0.00  0.00    +0.080 C 
ATOM     24  C   LIG    1       -6.831  -3.014  -2.860  0.00  0.00    +0.080 C 
ATOM     25  O   LIG    1       -7.835   0.000  -1.206  0.00  0.00    -0.480 OA
ATOM     26  C   LIG    1       -6.164  -2.954  -1.503  0.00  0.00    +0.530 C 
ATOM     27  O   LIG    1       -5.415  -3.793  -1.051  0.00  0.00    -0.480 OA
ENDBRANCH  20  21
ENDBRANCH   4  20
TORSDOF 5
