REMARK  Name = ZINCqH00000073Dw.0
REMARK                            x       y       z     vdW  Elec       q    Type
REMARK                         _______ _______ _______ _____ _____    ______ ____
ROOT
ATOM      1  C   LIG    1       -3.964  -3.856  -1.613  0.00  0.00    +0.560 C 
ATOM      2  N   LIG    1       -2.837  -3.157  -1.373  0.00  0.00    -0.730 N 
ATOM      3  H   LIG    1       -2.309  -2.819  -2.113  0.00  0.00    +0.400 HD
ATOM      4  O   LIG    1       -4.627  -4.279  -0.685  0.00  0.00    -0.520 OA
ENDROOT
BRANCH   1   8
ATOM      5  C   LIG    1       -5.198  -4.579  -5.616  0.00  0.00    +0.150 A 
ATOM      6  C   LIG    1       -4.036  -3.858  -5.363  0.00  0.00    -0.070 A 
ATOM      7  C   LIG    1       -3.634  -3.621  -4.069  0.00  0.00    +0.110 A 
ATOM      8  C   LIG    1       -4.394  -4.107  -3.000  0.00  0.00    -0.190 A 
ATOM      9  C   LIG    1       -5.563  -4.839  -3.253  0.00  0.00    +0.180 A 
ATOM     10  C   LIG    1       -5.962  -5.067  -4.562  0.00  0.00    +0.030 A 
BRANCH   5  12
ATOM     11  C   LIG    1       -4.756  -4.278  -7.932  0.00  0.00    +0.250 C 
ATOM     12  O   LIG    1       -5.587  -4.808  -6.897  0.00  0.00    -0.300 OA
ENDBRANCH   5  12
BRANCH   9  13
ATOM     13  O   LIG    1       -6.303  -5.319  -2.221  0.00  0.00    -0.310 OA
ATOM     14  C   LIG    1       -7.335  -4.471  -1.714  0.00  0.00    +0.250 C 
ENDBRANCH   9  13
BRANCH  10  15
ATOM     15  O   LIG    1       -7.099  -5.772  -4.814  0.00  0.00    -0.320 OA
ATOM     16  C   LIG    1       -6.967  -7.189  -4.946  0.00  0.00    +0.240 C 
ENDBRANCH  10  15
ENDBRANCH   1   8
BRANCH   2  17
ATOM     17  C   LIG    1       -2.410  -2.907   0.006  0.00  0.00    +0.320 C 
BRANCH  17  18
ATOM     18  C   LIG    1       -1.131  -2.110  -0.001  0.00  0.00    -0.110 A 
ATOM     19  C   LIG    1       -1.189  -0.750   0.008  0.00  0.00    +0.050 A 
ATOM     20  C   LIG    1        0.002  -0.004   0.002  0.00  0.00    -0.060 A 
ATOM     21  C   LIG    1       -0.017   1.401   0.010  0.00  0.00    +0.030 A 
ATOM     22  C   LIG    1        1.157   2.090   0.002  0.00  0.00    +0.000 A 
ATOM     23  C   LIG    1        2.380   1.424  -0.012  0.00  0.00    +0.010 A 
ATOM     24  C   LIG    1        2.437   0.064  -0.020  0.00  0.00    +0.020 A 
ATOM     25  C   LIG    1        1.247  -0.682  -0.013  0.00  0.00    -0.050 A 
ATOM     26  C   LIG    1        1.266  -2.087  -0.022  0.00  0.00    +0.030 A 
ATOM     27  C   LIG    1        0.092  -2.777  -0.015  0.00  0.00    +0.030 A 
ENDBRANCH  17  18
ENDBRANCH   2  17
TORSDOF 6
