REMARK  Name = ZINCpe00001cxWlG.0
REMARK                            x       y       z     vdW  Elec       q    Type
REMARK                         _______ _______ _______ _____ _____    ______ ____
ROOT
ATOM      1  N   LIG    1        2.959   0.931  -1.404  0.00  0.00    -0.990 NA
ATOM      2  C   LIG    1        3.719   2.026  -2.010  0.00  0.00    +0.260 C 
ATOM      3  C   LIG    1        3.061   3.369  -1.687  0.00  0.00    +0.220 C 
ATOM      4  O   LIG    1        3.485   4.340  -2.647  0.00  0.00    -0.380 OA
ATOM      5  C   LIG    1        2.418   5.048  -3.278  0.00  0.00    +0.230 C 
ATOM      6  C   LIG    1        2.166   4.456  -4.668  0.00  0.00    +0.030 C 
ATOM      7  C   LIG    1        1.725   3.021  -4.529  0.00  0.00    +0.520 C 
ATOM      8  N   LIG    1        2.590   2.032  -4.885  0.00  0.00    -0.740 N 
ATOM      9  H   LIG    1        3.474   2.227  -5.243  0.00  0.00    +0.410 HD
ATOM     10  C   LIG    1        2.134   0.642  -4.705  0.00  0.00    +0.320 C 
ATOM     11  C   LIG    1        3.196  -0.146  -3.937  0.00  0.00    -0.350 C 
ATOM     12  O   LIG    1        0.617   2.765  -4.103  0.00  0.00    -0.520 OA
ATOM     13  S   LIG    1        2.626  -0.451  -2.243  0.00  0.00    +2.600 S 
ATOM     14  O   LIG    1        1.207  -0.544  -2.205  0.00  0.00    -0.940 OA
ATOM     15  O   LIG    1        3.430  -1.443  -1.618  0.00  0.00    -0.950 OA
ENDROOT
BRANCH   1  16
ATOM     16  C   LIG    1        2.485   1.057  -0.016  0.00  0.00    +0.390 C 
BRANCH  16  21
ATOM     17  C   LIG    1        0.033   3.795   0.023  0.00  0.00    +0.050 A 
ATOM     18  C   LIG    1       -1.188   3.148   0.030  0.00  0.00    +0.020 A 
ATOM     19  C   LIG    1       -1.217   1.761   0.017  0.00  0.00    +0.080 A 
ATOM     20  C   LIG    1       -0.013   1.076   0.008  0.00  0.00    +0.040 A 
ATOM     21  C   LIG    1        1.170   1.792   0.001  0.00  0.00    +0.090 A 
ATOM     22  N   LIG    1        1.160   3.110   0.008  0.00  0.00    -0.440 NA
BRANCH  17  24
ATOM     23  C   LIG    1        1.534   5.769   0.020  0.00  0.00    +0.080 C 
ATOM     24  C   LIG    1        0.077   5.302   0.031  0.00  0.00    +0.350 C 
ATOM     25  F   LIG    1       -0.558   5.780   1.182  0.00  0.00    -0.190 F 
ATOM     26  F   LIG    1       -0.579   5.794  -1.103  0.00  0.00    -0.190 F 
ENDBRANCH  17  24
ENDBRANCH  16  21
ENDBRANCH   1  16
TORSDOF 3
