REMARK  Name = ZINCqH0000007bl5.0
REMARK                            x       y       z     vdW  Elec       q    Type
REMARK                         _______ _______ _______ _____ _____    ______ ____
ROOT
ATOM      1  C   LIG    1        5.736  -0.375  -2.382  0.00  0.00    +0.070 C 
ENDROOT
BRANCH   1   4
ATOM      2  N   LIG    1        7.233  -1.292  -4.125  0.00  0.00    -0.730 N 
ATOM      3  H   LIG    1        6.486  -1.821  -4.445  0.00  0.00    +0.400 HD
ATOM      4  C   LIG    1        7.075  -0.471  -3.068  0.00  0.00    +0.520 C 
ATOM      5  O   LIG    1        8.009   0.192  -2.670  0.00  0.00    -0.540 OA
BRANCH   2   6
ATOM      6  C   LIG    1        8.534  -1.384  -4.793  0.00  0.00    +0.330 C 
BRANCH   6  10
ATOM      7  C   LIG    1        8.281  -4.161  -8.031  0.00  0.00    +0.140 A 
ATOM      8  C   LIG    1        8.006  -2.818  -8.244  0.00  0.00    -0.020 A 
ATOM      9  C   LIG    1        8.088  -1.923  -7.196  0.00  0.00    +0.070 A 
ATOM     10  C   LIG    1        8.445  -2.363  -5.934  0.00  0.00    -0.150 A 
ATOM     11  C   LIG    1        8.724  -3.700  -5.721  0.00  0.00    +0.070 A 
ATOM     12  C   LIG    1        8.638  -4.601  -6.764  0.00  0.00    -0.080 A 
BRANCH   7  14
ATOM     13  C   LIG    1        8.497  -6.411  -8.768  0.00  0.00    +0.250 C 
ATOM     14  O   LIG    1        8.201  -5.044  -9.061  0.00  0.00    -0.320 OA
ENDBRANCH   7  14
ENDBRANCH   6  10
ENDBRANCH   2   6
ENDBRANCH   1   4
BRANCH   1  15
ATOM     15  C   LIG    1        5.827   0.619  -1.223  0.00  0.00    +0.210 C 
BRANCH  15  16
ATOM     16  C   LIG    1        4.489   0.714  -0.537  0.00  0.00    +0.200 A 
ATOM     17  N   LIG    1        4.096  -0.026   0.462  0.00  0.00    -0.470 NA
ATOM     18  C   LIG    1        2.856   0.343   0.815  0.00  0.00    +0.190 A 
ATOM     19  C   LIG    1        2.477   1.348  -0.015  0.00  0.00    -0.020 A 
ATOM     20  O   LIG    1        3.511   1.573  -0.855  0.00  0.00    -0.190 OA
BRANCH  19  21
ATOM     21  C   LIG    1        1.183   2.064   0.002  0.00  0.00    -0.050 A 
ATOM     22  C   LIG    1        1.155   3.459   0.010  0.00  0.00    +0.080 A 
ATOM     23  C   LIG    1       -0.056   4.122   0.025  0.00  0.00    +0.010 A 
ATOM     24  C   LIG    1       -1.240   3.407   0.032  0.00  0.00    +0.060 A 
ATOM     25  C   LIG    1       -1.221   2.023   0.019  0.00  0.00    -0.010 A 
ATOM     26  C   LIG    1       -0.016   1.347   0.009  0.00  0.00    +0.130 A 
ATOM     27  F   LIG    1        0.002  -0.004   0.002  0.00  0.00    -0.130 F 
ENDBRANCH  19  21
ENDBRANCH  15  16
ENDBRANCH   1  15
TORSDOF 7
