REMARK  Name = ZINCrH000004rrfb.0
REMARK                            x       y       z     vdW  Elec       q    Type
REMARK                         _______ _______ _______ _____ _____    ______ ____
ROOT
ATOM      1  C   LIG    1        1.449   6.354  -0.084  0.00  0.00    -0.670 A 
ATOM      2  C   LIG    1        0.448   5.405  -0.181  0.00  0.00    +0.150 A 
ATOM      3  C   LIG    1        0.770   4.064  -0.256  0.00  0.00    +0.030 A 
ATOM      4  C   LIG    1        2.102   3.669  -0.232  0.00  0.00    +0.200 A 
ATOM      5  C   LIG    1        3.105   4.625  -0.129  0.00  0.00    +0.020 A 
ATOM      6  C   LIG    1        2.776   5.964  -0.060  0.00  0.00    +0.150 A 
ENDROOT
BRANCH   4   7
ATOM      7  N   LIG    1        2.432   2.312  -0.307  0.00  0.00    -0.370 N 
ATOM      8  N   LIG    1        3.410   1.880  -1.210  0.00  0.00    -0.190 NA
ATOM      9  C   LIG    1        3.733   0.618  -1.295  0.00  0.00    +0.320 A 
ATOM     10  C   LIG    1        3.104  -0.336  -0.480  0.00  0.00    -0.010 A 
ATOM     11  C   LIG    1        2.146   0.059   0.409  0.00  0.00    -0.090 A 
ATOM     12 CL   LIG    1        1.357  -1.106   1.425  0.00  0.00    +0.030 Cl
ATOM     13 CL   LIG    1        3.541  -2.012  -0.602  0.00  0.00    +0.010 Cl
ATOM     14  C   LIG    1        1.806   1.423   0.491  0.00  0.00    +0.520 A 
ATOM     15  O   LIG    1        0.952   1.798   1.279  0.00  0.00    -0.480 OA
ENDBRANCH   4   7
BRANCH   1  16
ATOM     16  S   LIG    1        1.034   8.064   0.011  0.00  0.00    +2.700 S 
ATOM     17  O   LIG    1       -0.255   8.196  -0.574  0.00  0.00    -0.940 OA
ATOM     18  O   LIG    1        2.172   8.779  -0.448  0.00  0.00    -0.940 OA
BRANCH  16  19
ATOM     19  N   LIG    1        0.861   8.438   1.615  0.00  0.00    -1.050 N 
ATOM     20  H   LIG    1        0.011   8.769   1.946  0.00  0.00    +0.430 HD
BRANCH  19  25
ATOM     21  C   LIG    1        5.236   7.785   5.167  0.00  0.00    +0.100 C 
ATOM     22  C   LIG    1        4.073   7.958   4.224  0.00  0.00    -0.070 A 
ATOM     23  C   LIG    1        4.295   8.377   2.926  0.00  0.00    +0.040 A 
ATOM     24  C   LIG    1        3.232   8.531   2.056  0.00  0.00    +0.030 A 
ATOM     25  C   LIG    1        1.938   8.277   2.490  0.00  0.00    +0.120 A 
ATOM     26  C   LIG    1        1.718   7.855   3.798  0.00  0.00    +0.090 A 
ATOM     27  F   LIG    1        0.461   7.601   4.224  0.00  0.00    -0.130 F 
ATOM     28  C   LIG    1        2.786   7.697   4.660  0.00  0.00    +0.010 A 
ENDBRANCH  19  25
ENDBRANCH  16  19
ENDBRANCH   1  16
TORSDOF 4
