REMARK  Name = ZINCvU00000009dI.0
REMARK                            x       y       z     vdW  Elec       q    Type
REMARK                         _______ _______ _______ _____ _____    ______ ____
ROOT
ATOM      1  O   LIG    1        1.486   3.099  -0.227  0.00  0.00    -0.440 OA
ATOM      2  C   LIG    1        1.223   1.937   0.001  0.00  0.00    +0.530 C 
ATOM      3  C   LIG    1        2.216   0.828   0.332  0.00  0.00    +0.070 C 
ATOM      4  C   LIG    1        3.501   0.845  -0.511  0.00  0.00    +0.120 C 
ATOM      5  C   LIG    1        4.210  -0.405   0.004  0.00  0.00    -0.090 A 
ATOM      6  C   LIG    1        5.417  -0.427   0.632  0.00  0.00    +0.030 A 
ATOM      7  C   LIG    1        5.897  -1.641   1.111  0.00  0.00    +0.020 A 
ATOM      8  C   LIG    1        5.157  -2.797   0.947  0.00  0.00    +0.010 A 
ATOM      9  C   LIG    1        3.933  -2.768   0.293  0.00  0.00    +0.030 A 
ATOM     10  C   LIG    1        3.468  -1.575  -0.185  0.00  0.00    -0.080 A 
ATOM     11  C   LIG    1        2.154  -1.409  -0.948  0.00  0.00    +0.190 C 
ATOM     12  C   LIG    1        2.599  -0.689  -2.238  0.00  0.00    -0.100 A 
ATOM     13  C   LIG    1        2.464  -1.121  -3.516  0.00  0.00    +0.030 A 
ATOM     14  C   LIG    1        2.879  -0.311  -4.568  0.00  0.00    +0.020 A 
ATOM     15  C   LIG    1        3.453   0.919  -4.307  0.00  0.00    +0.010 A 
ATOM     16  C   LIG    1        3.653   1.350  -3.004  0.00  0.00    +0.040 A 
ATOM     17  C   LIG    1        3.272   0.540  -1.966  0.00  0.00    -0.100 A 
ATOM     18  C   LIG    1        1.382  -0.303  -0.336  0.00  0.00    -0.100 C 
ATOM     19  C   LIG    1        0.002  -0.004   0.002  0.00  0.00    +0.590 C 
ATOM     20  O   LIG    1       -0.907  -0.775   0.223  0.00  0.00    -0.440 OA
ATOM     21  N   LIG    1       -0.017   1.372   0.010  0.00  0.00    -0.550 N 
ENDROOT
BRANCH  21  22
ATOM     22  C   LIG    1       -1.200   2.122   0.019  0.00  0.00    +0.130 A 
ATOM     23  C   LIG    1       -1.134   3.487   0.026  0.00  0.00    +0.030 A 
ATOM     24  C   LIG    1       -2.320   4.240   0.036  0.00  0.00    -0.030 A 
ATOM     25  C   LIG    1       -2.292   5.645   0.043  0.00  0.00    +0.020 A 
ATOM     26  C   LIG    1       -3.461   6.342   0.052  0.00  0.00    +0.020 A 
ATOM     27  C   LIG    1       -4.688   5.684   0.055  0.00  0.00    +0.010 A 
ATOM     28  C   LIG    1       -4.755   4.324   0.049  0.00  0.00    +0.030 A 
ATOM     29  C   LIG    1       -3.570   3.570   0.039  0.00  0.00    -0.060 A 
ATOM     30  C   LIG    1       -3.601   2.164   0.032  0.00  0.00    +0.060 A 
ATOM     31  C   LIG    1       -2.435   1.464   0.016  0.00  0.00    +0.010 A 
ENDBRANCH  21  22
TORSDOF 1
