REMARK  Name = ZINCpk00000eaWqf.0
REMARK                            x       y       z     vdW  Elec       q    Type
REMARK                         _______ _______ _______ _____ _____    ______ ____
ROOT
ATOM      1  C   LIG    1        1.317  -0.740  -0.015  0.00  0.00    +0.380 C 
ENDROOT
BRANCH   1   4
ATOM      2  C   LIG    1        1.073  -4.288  -0.553  0.00  0.00    +0.020 A 
ATOM      3  C   LIG    1        1.543  -3.063  -0.931  0.00  0.00    +0.170 A 
ATOM      4  N   LIG    1        1.069  -2.183  -0.020  0.00  0.00    -0.280 N 
ATOM      5  N   LIG    1        0.359  -2.828   0.839  0.00  0.00    -0.050 NA
ATOM      6  N   LIG    1        0.338  -4.082   0.555  0.00  0.00    -0.250 NA
BRANCH   2  12
ATOM      7  C   LIG    1        0.218  -9.192  -0.936  0.00  0.00    +0.100 C 
ATOM      8  C   LIG    1        0.911  -7.944  -1.418  0.00  0.00    -0.050 A 
ATOM      9  C   LIG    1        1.777  -8.008  -2.494  0.00  0.00    -0.010 A 
ATOM     10  C   LIG    1        2.417  -6.863  -2.942  0.00  0.00    +0.110 A 
ATOM     11  C   LIG    1        2.192  -5.652  -2.315  0.00  0.00    -0.010 A 
ATOM     12  C   LIG    1        1.319  -5.585  -1.231  0.00  0.00    +0.030 A 
ATOM     13  F   LIG    1        3.263  -6.931  -3.994  0.00  0.00    -0.140 F 
ATOM     14  C   LIG    1        0.683  -6.740  -0.782  0.00  0.00    +0.040 A 
ENDBRANCH   2  12
ENDBRANCH   1   4
BRANCH   1  15
ATOM     15  C   LIG    1        0.002  -0.004   0.002  0.00  0.00    +0.510 C 
ATOM     16  N   LIG    1       -0.016   1.344   0.009  0.00  0.00    -0.710 N 
ATOM     17  H   LIG    1        0.817   1.840   0.004  0.00  0.00    +0.420 HD
ATOM     18  O   LIG    1       -1.040  -0.625   0.009  0.00  0.00    -0.500 OA
BRANCH  16  19
ATOM     19  C   LIG    1       -1.295   2.059   0.019  0.00  0.00    +0.300 C 
BRANCH  19  20
ATOM     20  C   LIG    1       -1.040   3.544   0.026  0.00  0.00    +0.510 C 
ATOM     21  N   LIG    1       -2.076   4.406   0.036  0.00  0.00    -0.720 N 
ATOM     22  H   LIG    1       -2.986   4.070   0.038  0.00  0.00    +0.400 HD
ATOM     23  O   LIG    1        0.098   3.964   0.023  0.00  0.00    -0.530 OA
BRANCH  21  24
ATOM     24  C   LIG    1       -1.827   5.850   0.043  0.00  0.00    +0.170 C 
ATOM     25  C   LIG    1       -1.024   6.223   1.290  0.00  0.00    +0.050 C 
ATOM     26  C   LIG    1       -3.163   6.596   0.053  0.00  0.00    +0.040 C 
ATOM     27  C   LIG    1       -1.036   6.237  -1.208  0.00  0.00    +0.040 C 
ENDBRANCH  21  24
ENDBRANCH  19  20
ENDBRANCH  16  19
ENDBRANCH   1  15
TORSDOF 6
