REMARK  Name = ZINCb80000002CDk.0
REMARK                            x       y       z     vdW  Elec       q    Type
REMARK                         _______ _______ _______ _____ _____    ______ ____
ROOT
ATOM      1  C   LIG    1        0.002  -0.004   0.002  0.00  0.00    +0.010 A 
ATOM      2  C   LIG    1       -0.985  -0.694  -0.679  0.00  0.00    -0.020 A 
ATOM      3  C   LIG    1       -0.962  -2.077  -0.688  0.00  0.00    +0.100 A 
ATOM      4  C   LIG    1        0.066  -2.728   0.007  0.00  0.00    -0.130 A 
ATOM      5  C   LIG    1        1.022  -1.958   0.674  0.00  0.00    +0.310 A 
ATOM      6  N   LIG    1        0.959  -0.643   0.649  0.00  0.00    -0.480 NA
ENDROOT
BRANCH   4   7
ATOM      7  C   LIG    1        0.137  -4.202   0.035  0.00  0.00    +0.510 C 
ATOM      8  O   LIG    1       -0.705  -4.866  -0.552  0.00  0.00    -0.670 OA
ATOM      9  O   LIG    1        1.039  -4.759   0.645  0.00  0.00    -0.670 OA
ENDBRANCH   4   7
BRANCH   1  10
ATOM     10  C   LIG    1       -0.018   1.503   0.010  0.00  0.00    +0.350 C 
BRANCH  10  11
ATOM     11  N   LIG    1       -0.706   1.976   1.219  0.00  0.00    -0.630 N 
ATOM     12  H   LIG    1       -1.653   1.627   1.226  0.00  0.00    +0.430 HD
ATOM     13  H   LIG    1       -0.720   2.985   1.224  0.00  0.00    +0.430 HD
ATOM     14  H   LIG    1       -0.218   1.642   2.036  0.00  0.00    +0.440 HD
ENDBRANCH  10  11
ENDBRANCH   1  10
TORSDOF 3
