REMARK  Name = ZINCqH0000008P1r.0
REMARK                            x       y       z     vdW  Elec       q    Type
REMARK                         _______ _______ _______ _____ _____    ______ ____
ROOT
ATOM      1  C   LIG    1        1.280   1.980   0.001  0.00  0.00    +0.040 C 
ENDROOT
BRANCH   1   2
ATOM      2  C   LIG    1       -0.014   1.209   0.009  0.00  0.00    +0.520 C 
ATOM      3  N   LIG    1       -1.191   1.867   0.018  0.00  0.00    -0.730 N 
ATOM      4  H   LIG    1       -1.204   2.837   0.023  0.00  0.00    +0.400 HD
ATOM      5  O   LIG    1        0.002  -0.004   0.002  0.00  0.00    -0.530 OA
BRANCH   3   6
ATOM      6  C   LIG    1       -2.449   1.117   0.020  0.00  0.00    +0.280 C 
ATOM      7  C   LIG    1       -2.830   0.756  -1.417  0.00  0.00    +0.040 C 
BRANCH   6   8
ATOM      8  C   LIG    1       -3.537   1.963   0.630  0.00  0.00    -0.080 A 
ATOM      9  C   LIG    1       -3.600   3.315   0.349  0.00  0.00    +0.020 A 
ATOM     10  C   LIG    1       -4.601   4.090   0.904  0.00  0.00    +0.040 A 
ATOM     11  C   LIG    1       -5.532   3.517   1.749  0.00  0.00    +0.030 A 
ATOM     12  C   LIG    1       -5.466   2.164   2.035  0.00  0.00    -0.030 A 
ATOM     13 CL   LIG    1       -6.636   1.443   3.096  0.00  0.00    -0.060 Cl
ATOM     14  C   LIG    1       -4.468   1.388   1.475  0.00  0.00    +0.040 A 
ENDBRANCH   6   8
ENDBRANCH   3   6
ENDBRANCH   1   2
BRANCH   1  15
ATOM     15  C   LIG    1        2.457   1.002  -0.016  0.00  0.00    +0.320 C 
BRANCH  15  25
ATOM     16  C   LIG    1        6.758   1.836  -1.179  0.00  0.00    +0.060 C 
ATOM     17  C   LIG    1        5.608   2.845  -1.180  0.00  0.00    +0.230 C 
ATOM     18  O   LIG    1        5.691   3.663  -0.010  0.00  0.00    -0.300 OA
ATOM     19  C   LIG    1        5.338   3.081   1.168  0.00  0.00    +0.080 A 
ATOM     20  C   LIG    1        5.960   3.445   2.349  0.00  0.00    +0.030 A 
ATOM     21  C   LIG    1        5.588   2.841   3.537  0.00  0.00    +0.030 A 
ATOM     22  C   LIG    1        4.598   1.877   3.549  0.00  0.00    +0.020 A 
ATOM     23  C   LIG    1        3.971   1.509   2.373  0.00  0.00    +0.000 A 
ATOM     24  C   LIG    1        4.338   2.109   1.180  0.00  0.00    +0.090 A 
ATOM     25  N   LIG    1        3.715   1.751  -0.024  0.00  0.00    -0.550 N 
ATOM     26  C   LIG    1        4.296   2.103  -1.192  0.00  0.00    +0.490 C 
ATOM     27  O   LIG    1        3.762   1.827  -2.245  0.00  0.00    -0.500 OA
ENDBRANCH  15  25
ENDBRANCH   1  15
TORSDOF 5
