REMARK  Name = ZINCrD000000Cozt.0
REMARK                            x       y       z     vdW  Elec       q    Type
REMARK                         _______ _______ _______ _____ _____    ______ ____
ROOT
ATOM      1  C   LIG    1        3.038   3.392   3.502  0.00  0.00    -0.140 A 
ATOM      2  C   LIG    1        2.166   2.377   3.102  0.00  0.00    +0.210 A 
ATOM      3  C   LIG    1        0.807   2.529   3.281  0.00  0.00    -0.690 A 
ATOM      4  C   LIG    1        0.307   3.680   3.865  0.00  0.00    +0.190 A 
ATOM      5  C   LIG    1        1.164   4.688   4.268  0.00  0.00    +0.020 A 
ATOM      6  C   LIG    1        2.527   4.552   4.090  0.00  0.00    +0.070 A 
ATOM      7 CL   LIG    1        3.601   5.817   4.597  0.00  0.00    -0.010 Cl
ENDROOT
BRANCH   3   8
ATOM      8  S   LIG    1       -0.295   1.252   2.771  0.00  0.00    +2.710 S 
ATOM      9  O   LIG    1        0.466   0.052   2.746  0.00  0.00    -0.940 OA
ATOM     10  O   LIG    1       -1.476   1.408   3.546  0.00  0.00    -0.940 OA
BRANCH   8  11
ATOM     11  N   LIG    1       -0.721   1.570   1.202  0.00  0.00    -1.010 NA
ATOM     12  C   LIG    1       -0.013   1.086   0.008  0.00  0.00    +0.270 C 
ATOM     13  C   LIG    1       -0.779   1.607  -1.226  0.00  0.00    +0.030 C 
ATOM     14  C   LIG    1       -2.199   1.882  -0.662  0.00  0.00    +0.040 C 
ATOM     15  C   LIG    1       -1.874   2.383   0.767  0.00  0.00    +0.270 C 
ENDBRANCH   8  11
ENDBRANCH   3   8
BRANCH   1  17
ATOM     16  O   LIG    1        5.250   4.121   3.660  0.00  0.00    -0.480 OA
ATOM     17  C   LIG    1        4.494   3.238   3.308  0.00  0.00    +0.510 C 
BRANCH  17  18
ATOM     18  O   LIG    1        4.983   2.118   2.740  0.00  0.00    -0.350 OA
BRANCH  18  19
ATOM     19  C   LIG    1        6.424   2.036   2.581  0.00  0.00    +0.230 C 
BRANCH  19  20
ATOM     20  C   LIG    1        6.789   0.703   1.923  0.00  0.00    +0.040 C 
BRANCH  20  21
ATOM     21  C   LIG    1        8.307   0.616   1.756  0.00  0.00    +0.090 C 
BRANCH  21  22
ATOM     22  C   LIG    1        8.666  -0.696   1.108  0.00  0.00    -0.140 A 
ATOM     23  C   LIG    1        8.929  -1.814   1.885  0.00  0.00    +0.060 A 
ATOM     24  C   LIG    1        9.250  -3.002   1.245  0.00  0.00    -0.030 A 
ATOM     25  C   LIG    1        9.309  -3.029  -0.135  0.00  0.00    +0.260 A 
ATOM     26  N   LIG    1        9.058  -1.944  -0.842  0.00  0.00    -0.480 NA
ATOM     27  C   LIG    1        8.744  -0.799  -0.268  0.00  0.00    +0.250 A 
ENDBRANCH  21  22
ENDBRANCH  20  21
ENDBRANCH  19  20
ENDBRANCH  18  19
ENDBRANCH  17  18
ENDBRANCH   1  17
TORSDOF 8
