REMARK  Name = ZINCpk00000l8ozn.0
REMARK                            x       y       z     vdW  Elec       q    Type
REMARK                         _______ _______ _______ _____ _____    ______ ____
ROOT
ATOM      1  N   LIG    1        2.123   0.034   1.224  0.00  0.00    -0.560 NA
ATOM      2  C   LIG    1        0.757  -0.508   1.234  0.00  0.00    +0.220 C 
ATOM      3  C   LIG    1        0.002  -0.004   0.002  0.00  0.00    +0.200 C 
ATOM      4  N   LIG    1       -0.018   1.465   0.010  0.00  0.00    -0.490 N 
ATOM      5  C   LIG    1        1.348   2.008   0.000  0.00  0.00    +0.210 C 
ATOM      6  C   LIG    1        2.103   1.504   1.232  0.00  0.00    +0.200 C 
ENDROOT
BRANCH   4   7
ATOM      7  C   LIG    1       -0.762   1.962  -1.064  0.00  0.00    +0.100 A 
ATOM      8  C   LIG    1       -1.356   1.086  -1.963  0.00  0.00    +0.000 A 
ATOM      9  C   LIG    1       -2.095   1.579  -3.021  0.00  0.00    +0.010 A 
ATOM     10  C   LIG    1       -2.235   2.946  -3.191  0.00  0.00    +0.070 A 
ATOM     11  C   LIG    1       -1.640   3.822  -2.299  0.00  0.00    +0.010 A 
ATOM     12  F   LIG    1       -2.955   3.426  -4.229  0.00  0.00    -0.140 F 
ATOM     13  C   LIG    1       -0.904   3.333  -1.237  0.00  0.00    +0.030 A 
ENDBRANCH   4   7
BRANCH   1  14
ATOM     14  C   LIG    1        2.905  -0.488   2.352  0.00  0.00    +0.540 C 
BRANCH  14  17
ATOM     15  O   LIG    1        5.026   1.349   3.277  0.00  0.00    -0.510 OA
ATOM     16  C   LIG    1        5.236   0.439   2.494  0.00  0.00    +0.640 A 
ATOM     17  N   LIG    1        4.332  -0.444   2.020  0.00  0.00    -0.460 N 
ATOM     18  N   LIG    1        5.007  -1.315   1.156  0.00  0.00    +0.050 NA
ATOM     19  N   LIG    1        6.199  -0.992   1.100  0.00  0.00    +0.030 NA
ATOM     20  N   LIG    1        6.419   0.115   1.930  0.00  0.00    -0.390 N 
BRANCH  20  21
ATOM     21  C   LIG    1        7.640   0.765   2.135  0.00  0.00    +0.040 A 
ATOM     22  C   LIG    1        8.804   0.425   1.563  0.00  0.00    +0.010 A 
ATOM     23  C   LIG    1        9.880   1.219   1.921  0.00  0.00    +0.030 A 
ATOM     24  C   LIG    1        9.596   2.200   2.779  0.00  0.00    -0.040 A 
ATOM     25  S   LIG    1        7.883   2.160   3.179  0.00  0.00    +0.200 S 
ENDBRANCH  20  21
ENDBRANCH  14  17
ENDBRANCH   1  14
TORSDOF 4
