REMARK  Name = ZINCqH0000008srp.0
REMARK                            x       y       z     vdW  Elec       q    Type
REMARK                         _______ _______ _______ _____ _____    ______ ____
ROOT
ATOM      1  C   LIG    1        4.698   4.058  -0.614  0.00  0.00    +0.530 C 
ATOM      2  N   LIG    1        5.940   3.574  -0.815  0.00  0.00    -0.620 N 
ATOM      3  C   LIG    1        7.022   4.446  -1.296  0.00  0.00    +0.330 C 
ATOM      4  C   LIG    1        8.113   4.536  -0.222  0.00  0.00    +0.300 C 
ATOM      5  N   LIG    1        8.396   3.196   0.289  0.00  0.00    -0.440 N 
ATOM      6  C   LIG    1        7.580   2.119   0.160  0.00  0.00    +0.190 A 
ATOM      7  N   LIG    1        8.158   1.117   0.745  0.00  0.00    -0.260 NA
ATOM      8  N   LIG    1        9.290   1.498   1.229  0.00  0.00    -0.220 NA
ATOM      9  C   LIG    1        9.477   2.767   0.970  0.00  0.00    +0.100 A 
ATOM     10  C   LIG    1        6.253   2.156  -0.553  0.00  0.00    +0.440 C 
ATOM     11  O   LIG    1        4.437   5.203  -0.915  0.00  0.00    -0.510 OA
ENDROOT
BRANCH   9  12
ATOM     12  C   LIG    1       10.676   3.593   1.360  0.00  0.00    +0.460 C 
ATOM     13 CL   LIG    1       10.240   4.672   2.737  0.00  0.00    -0.090 Cl
ATOM     14  F   LIG    1       11.081   4.369   0.269  0.00  0.00    -0.150 F 
ATOM     15  F   LIG    1       11.721   2.746   1.744  0.00  0.00    -0.130 F 
ENDBRANCH   9  12
BRANCH   1  17
ATOM     16  C   LIG    1        3.737   3.214   1.510  0.00  0.00    +0.050 C 
ATOM     17  C   LIG    1        3.633   3.175  -0.016  0.00  0.00    +0.240 C 
BRANCH  17  18
ATOM     18  N   LIG    1        2.312   3.656  -0.428  0.00  0.00    -0.720 N 
ATOM     19  H   LIG    1        2.189   4.586  -0.674  0.00  0.00    +0.420 HD
BRANCH  18  20
ATOM     20  C   LIG    1        1.228   2.774  -0.466  0.00  0.00    +0.230 A 
ATOM     21  C   LIG    1        1.401   1.442  -0.113  0.00  0.00    -0.040 A 
ATOM     22  C   LIG    1        0.328   0.573  -0.151  0.00  0.00    +0.090 A 
ATOM     23  C   LIG    1       -0.918   1.027  -0.545  0.00  0.00    -0.080 A 
ATOM     24  C   LIG    1       -1.096   2.355  -0.892  0.00  0.00    +0.090 A 
ATOM     25 CL   LIG    1       -2.262  -0.070  -0.598  0.00  0.00    -0.060 Cl
ATOM     26  C   LIG    1       -0.027   3.229  -0.856  0.00  0.00    -0.100 A 
ATOM     27 CL   LIG    1       -0.249   4.893  -1.298  0.00  0.00    -0.060 Cl
ENDBRANCH  18  20
ENDBRANCH  17  18
ENDBRANCH   1  17
TORSDOF 4
