REMARK  Name = ZINCqH0000038jZ4.1
REMARK                            x       y       z     vdW  Elec       q    Type
REMARK                         _______ _______ _______ _____ _____    ______ ____
ROOT
ATOM      1  C   LIG    1        0.468   1.427   0.101  0.00  0.00    +0.210 A 
ATOM      2  C   LIG    1        1.551   2.284   0.227  0.00  0.00    -0.050 A 
ATOM      3  C   LIG    1        2.836   1.777   0.248  0.00  0.00    +0.070 A 
ATOM      4  C   LIG    1        3.051   0.414   0.145  0.00  0.00    +0.000 A 
ATOM      5  C   LIG    1        1.983  -0.451   0.019  0.00  0.00    +0.100 A 
ATOM      6  C   LIG    1        0.683   0.047  -0.004  0.00  0.00    -0.050 A 
ENDROOT
BRANCH   6   7
ATOM      7  C   LIG    1       -0.467  -0.879  -0.138  0.00  0.00    +0.280 A 
ATOM      8  N   LIG    1       -1.734  -0.527  -0.172  0.00  0.00    -0.320 NA
ATOM      9  N   LIG    1       -2.478  -1.711  -0.307  0.00  0.00    -0.480 N 
ATOM     10  H   LIG    1       -3.444  -1.786  -0.362  0.00  0.00    +0.440 HD
ATOM     11  C   LIG    1       -1.589  -2.719  -0.347  0.00  0.00    +0.330 A 
ATOM     12  N   LIG    1       -0.388  -2.212  -0.251  0.00  0.00    -0.520 NA
BRANCH  11  13
ATOM     13  C   LIG    1       -1.920  -4.183  -0.486  0.00  0.00    +0.050 C 
ATOM     14  C   LIG    1       -3.364  -4.609  -0.212  0.00  0.00    +0.040 C 
ATOM     15  C   LIG    1       -2.259  -4.954   0.791  0.00  0.00    +0.060 C 
ENDBRANCH  11  13
ENDBRANCH   6   7
BRANCH   1  16
ATOM     16  N   LIG    1       -0.830   1.937   0.074  0.00  0.00    -1.050 N 
ATOM     17  H   LIG    1       -1.513   1.495  -0.454  0.00  0.00    +0.430 HD
BRANCH  16  18
ATOM     18  S   LIG    1       -1.204   3.296   0.942  0.00  0.00    +2.680 S 
ATOM     19  O   LIG    1       -0.636   3.117   2.232  0.00  0.00    -0.940 OA
ATOM     20  O   LIG    1       -2.587   3.541   0.729  0.00  0.00    -0.940 OA
BRANCH  18  28
ATOM     21  C   LIG    1       -1.795   4.381  -1.819  0.00  0.00    +0.110 C 
ATOM     22  C   LIG    1       -0.683   5.068  -1.068  0.00  0.00    +0.030 A 
ATOM     23  C   LIG    1       -0.009   6.127  -1.647  0.00  0.00    -0.020 A 
ATOM     24  C   LIG    1        1.014   6.753  -0.961  0.00  0.00    +0.080 A 
ATOM     25  C   LIG    1        1.360   6.324   0.307  0.00  0.00    -0.010 A 
ATOM     26  C   LIG    1        0.683   5.268   0.888  0.00  0.00    +0.020 A 
ATOM     27  C   LIG    1        1.061   4.800   2.270  0.00  0.00    +0.120 C 
ATOM     28  C   LIG    1       -0.341   4.642   0.202  0.00  0.00    -0.690 A 
ENDBRANCH  18  28
ENDBRANCH  16  18
ENDBRANCH   1  16
TORSDOF 5
