REMARK  Name = ZINCrD00000l13Gq.0
REMARK                            x       y       z     vdW  Elec       q    Type
REMARK                         _______ _______ _______ _____ _____    ______ ____
ROOT
ATOM      1  N   LIG    1       -0.197   0.607  -1.586  0.00  0.00    -0.710 N 
ATOM      2  H   LIG    1        0.581   0.342  -2.102  0.00  0.00    +0.420 HD
ATOM      3  C   LIG    1       -1.362  -0.055  -1.736  0.00  0.00    +0.520 C 
ATOM      4  O   LIG    1       -2.334   0.276  -1.091  0.00  0.00    -0.510 OA
ENDROOT
BRANCH   3   5
ATOM      5  C   LIG    1       -1.456  -1.206  -2.704  0.00  0.00    +0.190 C 
ATOM      6  C   LIG    1       -1.249  -0.692  -4.130  0.00  0.00    +0.080 C 
BRANCH   5   7
ATOM      7  O   LIG    1       -2.765  -1.824  -2.597  0.00  0.00    -0.320 OA
BRANCH   7   8
ATOM      8  C   LIG    1       -2.845  -3.141  -2.865  0.00  0.00    +0.510 C 
ATOM      9  O   LIG    1       -1.847  -3.758  -3.180  0.00  0.00    -0.500 OA
BRANCH   8  10
ATOM     10  C   LIG    1       -4.145  -3.836  -2.776  0.00  0.00    -0.120 A 
ATOM     11  C   LIG    1       -5.293  -3.132  -2.409  0.00  0.00    +0.110 A 
ATOM     12  C   LIG    1       -6.506  -3.786  -2.334  0.00  0.00    +0.020 A 
ATOM     13  C   LIG    1       -6.584  -5.139  -2.609  0.00  0.00    +0.090 A 
ATOM     14  C   LIG    1       -5.449  -5.845  -2.969  0.00  0.00    -0.110 A 
ATOM     15 BR   LIG    1       -5.568  -7.695  -3.345  0.00  0.00    -0.030 Br
ATOM     16  C   LIG    1       -4.231  -5.202  -3.054  0.00  0.00    +0.120 A 
ENDBRANCH   8  10
ENDBRANCH   7   8
ENDBRANCH   5   7
ENDBRANCH   3   5
BRANCH   1  17
ATOM     17  C   LIG    1       -0.106   1.726  -0.645  0.00  0.00    +0.320 C 
BRANCH  17  20
ATOM     18  N   LIG    1        1.611   3.332   0.124  0.00  0.00    -0.670 N 
ATOM     19  H   LIG    1        0.928   3.754   0.668  0.00  0.00    +0.410 HD
ATOM     20  C   LIG    1        1.291   2.288  -0.668  0.00  0.00    +0.510 C 
ATOM     21  O   LIG    1        2.129   1.802  -1.398  0.00  0.00    -0.510 OA
BRANCH  18  29
ATOM     22  C   LIG    1        3.698   1.465   0.629  0.00  0.00    +0.080 C 
ATOM     23  C   LIG    1        3.976   2.929   0.403  0.00  0.00    -0.070 A 
ATOM     24  C   LIG    1        5.274   3.399   0.434  0.00  0.00    +0.020 A 
ATOM     25  C   LIG    1        5.529   4.743   0.232  0.00  0.00    +0.020 A 
ATOM     26  C   LIG    1        4.486   5.620  -0.006  0.00  0.00    +0.020 A 
ATOM     27  C   LIG    1        3.186   5.155  -0.043  0.00  0.00    -0.090 A 
ATOM     28  C   LIG    1        2.050   6.111  -0.302  0.00  0.00    +0.080 C 
ATOM     29  C   LIG    1        2.927   3.806   0.159  0.00  0.00    +0.130 A 
ENDBRANCH  18  29
ENDBRANCH  17  20
ENDBRANCH   1  17
TORSDOF 7
