REMARK  Name = ZINCpk00000KfKU1.0
REMARK                            x       y       z     vdW  Elec       q    Type
REMARK                         _______ _______ _______ _____ _____    ______ ____
ROOT
ATOM      1  C   LIG    1       -4.761  -0.180   0.300  0.00  0.00    +0.280 A 
ATOM      2  C   LIG    1       -4.795   1.210   0.307  0.00  0.00    +0.000 A 
ATOM      3  C   LIG    1       -3.608   1.914   0.217  0.00  0.00    +0.090 A 
ATOM      4  C   LIG    1       -2.418   1.197   0.110  0.00  0.00    +0.100 A 
ATOM      5  C   LIG    1       -2.461  -0.189   0.110  0.00  0.00    +0.260 A 
ATOM      6  N   LIG    1       -3.611  -0.828   0.203  0.00  0.00    -0.490 NA
ENDROOT
BRANCH   1  10
ATOM      7  O   LIG    1       -4.587  -4.054  -0.450  0.00  0.00    -0.550 OA
ATOM      8  C   LIG    1       -5.149  -2.986  -0.566  0.00  0.00    +0.510 C 
ATOM      9  C   LIG    1       -5.687  -2.318   0.668  0.00  0.00    +0.290 C 
ATOM     10  N   LIG    1       -5.950  -0.898   0.397  0.00  0.00    -0.470 N 
ATOM     11  C   LIG    1       -6.753  -0.756  -0.829  0.00  0.00    +0.250 C 
ATOM     12  C   LIG    1       -5.893  -1.155  -2.029  0.00  0.00    +0.230 C 
ATOM     13  N   LIG    1       -5.266  -2.451  -1.786  0.00  0.00    -0.720 N 
ATOM     14  H   LIG    1       -4.917  -2.947  -2.544  0.00  0.00    +0.400 HD
ENDBRANCH   1  10
BRANCH   4  15
ATOM     15  N   LIG    1       -1.191   1.869   0.011  0.00  0.00    -0.680 N 
ATOM     16  H   LIG    1       -0.391   1.478   0.395  0.00  0.00    +0.410 HD
ATOM     17  C   LIG    1       -1.124   3.059  -0.620  0.00  0.00    +0.710 C 
ATOM     18  N   LIG    1        0.029   3.757  -0.620  0.00  0.00    -0.740 N 
ATOM     19  H   LIG    1        0.812   3.401  -0.171  0.00  0.00    +0.400 HD
ATOM     20  O   LIG    1       -2.105   3.505  -1.183  0.00  0.00    -0.570 OA
BRANCH  18  21
ATOM     21  C   LIG    1        0.101   5.053  -1.300  0.00  0.00    +0.340 C 
BRANCH  21  22
ATOM     22  C   LIG    1        1.489   5.621  -1.153  0.00  0.00    -0.090 A 
ATOM     23  C   LIG    1        1.792   6.435  -0.078  0.00  0.00    +0.020 A 
ATOM     24  C   LIG    1        3.067   6.953   0.060  0.00  0.00    +0.050 A 
ATOM     25  C   LIG    1        4.036   6.666  -0.882  0.00  0.00    +0.000 A 
ATOM     26  C   LIG    1        3.732   5.855  -1.962  0.00  0.00    +0.100 A 
ATOM     27  F   LIG    1        4.678   5.574  -2.884  0.00  0.00    -0.140 F 
ATOM     28  C   LIG    1        2.457   5.333  -2.097  0.00  0.00    +0.010 A 
ENDBRANCH  21  22
ENDBRANCH  18  21
ENDBRANCH   4  15
TORSDOF 4
