REMARK  Name = ZINCvU00000007zE.0
REMARK                            x       y       z     vdW  Elec       q    Type
REMARK                         _______ _______ _______ _____ _____    ______ ____
ROOT
ATOM      1  C   LIG    1        8.175  -0.963  -1.036  0.00  0.00    +0.450 C 
ATOM      2  O   LIG    1        8.868   0.015  -1.225  0.00  0.00    -0.460 OA
ENDROOT
BRANCH   1   6
ATOM      3  C   LIG    1        8.744  -6.026  -1.002  0.00  0.00    +0.120 C 
ATOM      4  C   LIG    1        8.992  -4.543  -1.107  0.00  0.00    +0.010 A 
ATOM      5  C   LIG    1        8.068  -3.584  -0.928  0.00  0.00    +0.000 A 
ATOM      6  C   LIG    1        8.759  -2.303  -1.125  0.00  0.00    -0.260 A 
ATOM      7  C   LIG    1       10.071  -2.621  -1.419  0.00  0.00    +0.120 A 
ATOM      8  C   LIG    1       11.176  -1.638  -1.709  0.00  0.00    +0.150 C 
ATOM      9  N   LIG    1       10.192  -3.961  -1.397  0.00  0.00    -0.430 N 
BRANCH   9  10
ATOM     10  C   LIG    1       11.435  -4.691  -1.655  0.00  0.00    +0.300 C 
BRANCH  10  11
ATOM     11  C   LIG    1       11.549  -4.992  -3.151  0.00  0.00    +0.110 C 
BRANCH  11  12
ATOM     12  C   LIG    1       12.828  -5.744  -3.417  0.00  0.00    -0.190 A 
ATOM     13  C   LIG    1       12.956  -7.071  -3.403  0.00  0.00    +0.010 A 
ATOM     14  C   LIG    1       14.231  -7.537  -3.677  0.00  0.00    +0.000 A 
ATOM     15  C   LIG    1       15.137  -6.587  -3.914  0.00  0.00    -0.040 A 
ATOM     16  S   LIG    1       14.378  -5.005  -3.800  0.00  0.00    +0.100 S 
ENDBRANCH  11  12
ENDBRANCH  10  11
ENDBRANCH   9  10
ENDBRANCH   1   6
BRANCH   1  17
ATOM     17  C   LIG    1        6.713  -0.798  -0.710  0.00  0.00    +0.100 C 
BRANCH  17  18
ATOM     18  S   LIG    1        6.297   0.963  -0.672  0.00  0.00    +0.060 S 
BRANCH  18  19
ATOM     19  C   LIG    1        4.582   0.865  -0.280  0.00  0.00    +0.150 A 
ATOM     20  N   LIG    1        3.888  -0.234  -0.087  0.00  0.00    -0.290 NA
ATOM     21  N   LIG    1        2.666   0.057   0.180  0.00  0.00    -0.250 NA
ATOM     22  C   LIG    1        2.503   1.359   0.176  0.00  0.00    +0.220 A 
ATOM     23  N   LIG    1        3.725   1.917  -0.125  0.00  0.00    -0.460 N 
ATOM     24  C   LIG    1        4.040   3.342  -0.250  0.00  0.00    +0.360 C 
BRANCH  22  25
ATOM     25  C   LIG    1        1.245   2.089   0.438  0.00  0.00    -0.060 A 
ATOM     26  C   LIG    1        1.235   3.179   1.308  0.00  0.00    +0.060 A 
ATOM     27  C   LIG    1        0.057   3.857   1.548  0.00  0.00    +0.010 A 
ATOM     28  C   LIG    1       -1.114   3.457   0.928  0.00  0.00    +0.070 A 
ATOM     29  C   LIG    1       -1.112   2.381   0.060  0.00  0.00    +0.000 A 
ATOM     30  C   LIG    1        0.059   1.690  -0.186  0.00  0.00    +0.140 A 
ATOM     31  F   LIG    1        0.059   0.635  -1.030  0.00  0.00    -0.120 F 
ENDBRANCH  22  25
ENDBRANCH  18  19
ENDBRANCH  17  18
ENDBRANCH   1  17
TORSDOF 8
