REMARK  Name = ZINCtV00000L6juf.0
REMARK                            x       y       z     vdW  Elec       q    Type
REMARK                         _______ _______ _______ _____ _____    ______ ____
ROOT
ATOM      1  C   LIG    1        4.981  -1.200   1.530  0.00  0.00    +0.240 A 
ATOM      2  C   LIG    1        6.194  -1.475   1.056  0.00  0.00    -0.070 A 
ATOM      3  S   LIG    1        7.166  -2.835   1.604  0.00  0.00    +0.200 S 
ATOM      4  C   LIG    1        5.939  -3.748   2.475  0.00  0.00    +0.130 A 
ATOM      5  N   LIG    1        5.986  -4.977   2.914  0.00  0.00    -0.230 NA
ATOM      6  N   LIG    1        4.881  -5.269   3.511  0.00  0.00    -0.230 NA
ATOM      7  C   LIG    1        4.064  -4.236   3.481  0.00  0.00    +0.240 A 
ATOM      8  N   LIG    1        4.714  -3.237   2.816  0.00  0.00    -0.260 N 
ATOM      9  N   LIG    1        4.301  -1.942   2.501  0.00  0.00    -0.540 N 
ATOM     10  H   LIG    1        3.538  -1.555   2.958  0.00  0.00    +0.440 HD
ENDROOT
BRANCH   7  11
ATOM     11  C   LIG    1        2.705  -4.171   4.058  0.00  0.00    -0.000 A 
ATOM     12  C   LIG    1        1.649  -3.652   3.307  0.00  0.00    +0.040 A 
ATOM     13  C   LIG    1        0.381  -3.599   3.849  0.00  0.00    +0.040 A 
ATOM     14  C   LIG    1        0.157  -4.049   5.138  0.00  0.00    +0.050 A 
ATOM     15  C   LIG    1        1.200  -4.560   5.891  0.00  0.00    +0.060 A 
ATOM     16  C   LIG    1        2.472  -4.624   5.359  0.00  0.00    -0.050 A 
ATOM     17 BR   LIG    1        3.896  -5.323   6.388  0.00  0.00    -0.020 Br
ENDBRANCH   7  11
BRANCH   1  21
ATOM     18  C   LIG    1        2.769   1.520   0.624  0.00  0.00    +0.040 A 
ATOM     19  C   LIG    1        3.818   1.803  -0.199  0.00  0.00    +0.000 A 
ATOM     20  C   LIG    1        4.796   0.825   0.032  0.00  0.00    +0.020 A 
ATOM     21  C   LIG    1        4.297  -0.021   0.983  0.00  0.00    +0.020 A 
ATOM     22  O   LIG    1        3.070   0.412   1.332  0.00  0.00    -0.160 OA
BRANCH  18  28
ATOM     23 CL   LIG    1       -2.420   1.562   0.619  0.00  0.00    -0.050 Cl
ATOM     24  C   LIG    1       -0.887   2.369   0.725  0.00  0.00    -0.030 A 
ATOM     25  C   LIG    1       -0.839   3.742   0.900  0.00  0.00    +0.070 A 
ATOM     26  C   LIG    1        0.378   4.395   0.980  0.00  0.00    +0.060 A 
ATOM     27  C   LIG    1        1.555   3.679   0.890  0.00  0.00    -0.010 A 
ATOM     28  C   LIG    1        1.515   2.292   0.720  0.00  0.00    -0.010 A 
ATOM     29 CL   LIG    1        3.082   4.500   0.991  0.00  0.00    -0.040 Cl
ATOM     30  C   LIG    1        0.283   1.640   0.640  0.00  0.00    +0.080 A 
ENDBRANCH  18  28
ENDBRANCH   1  21
TORSDOF 3
