REMARK  Name = ZINCqH0000007P0c.0
REMARK                            x       y       z     vdW  Elec       q    Type
REMARK                         _______ _______ _______ _____ _____    ______ ____
ROOT
ATOM      1  N   LIG    1        0.312  -0.366   1.451  0.00  0.00    -0.520 NA
ENDROOT
BRANCH   1   2
ATOM      2  C   LIG    1        0.069  -0.051   0.037  0.00  0.00    +0.260 C 
BRANCH   2   8
ATOM      3  C   LIG    1       -2.203   0.998   0.205  0.00  0.00    +0.160 A 
ATOM      4  C   LIG    1       -3.568   0.989  -0.043  0.00  0.00    -0.090 A 
ATOM      5  C   LIG    1       -4.138  -0.069  -0.723  0.00  0.00    +0.040 A 
ATOM      6  C   LIG    1       -3.350  -1.120  -1.156  0.00  0.00    -0.040 A 
ATOM      7  C   LIG    1       -1.989  -1.111  -0.915  0.00  0.00    +0.040 A 
ATOM      8  C   LIG    1       -1.414  -0.057  -0.231  0.00  0.00    -0.110 A 
BRANCH   3  10
ATOM      9  C   LIG    1       -2.525   3.034   1.389  0.00  0.00    +0.230 C 
ATOM     10  O   LIG    1       -1.639   2.038   0.875  0.00  0.00    -0.290 OA
ENDBRANCH   3  10
ENDBRANCH   2   8
ENDBRANCH   1   2
BRANCH   1  11
ATOM     11  C   LIG    1        1.658   0.058   1.861  0.00  0.00    +0.190 C 
BRANCH  11  12
ATOM     12  C   LIG    1        1.669   1.572   2.084  0.00  0.00    +0.170 C 
ATOM     13  C   LIG    1        3.066   2.033   2.572  0.00  0.00    +0.010 C 
ATOM     14  C   LIG    1        3.062   3.518   2.116  0.00  0.00    +0.010 C 
ATOM     15  C   LIG    1        2.249   3.456   0.806  0.00  0.00    +0.190 C 
ATOM     16  O   LIG    1        1.460   2.261   0.842  0.00  0.00    -0.360 OA
ENDBRANCH  11  12
ENDBRANCH   1  11
BRANCH   1  17
ATOM     17  C   LIG    1        0.108  -1.796   1.715  0.00  0.00    +0.230 C 
BRANCH  17  18
ATOM     18  C   LIG    1        0.124  -2.040   3.202  0.00  0.00    -0.020 A 
ATOM     19  C   LIG    1        1.314  -2.334   3.842  0.00  0.00    +0.020 A 
ATOM     20  C   LIG    1        1.329  -2.552   5.207  0.00  0.00    +0.100 A 
ATOM     21  C   LIG    1        0.153  -2.488   5.930  0.00  0.00    -0.050 A 
ATOM     22  C   LIG    1       -1.038  -2.200   5.290  0.00  0.00    +0.100 A 
ATOM     23  C   LIG    1       -1.052  -1.976   3.926  0.00  0.00    +0.060 A 
BRANCH  21  24
ATOM     24  N   LIG    1        0.168  -2.727   7.391  0.00  0.00    +0.030 N 
ATOM     25  O   LIG    1        1.217  -2.981   7.956  0.00  0.00    -0.160 OA
ATOM     26  O   LIG    1       -0.868  -2.669   8.028  0.00  0.00    -0.160 OA
ENDBRANCH  21  24
ENDBRANCH  17  18
ENDBRANCH   1  17
TORSDOF 8
