REMARK  Name = ZINCpk00000KfL4F.0
REMARK                            x       y       z     vdW  Elec       q    Type
REMARK                         _______ _______ _______ _____ _____    ______ ____
ROOT
ATOM      1  N   LIG    1        2.175  -2.673   7.083  0.00  0.00    -0.740 N 
ATOM      2  H   LIG    1        1.232  -2.446   7.087  0.00  0.00    +0.400 HD
ATOM      3  C   LIG    1        2.917  -2.452   5.979  0.00  0.00    +0.710 C 
ATOM      4  N   LIG    1        2.375  -1.823   4.918  0.00  0.00    -0.630 N 
ATOM      5  C   LIG    1        3.194  -1.475   3.747  0.00  0.00    +0.310 C 
ATOM      6  C   LIG    1        2.979   0.008   3.426  0.00  0.00    +0.180 C 
ATOM      7  N   LIG    1        1.542   0.271   3.278  0.00  0.00    -0.530 NA
ATOM      8  C   LIG    1        0.822   0.017   4.534  0.00  0.00    +0.190 C 
ATOM      9  C   LIG    1        0.948  -1.466   4.900  0.00  0.00    +0.280 C 
ATOM     10  O   LIG    1        4.075  -2.821   5.941  0.00  0.00    -0.590 OA
ENDROOT
BRANCH   1  11
ATOM     11  C   LIG    1        2.794  -3.256   8.276  0.00  0.00    +0.310 C 
BRANCH  11  15
ATOM     12  C   LIG    1        3.606  -4.602  10.764  0.00  0.00    +0.050 C 
ATOM     13  C   LIG    1        2.163  -4.100  10.671  0.00  0.00    -0.030 C 
ATOM     14  C   LIG    1        1.942  -2.586  10.657  0.00  0.00    +0.030 C 
ATOM     15  C   LIG    1        1.741  -3.400   9.377  0.00  0.00    -0.060 C 
ENDBRANCH  11  15
ENDBRANCH   1  11
BRANCH   7  16
ATOM     16  C   LIG    1        1.303   1.640   2.802  0.00  0.00    +0.310 C 
BRANCH  16  17
ATOM     17  C   LIG    1       -0.149   1.796   2.430  0.00  0.00    +0.180 A 
ATOM     18  N   LIG    1       -1.116   2.179   3.220  0.00  0.00    -0.290 NA
ATOM     19  N   LIG    1       -2.225   2.208   2.567  0.00  0.00    -0.290 NA
ATOM     20  C   LIG    1       -2.013   1.851   1.333  0.00  0.00    +0.180 A 
ATOM     21  C   LIG    1       -3.027   1.766   0.221  0.00  0.00    +0.150 C 
ATOM     22  C   LIG    1       -2.853   0.434  -0.515  0.00  0.00    +0.030 C 
ATOM     23  C   LIG    1       -1.828   0.598  -1.633  0.00  0.00    +0.010 C 
ATOM     24  C   LIG    1       -0.751   1.603  -1.228  0.00  0.00    +0.030 C 
ATOM     25  C   LIG    1       -0.010   1.094   0.011  0.00  0.00    +0.290 C 
ATOM     26  N   LIG    1       -0.695   1.566   1.215  0.00  0.00    -0.460 N 
ENDBRANCH  16  17
ENDBRANCH   7  16
TORSDOF 4
