REMARK  Name = ZINCpk00000e95ce.0
REMARK                            x       y       z     vdW  Elec       q    Type
REMARK                         _______ _______ _______ _____ _____    ______ ____
ROOT
ATOM      1  N   LIG    1        3.315   2.412  -0.906  0.00  0.00    -0.510 NA
ATOM      2  C   LIG    1        4.701   1.925  -0.875  0.00  0.00    +0.190 C 
ATOM      3  C   LIG    1        5.527   2.674  -1.923  0.00  0.00    +0.220 C 
ATOM      4  N   LIG    1        5.472   4.116  -1.647  0.00  0.00    -0.470 N 
ATOM      5  C   LIG    1        4.086   4.604  -1.679  0.00  0.00    +0.240 C 
ATOM      6  C   LIG    1        3.261   3.854  -0.630  0.00  0.00    +0.190 C 
ENDROOT
BRANCH   4   7
ATOM      7  C   LIG    1        6.266   4.821  -2.534  0.00  0.00    +0.410 A 
ATOM      8  C   LIG    1        7.631   4.528  -2.667  0.00  0.00    -0.220 A 
ATOM      9  C   LIG    1        8.547   3.562  -2.062  0.00  0.00    -0.020 A 
ATOM     10  C   LIG    1        9.753   3.771  -2.615  0.00  0.00    +0.230 A 
ATOM     11  N   LIG    1        9.675   4.790  -3.529  0.00  0.00    -0.570 N 
ATOM     12  H   LIG    1       10.418   5.122  -4.057  0.00  0.00    +0.420 HD
ATOM     13  C   LIG    1        8.395   5.271  -3.586  0.00  0.00    +0.330 A 
ATOM     14  N   LIG    1        7.792   6.230  -4.287  0.00  0.00    -0.550 NA
ATOM     15  C   LIG    1        6.509   6.473  -4.126  0.00  0.00    +0.540 A 
ATOM     16  N   LIG    1        5.755   5.798  -3.278  0.00  0.00    -0.580 NA
ENDBRANCH   4   7
BRANCH   1  21
ATOM     17  N   LIG    1        2.507  -0.795   0.483  0.00  0.00    -0.600 N 
ATOM     18  C   LIG    1        2.704  -0.636   1.918  0.00  0.00    +0.250 C 
ATOM     19  C   LIG    1        2.333   0.782   2.356  0.00  0.00    +0.030 C 
ATOM     20  C   LIG    1        3.057   1.782   1.446  0.00  0.00    +0.000 C 
ATOM     21  C   LIG    1        2.472   1.664   0.036  0.00  0.00    +0.190 C 
ATOM     22  C   LIG    1        2.423   0.221  -0.377  0.00  0.00    +0.520 C 
ATOM     23  O   LIG    1        2.299  -0.035  -1.556  0.00  0.00    -0.520 OA
BRANCH  17  25
ATOM     24  C   LIG    1        1.045  -2.332  -0.733  0.00  0.00    +0.020 C 
ATOM     25  C   LIG    1        2.402  -2.156  -0.049  0.00  0.00    +0.220 C 
ATOM     26  C   LIG    1        3.520  -2.394  -1.066  0.00  0.00    +0.030 C 
ENDBRANCH  17  25
ENDBRANCH   1  21
TORSDOF 3
