REMARK  Name = ZINCpe000000TVqp.0
REMARK                            x       y       z     vdW  Elec       q    Type
REMARK                         _______ _______ _______ _____ _____    ______ ____
ROOT
ATOM      1  N   LIG    1       -1.203  -0.719   0.006  0.00  0.00    -0.650 N 
ATOM      2  H   LIG    1       -2.012  -0.308  -0.335  0.00  0.00    +0.420 HD
ATOM      3  C   LIG    1       -1.239  -1.976   0.493  0.00  0.00    +0.500 C 
ATOM      4  O   LIG    1       -0.252  -2.454   1.010  0.00  0.00    -0.500 OA
ENDROOT
BRANCH   1  14
ATOM      5  C   LIG    1       -0.010   1.385  -0.003  0.00  0.00    +0.080 A 
ATOM      6  C   LIG    1        1.188   2.082  -0.020  0.00  0.00    +0.000 A 
ATOM      7  C   LIG    1        2.384   1.397  -0.043  0.00  0.00    -0.150 A 
ATOM      8  C   LIG    1        2.412   0.008  -0.041  0.00  0.00    +0.100 A 
ATOM      9  O   LIG    1        3.692  -0.459  -0.042  0.00  0.00    -0.300 OA
ATOM     10  C   LIG    1        4.574   0.582  -0.496  0.00  0.00    +0.170 C 
ATOM     11  C   LIG    1        5.930   0.494   0.207  0.00  0.00    +0.070 C 
ATOM     12  C   LIG    1        1.208  -0.691  -0.027  0.00  0.00    +0.040 A 
ATOM     13  C   LIG    1        3.825   1.870  -0.083  0.00  0.00    +0.070 C 
ATOM     14  C   LIG    1        0.004  -0.008  -0.008  0.00  0.00    +0.150 A 
BRANCH   5  15
ATOM     15  O   LIG    1       -1.193   2.057   0.014  0.00  0.00    -0.320 OA
BRANCH  15  17
ATOM     16  C   LIG    1       -2.545   4.060   0.038  0.00  0.00    +0.070 C 
ATOM     17  C   LIG    1       -1.127   3.485   0.019  0.00  0.00    +0.180 C 
ENDBRANCH  15  17
ENDBRANCH   5  15
ENDBRANCH   1  14
BRANCH   3  18
ATOM     18  C   LIG    1       -2.506  -2.785   0.395  0.00  0.00    +0.370 C 
BRANCH  18  19
ATOM     19  N   LIG    1       -2.289  -4.106   0.991  0.00  0.00    -0.520 N 
ATOM     20  C   LIG    1       -1.844  -5.138   0.210  0.00  0.00    +0.360 A 
ATOM     21  C   LIG    1       -1.640  -6.353   0.761  0.00  0.00    -0.110 A 
ATOM     22  C   LIG    1       -1.903  -6.537   2.140  0.00  0.00    +0.550 A 
ATOM     23  N   LIG    1       -2.345  -5.497   2.874  0.00  0.00    -0.660 N 
ATOM     24  H   LIG    1       -2.527  -5.615   3.820  0.00  0.00    +0.430 HD
ATOM     25  O   LIG    1       -1.731  -7.626   2.658  0.00  0.00    -0.510 OA
ATOM     26  C   LIG    1       -2.535  -4.294   2.300  0.00  0.00    +0.700 A 
ATOM     27  O   LIG    1       -2.934  -3.364   2.975  0.00  0.00    -0.540 OA
ENDBRANCH  18  19
ENDBRANCH   3  18
TORSDOF 5
