REMARK  Name = ZINCpe000000XR1v.0
REMARK                            x       y       z     vdW  Elec       q    Type
REMARK                         _______ _______ _______ _____ _____    ______ ____
ROOT
ATOM      1  S   LIG    1        2.599   1.345   0.027  0.00  0.00    +2.700 S 
ATOM      2  O   LIG    1        3.585   2.331   0.300  0.00  0.00    -0.940 OA
ATOM      3  O   LIG    1        2.581   0.574  -1.167  0.00  0.00    -0.940 OA
ENDROOT
BRANCH   1  10
ATOM      4  C   LIG    1       -0.056   0.012  -0.545  0.00  0.00    +0.130 C 
ATOM      5  C   LIG    1       -0.121   1.469  -0.166  0.00  0.00    +0.070 A 
ATOM      6  C   LIG    1       -1.343   2.112  -0.103  0.00  0.00    +0.020 A 
ATOM      7  C   LIG    1       -1.404   3.447   0.250  0.00  0.00    +0.160 A 
ATOM      8  C   LIG    1       -0.242   4.142   0.528  0.00  0.00    -0.070 A 
ATOM      9  C   LIG    1        0.980   3.500   0.461  0.00  0.00    +0.220 A 
ATOM     10  C   LIG    1        1.041   2.163   0.114  0.00  0.00    -0.690 A 
BRANCH   8  11
ATOM     11  N   LIG    1       -0.307   5.573   0.900  0.00  0.00    +0.030 N 
ATOM     12  O   LIG    1       -1.384   6.139   0.960  0.00  0.00    -0.150 OA
ATOM     13  O   LIG    1        0.717   6.186   1.146  0.00  0.00    -0.150 OA
ENDBRANCH   8  11
ENDBRANCH   1  10
BRANCH   1  14
ATOM     14  N   LIG    1        2.656   0.265   1.281  0.00  0.00    -0.990 NA
ATOM     15  C   LIG    1        2.263  -1.136   1.080  0.00  0.00    +0.300 C 
ATOM     16  C   LIG    1        1.201  -1.504   2.122  0.00  0.00    +0.010 C 
ATOM     17  C   LIG    1        1.738  -1.196   3.522  0.00  0.00    +0.030 C 
ATOM     18  C   LIG    1        2.031   0.302   3.639  0.00  0.00    -0.030 C 
ATOM     19  C   LIG    1        3.107   0.689   2.614  0.00  0.00    +0.300 C 
BRANCH  18  20
ATOM     20  C   LIG    1        2.535   0.614   5.049  0.00  0.00    +0.280 C 
BRANCH  20  21
ATOM     21  N   LIG    1        1.469   0.351   6.019  0.00  0.00    -1.120 NA
ATOM     22  H   LIG    1        0.554   0.241   5.716  0.00  0.00    +0.420 HD
BRANCH  21  23
ATOM     23  S   LIG    1        1.827   0.240   7.632  0.00  0.00    +2.610 S 
ATOM     24  O   LIG    1        2.899  -0.691   7.691  0.00  0.00    -0.950 OA
ATOM     25  O   LIG    1        0.578  -0.041   8.249  0.00  0.00    -0.960 OA
ATOM     26  C   LIG    1        2.400   1.901   8.084  0.00  0.00    -0.280 C 
ENDBRANCH  21  23
ENDBRANCH  20  21
ENDBRANCH  18  20
ENDBRANCH   1  14
TORSDOF 6
