REMARK  Name = ZINCpe00000JgXRU.0
REMARK                            x       y       z     vdW  Elec       q    Type
REMARK                         _______ _______ _______ _____ _____    ______ ____
ROOT
ATOM      1  O   LIG    1       -5.042   7.973   0.070  0.00  0.00    -0.510 OA
ATOM      2  C   LIG    1       -6.156   7.495   0.073  0.00  0.00    +0.520 C 
ATOM      3  N   LIG    1       -7.236   8.301   0.083  0.00  0.00    -0.730 N 
ATOM      4  H   LIG    1       -8.127   7.918   0.085  0.00  0.00    +0.400 HD
ENDROOT
BRANCH   3   5
ATOM      5  C   LIG    1       -7.064   9.756   0.090  0.00  0.00    +0.270 C 
BRANCH   5   6
ATOM      6  C   LIG    1       -8.436  10.432   0.101  0.00  0.00    +0.000 C 
BRANCH   6   7
ATOM      7  C   LIG    1       -8.256  11.951   0.108  0.00  0.00    +0.300 C 
BRANCH   7   8
ATOM      8  N   LIG    1       -9.570  12.598   0.118  0.00  0.00    -0.620 N 
ATOM      9  C   LIG    1      -10.317  12.976  -1.088  0.00  0.00    +0.250 C 
ATOM     10  C   LIG    1      -11.773  13.199  -0.616  0.00  0.00    +0.040 C 
ATOM     11  C   LIG    1      -11.567  13.569   0.872  0.00  0.00    +0.050 C 
ATOM     12  C   LIG    1      -10.245  12.928   1.233  0.00  0.00    +0.520 C 
ATOM     13  O   LIG    1       -9.851  12.739   2.365  0.00  0.00    -0.530 OA
ENDBRANCH   7   8
ENDBRANCH   6   7
ENDBRANCH   5   6
ENDBRANCH   3   5
BRANCH   2  14
ATOM     14  C   LIG    1       -6.333   5.998   0.066  0.00  0.00    +0.270 C 
BRANCH  14  15
ATOM     15  O   LIG    1       -5.031   5.356   0.056  0.00  0.00    -0.320 OA
BRANCH  15  16
ATOM     16  C   LIG    1       -5.012   4.010   0.048  0.00  0.00    +0.510 C 
ATOM     17  O   LIG    1       -6.056   3.388   0.050  0.00  0.00    -0.490 OA
BRANCH  16  18
ATOM     18  C   LIG    1       -3.723   3.288   0.038  0.00  0.00    -0.080 A 
ATOM     19  C   LIG    1       -3.700   1.892   0.030  0.00  0.00    +0.110 A 
ATOM     20  C   LIG    1       -2.493   1.225   0.021  0.00  0.00    +0.100 A 
ATOM     21  C   LIG    1       -1.306   1.936   0.019  0.00  0.00    -0.010 A 
ATOM     22  C   LIG    1       -1.321   3.320   0.032  0.00  0.00    +0.100 A 
ATOM     23  C   LIG    1       -2.522   4.000   0.036  0.00  0.00    +0.110 A 
BRANCH  21  24
ATOM     24  N   LIG    1       -0.014   1.214   0.009  0.00  0.00    +0.020 N 
ATOM     25  O   LIG    1        1.032   1.837   0.002  0.00  0.00    -0.150 OA
ATOM     26  O   LIG    1        0.002  -0.004   0.002  0.00  0.00    -0.150 OA
ENDBRANCH  21  24
ENDBRANCH  16  18
ENDBRANCH  15  16
ENDBRANCH  14  15
ENDBRANCH   2  14
TORSDOF 9
