REMARK  Name = ZINCqH0000008lPh.0
REMARK                            x       y       z     vdW  Elec       q    Type
REMARK                         _______ _______ _______ _____ _____    ______ ____
ROOT
ATOM      1  N   LIG    1       -1.078   3.336  -0.862  0.00  0.00    -0.720 N 
ATOM      2  H   LIG    1       -0.185   3.665  -1.050  0.00  0.00    +0.410 HD
ATOM      3  C   LIG    1       -2.148   3.942  -1.413  0.00  0.00    +0.520 C 
ATOM      4  O   LIG    1       -3.265   3.531  -1.179  0.00  0.00    -0.490 OA
ENDROOT
BRANCH   1   6
ATOM      5  C   LIG    1       -1.538   2.667   1.445  0.00  0.00    +0.060 C 
ATOM      6  C   LIG    1       -1.263   2.181   0.020  0.00  0.00    +0.350 C 
BRANCH   6   7
ATOM      7  C   LIG    1       -0.016   1.336   0.009  0.00  0.00    +0.020 A 
ATOM      8  C   LIG    1        0.002  -0.004   0.002  0.00  0.00    -0.020 A 
ATOM      9  C   LIG    1        1.417  -0.394  -0.014  0.00  0.00    -0.130 A 
ATOM     10  C   LIG    1        2.092  -1.614  -0.027  0.00  0.00    +0.060 A 
ATOM     11  C   LIG    1        3.469  -1.629  -0.039  0.00  0.00    +0.000 A 
ATOM     12  C   LIG    1        4.182  -0.440  -0.040  0.00  0.00    +0.050 A 
ATOM     13  C   LIG    1        3.527   0.773  -0.028  0.00  0.00    +0.020 A 
ATOM     14  C   LIG    1        2.139   0.812  -0.014  0.00  0.00    +0.060 A 
ATOM     15  O   LIG    1        1.240   1.816   0.000  0.00  0.00    -0.190 OA
ENDBRANCH   6   7
ENDBRANCH   1   6
BRANCH   3  16
ATOM     16  C   LIG    1       -1.958   5.129  -2.321  0.00  0.00    +0.240 C 
BRANCH  16  17
ATOM     17  O   LIG    1       -3.232   5.591  -2.776  0.00  0.00    -0.250 OA
BRANCH  17  18
ATOM     18  C   LIG    1       -3.238   6.664  -3.610  0.00  0.00    +0.230 A 
ATOM     19  C   LIG    1       -2.043   7.264  -3.978  0.00  0.00    -0.100 A 
ATOM     20  C   LIG    1       -2.051   8.353  -4.831  0.00  0.00    +0.200 A 
ATOM     21  C   LIG    1       -3.253   8.850  -5.308  0.00  0.00    -0.030 A 
ATOM     22  C   LIG    1       -4.444   8.255  -4.936  0.00  0.00    +0.180 A 
ATOM     23  F   LIG    1       -0.888   8.935  -5.196  0.00  0.00    -0.110 F 
ATOM     24  C   LIG    1       -4.440   7.165  -4.089  0.00  0.00    -0.090 A 
BRANCH  24  25
ATOM     25  N   LIG    1       -5.717   6.530  -3.692  0.00  0.00    +0.030 N 
ATOM     26  O   LIG    1       -5.712   5.569  -2.945  0.00  0.00    -0.120 OA
ATOM     27  O   LIG    1       -6.772   6.970  -4.113  0.00  0.00    -0.180 OA
ENDBRANCH  24  25
ENDBRANCH  17  18
ENDBRANCH  16  17
ENDBRANCH   3  16
TORSDOF 6
