REMARK  Name = ZINCpk00000KfL02.0
REMARK                            x       y       z     vdW  Elec       q    Type
REMARK                         _______ _______ _______ _____ _____    ______ ____
ROOT
ATOM      1  C   LIG    1        0.792   2.329   4.429  0.00  0.00    +0.510 C 
ATOM      2  N   LIG    1        1.644   3.149   5.076  0.00  0.00    -0.520 N 
ATOM      3  H   LIG    1        2.383   3.556   4.597  0.00  0.00    +0.430 HD
ATOM      4  O   LIG    1       -0.132   1.820   5.028  0.00  0.00    -0.500 OA
ENDROOT
BRANCH   1  13
ATOM      5  C   LIG    1       -0.013   1.086   0.008  0.00  0.00    +0.100 C 
ATOM      6  C   LIG    1       -0.729   1.579   1.267  0.00  0.00    +0.170 C 
ATOM      7  C   LIG    1       -2.172   1.060   1.365  0.00  0.00    +0.090 C 
ATOM      8  C   LIG    1       -1.963  -0.238   2.168  0.00  0.00    +0.090 C 
ATOM      9  C   LIG    1       -0.694   0.004   2.953  0.00  0.00    +0.550 C 
ATOM     10  O   LIG    1       -0.290  -0.707   3.849  0.00  0.00    -0.500 OA
ATOM     11  S   LIG    1       -0.674   3.406   1.440  0.00  0.00    -0.240 S 
ATOM     12  C   LIG    1        1.005   3.386   2.200  0.00  0.00    +0.170 C 
ATOM     13  C   LIG    1        0.988   2.043   2.962  0.00  0.00    +0.270 C 
ATOM     14  N   LIG    1       -0.071   1.129   2.516  0.00  0.00    -0.610 N 
ENDBRANCH   1  13
BRANCH   2  15
ATOM     15  N   LIG    1        1.462   3.414   6.439  0.00  0.00    -0.520 N 
ATOM     16  H   LIG    1        0.724   3.007   6.918  0.00  0.00    +0.440 HD
ATOM     17  C   LIG    1        2.314   4.234   7.086  0.00  0.00    +0.520 C 
ATOM     18  O   LIG    1        3.238   4.743   6.487  0.00  0.00    -0.510 OA
BRANCH  17  19
ATOM     19  C   LIG    1        2.119   4.519   8.553  0.00  0.00    +0.250 C 
BRANCH  19  20
ATOM     20  O   LIG    1        3.142   5.409   9.005  0.00  0.00    -0.280 OA
BRANCH  20  21
ATOM     21  C   LIG    1        3.110   5.770  10.315  0.00  0.00    +0.140 A 
ATOM     22  C   LIG    1        2.112   5.282  11.146  0.00  0.00    -0.070 A 
ATOM     23  C   LIG    1        2.086   5.644  12.479  0.00  0.00    +0.090 A 
ATOM     24  C   LIG    1        3.046   6.503  12.982  0.00  0.00    -0.130 A 
ATOM     25  C   LIG    1        4.039   6.996  12.154  0.00  0.00    +0.090 A 
ATOM     26 BR   LIG    1        3.004   7.004  14.805  0.00  0.00    -0.050 Br
ATOM     27  C   LIG    1        4.072   6.631  10.822  0.00  0.00    +0.000 A 
ENDBRANCH  20  21
ENDBRANCH  19  20
ENDBRANCH  17  19
ENDBRANCH   2  15
TORSDOF 5
