REMARK  Name = ZINCrD000000Caci.0
REMARK                            x       y       z     vdW  Elec       q    Type
REMARK                         _______ _______ _______ _____ _____    ______ ____
ROOT
ATOM      1  O   LIG    1        2.599  -2.629   0.066  0.00  0.00    -0.500 OA
ATOM      2  C   LIG    1        3.642  -2.005   0.059  0.00  0.00    +0.560 C 
ATOM      3  N   LIG    1        3.621  -0.660  -0.035  0.00  0.00    -0.660 N 
ATOM      4  H   LIG    1        4.452  -0.168  -0.122  0.00  0.00    +0.420 HD
ENDROOT
BRANCH   2   5
ATOM      5  C   LIG    1        4.932  -2.720   0.154  0.00  0.00    -0.080 A 
ATOM      6  C   LIG    1        6.131  -2.006   0.141  0.00  0.00    +0.030 A 
ATOM      7  C   LIG    1        7.332  -2.679   0.236  0.00  0.00    +0.130 A 
ATOM      8  C   LIG    1        7.349  -4.059   0.333  0.00  0.00    -0.660 A 
ATOM      9  C   LIG    1        6.164  -4.773   0.340  0.00  0.00    +0.130 A 
ATOM     10  C   LIG    1        4.956  -4.112   0.252  0.00  0.00    +0.070 A 
BRANCH   8  11
ATOM     11  S   LIG    1        8.887  -4.912   0.447  0.00  0.00    +2.710 S 
ATOM     12  O   LIG    1        8.609  -6.158   1.070  0.00  0.00    -0.940 OA
ATOM     13  O   LIG    1        9.826  -3.978   0.962  0.00  0.00    -0.950 OA
BRANCH  11  14
ATOM     14  N   LIG    1        9.371  -5.259  -1.098  0.00  0.00    -1.010 NA
ATOM     15  C   LIG    1        9.045  -6.483  -1.843  0.00  0.00    +0.270 C 
ATOM     16  C   LIG    1        9.728  -6.375  -3.223  0.00  0.00    +0.030 C 
ATOM     17  C   LIG    1       10.871  -5.359  -2.964  0.00  0.00    +0.040 C 
ATOM     18  C   LIG    1       10.205  -4.393  -1.952  0.00  0.00    +0.270 C 
ENDBRANCH  11  14
ENDBRANCH   8  11
ENDBRANCH   2   5
BRANCH   3  19
ATOM     19  C   LIG    1        2.401   0.025  -0.009  0.00  0.00    +0.130 A 
ATOM     20  C   LIG    1        1.296  -0.545   0.606  0.00  0.00    +0.060 A 
ATOM     21  C   LIG    1        0.092   0.133   0.630  0.00  0.00    +0.010 A 
ATOM     22  C   LIG    1       -0.015   1.381   0.044  0.00  0.00    +0.030 A 
ATOM     23  C   LIG    1        1.082   1.956  -0.571  0.00  0.00    -0.030 A 
ATOM     24  C   LIG    1        2.292   1.282  -0.600  0.00  0.00    +0.080 A 
BRANCH  24  25
ATOM     25  O   LIG    1        3.372   1.847  -1.204  0.00  0.00    -0.330 OA
BRANCH  25  26
ATOM     26  C   LIG    1        3.187   3.137  -1.789  0.00  0.00    +0.590 C 
ATOM     27  F   LIG    1        2.792   4.045  -0.801  0.00  0.00    -0.200 F 
ATOM     28  F   LIG    1        2.199   3.064  -2.777  0.00  0.00    -0.200 F 
ENDBRANCH  25  26
ENDBRANCH  24  25
ENDBRANCH   3  19
TORSDOF 6
