REMARK  Name = ZINCqH0000037fdn.1
REMARK                            x       y       z     vdW  Elec       q    Type
REMARK                         _______ _______ _______ _____ _____    ______ ____
ROOT
ATOM      1  C   LIG    1        2.574  -0.036  -0.012  0.00  0.00    +0.220 A 
ATOM      2  C   LIG    1        1.457  -0.860  -0.030  0.00  0.00    +0.000 A 
ATOM      3  C   LIG    1        0.192  -0.309  -0.045  0.00  0.00    +0.060 A 
ATOM      4  C   LIG    1        0.026   1.067  -0.041  0.00  0.00    -0.020 A 
ATOM      5  C   LIG    1        1.124   1.900  -0.023  0.00  0.00    +0.070 A 
ATOM      6  C   LIG    1        2.410   1.357  -0.009  0.00  0.00    -0.180 A 
ENDROOT
BRANCH   1   8
ATOM      7  C   LIG    1        4.057  -1.825  -0.498  0.00  0.00    +0.510 C 
ATOM      8  N   LIG    1        3.852  -0.591   0.002  0.00  0.00    -0.660 N 
ATOM      9  H   LIG    1        4.595  -0.088   0.371  0.00  0.00    +0.430 HD
ATOM     10  O   LIG    1        3.152  -2.413  -1.051  0.00  0.00    -0.500 OA
BRANCH   7  11
ATOM     11  C   LIG    1        5.410  -2.476  -0.370  0.00  0.00    +0.220 C 
BRANCH  11  12
ATOM     12  N   LIG    1        5.375  -3.807  -0.990  0.00  0.00    -0.670 NA
ATOM     13  H   LIG    1        4.645  -4.375  -0.585  0.00  0.00    +0.350 HD
BRANCH  12  15
ATOM     14  C   LIG    1        6.785  -5.177   0.470  0.00  0.00    +0.010 C 
ATOM     15  C   LIG    1        6.680  -4.472  -0.884  0.00  0.00    +0.260 C 
BRANCH  15  16
ATOM     16  C   LIG    1        6.819  -5.486  -1.990  0.00  0.00    -0.160 A 
ATOM     17  C   LIG    1        7.932  -5.716  -2.687  0.00  0.00    +0.000 A 
ATOM     18  C   LIG    1        7.821  -6.698  -3.656  0.00  0.00    +0.010 A 
ATOM     19  C   LIG    1        6.617  -7.265  -3.747  0.00  0.00    -0.060 A 
ATOM     20  S   LIG    1        5.539  -6.553  -2.554  0.00  0.00    +0.120 S 
ENDBRANCH  15  16
ENDBRANCH  12  15
ENDBRANCH  11  12
ENDBRANCH   7  11
ENDBRANCH   1   8
BRANCH   6  21
ATOM     21  C   LIG    1        3.590   2.243   0.010  0.00  0.00    +0.570 C 
ATOM     22  N   LIG    1        3.429   3.576   0.121  0.00  0.00    -0.720 N 
ATOM     23  H   LIG    1        2.537   3.954   0.188  0.00  0.00    +0.400 HD
ATOM     24  O   LIG    1        4.707   1.770  -0.074  0.00  0.00    -0.550 OA
BRANCH  22  25
ATOM     25  C   LIG    1        4.600   4.457   0.140  0.00  0.00    +0.230 C 
ATOM     26  C   LIG    1        5.127   4.603   1.583  0.00  0.00    +0.010 C 
ATOM     27  C   LIG    1        5.586   6.081   1.670  0.00  0.00    +0.010 C 
ATOM     28  C   LIG    1        4.508   6.823   0.842  0.00  0.00    +0.010 C 
ATOM     29  C   LIG    1        4.206   5.868  -0.331  0.00  0.00    +0.020 C 
ENDBRANCH  22  25
ENDBRANCH   6  21
TORSDOF 7
