REMARK  Name = ZINCrD000000B3Jk.0
REMARK                            x       y       z     vdW  Elec       q    Type
REMARK                         _______ _______ _______ _____ _____    ______ ____
ROOT
ATOM      1  O   LIG    1        0.015  -0.004   0.001  0.00  0.00    -0.580 OA
ATOM      2  C   LIG    1       -0.014   1.212   0.009  0.00  0.00    +0.710 C 
ATOM      3  N   LIG    1        1.136   1.913   0.003  0.00  0.00    -0.630 N 
ATOM      4  C   LIG    1        1.128   3.381  -0.103  0.00  0.00    +0.250 C 
ATOM      5  C   LIG    1        2.009   3.948   1.022  0.00  0.00    +0.220 C 
ATOM      6  O   LIG    1        3.290   3.316   0.978  0.00  0.00    -0.370 OA
ATOM      7  C   LIG    1        3.255   1.905   1.207  0.00  0.00    +0.150 C 
ATOM      8  C   LIG    1        2.438   1.234   0.097  0.00  0.00    +0.280 C 
ATOM      9  N   LIG    1       -1.197   1.857   0.018  0.00  0.00    -0.750 N 
ATOM     10  H   LIG    1       -1.222   2.825  -0.050  0.00  0.00    +0.390 HD
ENDROOT
BRANCH   7  11
ATOM     11  C   LIG    1        4.681   1.350   1.198  0.00  0.00    +0.110 C 
BRANCH  11  12
ATOM     12  C   LIG    1        5.448   1.918   2.365  0.00  0.00    -0.080 A 
ATOM     13  C   LIG    1        6.158   3.095   2.218  0.00  0.00    +0.020 A 
ATOM     14  C   LIG    1        6.857   3.618   3.289  0.00  0.00    +0.000 A 
ATOM     15  C   LIG    1        6.854   2.960   4.505  0.00  0.00    +0.000 A 
ATOM     16  C   LIG    1        6.149   1.780   4.650  0.00  0.00    +0.000 A 
ATOM     17  C   LIG    1        5.446   1.259   3.580  0.00  0.00    +0.000 A 
ENDBRANCH  11  12
ENDBRANCH   7  11
BRANCH   9  18
ATOM     18  C   LIG    1       -2.445   1.099   0.131  0.00  0.00    +0.280 C 
BRANCH  18  19
ATOM     19  C   LIG    1       -3.632   2.064   0.117  0.00  0.00    +0.110 C 
BRANCH  19  20
ATOM     20  C   LIG    1       -4.916   1.283   0.233  0.00  0.00    -0.170 A 
ATOM     21  C   LIG    1       -5.695   0.873  -0.780  0.00  0.00    +0.230 A 
ATOM     22  N   LIG    1       -6.777   0.192  -0.291  0.00  0.00    -0.590 N 
ATOM     23  H   LIG    1       -7.480  -0.200  -0.833  0.00  0.00    +0.420 HD
ATOM     24  C   LIG    1       -6.718   0.146   1.084  0.00  0.00    +0.090 A 
ATOM     25  C   LIG    1       -7.540  -0.408   2.059  0.00  0.00    -0.010 A 
ATOM     26  C   LIG    1       -7.196  -0.295   3.389  0.00  0.00    +0.030 A 
ATOM     27  C   LIG    1       -6.042   0.376   3.767  0.00  0.00    -0.020 A 
ATOM     28  C   LIG    1       -5.222   0.931   2.825  0.00  0.00    +0.050 A 
ATOM     29  C   LIG    1       -5.547   0.823   1.472  0.00  0.00    -0.100 A 
ENDBRANCH  19  20
ENDBRANCH  18  19
ENDBRANCH   9  18
TORSDOF 5
