REMARK  Name = ZINCrH000004uo8Q.0
REMARK                            x       y       z     vdW  Elec       q    Type
REMARK                         _______ _______ _______ _____ _____    ______ ____
ROOT
ATOM      1  O   LIG    1        4.856   4.578  -1.023  0.00  0.00    -0.520 OA
ATOM      2  C   LIG    1        4.270   3.858  -1.803  0.00  0.00    +0.560 C 
ATOM      3  N   LIG    1        3.018   3.441  -1.525  0.00  0.00    -0.730 N 
ATOM      4  H   LIG    1        2.519   2.932  -2.183  0.00  0.00    +0.400 HD
ENDROOT
BRANCH   2   5
ATOM      5  C   LIG    1        4.940   3.429  -3.083  0.00  0.00    -0.140 C 
ATOM      6  C   LIG    1        6.074   4.307  -3.615  0.00  0.00    +0.090 C 
ATOM      7  C   LIG    1        4.717   4.298  -4.323  0.00  0.00    +0.070 C 
BRANCH   5   8
ATOM      8  C   LIG    1        5.056   1.941  -3.289  0.00  0.00    -0.010 A 
ATOM      9  C   LIG    1        5.018   1.414  -4.566  0.00  0.00    +0.020 A 
ATOM     10  C   LIG    1        5.129   0.049  -4.755  0.00  0.00    +0.080 A 
ATOM     11  C   LIG    1        5.271  -0.790  -3.666  0.00  0.00    -0.180 A 
ATOM     12  C   LIG    1        5.304  -0.264  -2.388  0.00  0.00    +0.080 A 
ATOM     13  C   LIG    1        5.197   1.102  -2.199  0.00  0.00    +0.020 A 
BRANCH  11  14
ATOM     14  C   LIG    1        5.388  -2.278  -3.871  0.00  0.00    +0.510 C 
ATOM     15  F   LIG    1        6.163  -2.830  -2.846  0.00  0.00    -0.180 F 
ATOM     16  F   LIG    1        5.997  -2.532  -5.105  0.00  0.00    -0.180 F 
ATOM     17  F   LIG    1        4.113  -2.853  -3.853  0.00  0.00    -0.180 F 
ENDBRANCH  11  14
ENDBRANCH   5   8
ENDBRANCH   2   5
BRANCH   3  18
ATOM     18  C   LIG    1        2.412   3.758  -0.230  0.00  0.00    +0.290 C 
BRANCH  18  19
ATOM     19  C   LIG    1        0.999   3.173  -0.172  0.00  0.00    +0.040 C 
BRANCH  19  20
ATOM     20  C   LIG    1        0.331   3.602   1.109  0.00  0.00    -0.080 A 
ATOM     21  C   LIG    1        0.883   3.251   2.327  0.00  0.00    +0.040 A 
ATOM     22  C   LIG    1        0.273   3.648   3.502  0.00  0.00    -0.010 A 
ATOM     23  C   LIG    1       -0.897   4.387   3.459  0.00  0.00    +0.100 A 
ATOM     24  C   LIG    1       -1.452   4.733   2.239  0.00  0.00    -0.010 A 
ATOM     25  F   LIG    1       -1.496   4.771   4.608  0.00  0.00    -0.140 F 
ATOM     26  C   LIG    1       -0.837   4.340   1.065  0.00  0.00    +0.050 A 
ENDBRANCH  19  20
BRANCH  19  27
ATOM     27  C   LIG    1        1.077   1.646  -0.220  0.00  0.00    +0.180 C 
BRANCH  27  28
ATOM     28  O   LIG    1       -0.243   1.103  -0.283  0.00  0.00    -0.570 OA
ATOM     29  H   LIG    1       -0.271   0.137  -0.316  0.00  0.00    +0.380 HD
ENDBRANCH  27  28
ENDBRANCH  19  27
ENDBRANCH  18  19
ENDBRANCH   3  18
TORSDOF 8
