REMARK  Name = ZINCpe000000UkeP.0
REMARK                            x       y       z     vdW  Elec       q    Type
REMARK                         _______ _______ _______ _____ _____    ______ ____
ROOT
ATOM      1  C   LIG    1       -0.897  -0.554  -2.191  0.00  0.00    +0.600 C 
ATOM      2  N   LIG    1        0.188  -0.321  -1.426  0.00  0.00    -0.710 N 
ATOM      3  H   LIG    1        1.072  -0.546  -1.756  0.00  0.00    +0.410 HD
ATOM      4  O   LIG    1       -2.010  -0.365  -1.740  0.00  0.00    -0.530 OA
ENDROOT
BRANCH   1   9
ATOM      5  N   LIG    1       -1.723  -1.235  -4.493  0.00  0.00    -0.250 N 
ATOM      6  N   LIG    1       -1.210  -1.659  -5.591  0.00  0.00    -0.260 NA
ATOM      7  C   LIG    1        0.089  -1.778  -5.486  0.00  0.00    +0.060 A 
ATOM      8  C   LIG    1        0.451  -1.388  -4.194  0.00  0.00    -0.020 A 
ATOM      9  C   LIG    1       -0.734  -1.037  -3.571  0.00  0.00    -0.040 A 
BRANCH   7  10
ATOM     10  C   LIG    1        1.027  -2.253  -6.565  0.00  0.00    +0.040 C 
ATOM     11  C   LIG    1        2.519  -1.964  -6.382  0.00  0.00    +0.030 C 
ATOM     12  C   LIG    1        1.712  -1.189  -7.425  0.00  0.00    +0.020 C 
ENDBRANCH   7  10
BRANCH   5  14
ATOM     13  C   LIG    1       -3.501   0.433  -4.681  0.00  0.00    +0.040 C 
ATOM     14  C   LIG    1       -3.150  -0.996  -4.264  0.00  0.00    +0.330 C 
ENDBRANCH   5  14
ENDBRANCH   1   9
BRANCH   2  15
ATOM     15  C   LIG    1        0.033   0.272  -0.096  0.00  0.00    +0.250 C 
ATOM     16  C   LIG    1        0.008   1.821  -0.185  0.00  0.00    +0.040 C 
ATOM     17  C   LIG    1        1.520   2.155  -0.230  0.00  0.00    +0.270 C 
ATOM     18  N   LIG    1        2.149   1.176   0.675  0.00  0.00    -0.600 N 
ATOM     19  C   LIG    1        1.278  -0.004   0.774  0.00  0.00    +0.280 C 
BRANCH  18  20
ATOM     20  C   LIG    1        3.357   1.340   1.322  0.00  0.00    +0.470 A 
ATOM     21  C   LIG    1        4.092   2.500   1.143  0.00  0.00    -0.250 A 
ATOM     22  C   LIG    1        5.312   2.629   1.821  0.00  0.00    +0.530 A 
ATOM     23  N   LIG    1        5.725   1.616   2.611  0.00  0.00    -0.640 N 
ATOM     24  H   LIG    1        6.568   1.686   3.085  0.00  0.00    +0.420 HD
ATOM     25  C   LIG    1        4.971   0.507   2.745  0.00  0.00    +0.620 A 
ATOM     26  O   LIG    1        5.991   3.636   1.695  0.00  0.00    -0.550 OA
ATOM     27  N   LIG    1        3.831   0.374   2.124  0.00  0.00    -0.570 NA
ENDBRANCH  18  20
ENDBRANCH   2  15
TORSDOF 5
