REMARK  Name = ZINCvS0000000aRq.1
REMARK                            x       y       z     vdW  Elec       q    Type
REMARK                         _______ _______ _______ _____ _____    ______ ____
ROOT
ATOM      1  C   LIG    1       -2.791   2.507   2.473  0.00  0.00    +0.500 A 
ATOM      2  C   LIG    1       -2.112   2.859   3.667  0.00  0.00    -0.170 A 
ATOM      3  C   LIG    1       -0.753   2.573   3.751  0.00  0.00    +0.090 A 
ATOM      4  S   LIG    1       -0.137   3.096   5.308  0.00  0.00    +0.260 S 
ATOM      5  C   LIG    1       -1.717   3.690   5.819  0.00  0.00    -0.170 A 
ATOM      6  C   LIG    1       -2.337   4.363   7.040  0.00  0.00    +0.140 C 
ATOM      7  C   LIG    1       -3.665   4.959   6.530  0.00  0.00    +0.060 C 
ATOM      8  C   LIG    1       -3.988   4.026   5.347  0.00  0.00    +0.100 C 
ATOM      9  N   LIG    1       -0.145   1.983   2.712  0.00  0.00    -0.490 NA
ATOM     10  C   LIG    1       -0.815   1.676   1.625  0.00  0.00    +0.310 A 
ATOM     11  C   LIG    1       -2.631   3.502   4.878  0.00  0.00    -0.110 A 
ATOM     12  N   LIG    1       -2.105   1.932   1.495  0.00  0.00    -0.580 NA
ENDROOT
BRANCH   1  13
ATOM     13  N   LIG    1       -4.142   2.765   2.328  0.00  0.00    -0.690 N 
ATOM     14  H   LIG    1       -4.634   3.191   3.047  0.00  0.00    +0.420 HD
BRANCH  13  15
ATOM     15  C   LIG    1       -4.830   2.396   1.088  0.00  0.00    +0.300 C 
BRANCH  15  16
ATOM     16  C   LIG    1       -6.326   2.683   1.230  0.00  0.00    +0.210 C 
BRANCH  16  17
ATOM     17  C   LIG    1       -6.540   4.168   1.377  0.00  0.00    -0.150 A 
ATOM     18  C   LIG    1       -6.519   4.983   0.261  0.00  0.00    +0.000 A 
ATOM     19  C   LIG    1       -6.720   6.344   0.395  0.00  0.00    +0.040 A 
ATOM     20  C   LIG    1       -6.933   6.891   1.647  0.00  0.00    +0.060 A 
ATOM     21  C   LIG    1       -6.950   6.076   2.763  0.00  0.00    +0.040 A 
ATOM     22  C   LIG    1       -6.753   4.715   2.628  0.00  0.00    +0.030 A 
ENDBRANCH  16  17
BRANCH  16  24
ATOM     23  C   LIG    1       -6.830   0.754  -0.104  0.00  0.00    +0.320 C 
ATOM     24  N   LIG    1       -7.032   2.203   0.035  0.00  0.00    -0.380 N 
ATOM     25  C   LIG    1       -8.467   2.486   0.167  0.00  0.00    +0.340 C 
ATOM     26  H   LIG    1       -6.670   2.672  -0.781  0.00  0.00    +0.430 HD
ENDBRANCH  16  24
ENDBRANCH  15  16
ENDBRANCH  13  15
ENDBRANCH   1  13
BRANCH  10  27
ATOM     27  C   LIG    1       -0.087   1.015   0.484  0.00  0.00    +0.390 C 
BRANCH  27  28
ATOM     28  N   LIG    1       -0.145  -0.444   0.646  0.00  0.00    -0.380 N 
ATOM     29  C   LIG    1        0.590  -0.830   1.857  0.00  0.00    +0.260 C 
ATOM     30  C   LIG    1        0.463  -2.339   2.076  0.00  0.00    +0.050 C 
ATOM     31  C   LIG    1        1.049  -3.075   0.867  0.00  0.00    +0.050 C 
ATOM     32  C   LIG    1        0.327  -2.609  -0.400  0.00  0.00    +0.070 C 
ATOM     33  C   LIG    1        0.457  -1.090  -0.526  0.00  0.00    +0.250 C 
ATOM     34  H   LIG    1       -1.107  -0.734   0.732  0.00  0.00    +0.420 HD
ENDBRANCH  27  28
ENDBRANCH  10  27
TORSDOF 7
