REMARK  Name = ZINCvU0000000A2P.0
REMARK                            x       y       z     vdW  Elec       q    Type
REMARK                         _______ _______ _______ _____ _____    ______ ____
ROOT
ATOM      1  C   LIG    1        2.462   0.920  -0.017  0.00  0.00    +0.100 C 
ENDROOT
BRANCH   1   2
ATOM      2  C   LIG    1        1.147   1.655   0.000  0.00  0.00    +0.530 C 
ATOM      3  N   LIG    1       -0.011   0.966   0.007  0.00  0.00    -0.630 N 
ATOM      4  H   LIG    1        0.002  -0.004   0.002  0.00  0.00    +0.420 HD
ATOM      5  O   LIG    1        1.130   2.868   0.007  0.00  0.00    -0.480 OA
BRANCH   3   6
ATOM      6  C   LIG    1       -1.222   1.643   0.017  0.00  0.00    +0.050 A 
ATOM      7  C   LIG    1       -2.449   1.042   0.014  0.00  0.00    -0.110 A 
ATOM      8  C   LIG    1       -3.552   1.983   0.030  0.00  0.00    -0.040 A 
ATOM      9  C   LIG    1       -3.137   3.256   0.035  0.00  0.00    -0.240 A 
ATOM     10  C   LIG    1       -4.062   4.457   0.047  0.00  0.00    +0.120 C 
ATOM     11  C   LIG    1       -5.461   3.997   0.468  0.00  0.00    -0.010 C 
ATOM     12  C   LIG    1       -5.864   2.785  -0.378  0.00  0.00    +0.030 C 
ATOM     13  C   LIG    1       -6.462   5.133   0.247  0.00  0.00    +0.030 C 
ATOM     14  C   LIG    1       -5.018   1.579   0.036  0.00  0.00    +0.100 C 
ATOM     15  S   LIG    1       -1.383   3.338   0.026  0.00  0.00    +0.320 S 
BRANCH   7  16
ATOM     16  C   LIG    1       -2.627  -0.379   0.001  0.00  0.00    +0.270 C 
ATOM     17  N   LIG    1       -2.769  -1.506  -0.010  0.00  0.00    -0.420 NA
ENDBRANCH   7  16
ENDBRANCH   3   6
ENDBRANCH   1   2
BRANCH   1  18
ATOM     18  S   LIG    1        3.822   2.115  -0.023  0.00  0.00    +0.080 S 
BRANCH  18  22
ATOM     19  C   LIG    1        5.760  -2.618  -0.066  0.00  0.00    +0.190 C 
ATOM     20  C   LIG    1        6.032  -1.135  -0.061  0.00  0.00    +0.350 A 
ATOM     21  N   LIG    1        5.010  -0.299  -0.047  0.00  0.00    -0.530 NA
ATOM     22  C   LIG    1        5.197   1.013  -0.042  0.00  0.00    +0.190 A 
ATOM     23  C   LIG    1        6.525   1.516  -0.058  0.00  0.00    -0.160 A 
ATOM     24  C   LIG    1        7.566   0.591  -0.065  0.00  0.00    +0.100 A 
ATOM     25  S   LIG    1        9.104   1.436  -0.074  0.00  0.00    +0.180 S 
ATOM     26  C   LIG    1        8.326   3.010  -0.062  0.00  0.00    -0.170 A 
ATOM     27  C   LIG    1        9.072   4.333  -0.063  0.00  0.00    +0.120 C 
ATOM     28  C   LIG    1        8.102   5.446  -0.467  0.00  0.00    +0.030 C 
ATOM     29  C   LIG    1        6.835   5.334   0.386  0.00  0.00    +0.030 C 
ATOM     30  C   LIG    1        6.053   4.090  -0.039  0.00  0.00    +0.110 C 
ATOM     31  C   LIG    1        6.997   2.895  -0.051  0.00  0.00    -0.070 A 
ATOM     32  N   LIG    1        7.277  -0.718  -0.069  0.00  0.00    -0.490 NA
ENDBRANCH  18  22
ENDBRANCH   1  18
TORSDOF 5
