REMARK  Name = ZINCpe00000VVGau.0
REMARK                            x       y       z     vdW  Elec       q    Type
REMARK                         _______ _______ _______ _____ _____    ______ ____
ROOT
ATOM      1  C   LIG    1       -2.263  -0.189   1.311  0.00  0.00    +0.300 C 
ATOM      2  C   LIG    1       -2.883  -0.713   2.611  0.00  0.00    +0.280 C 
ATOM      3  N   LIG    1       -3.429   0.431   3.359  0.00  0.00    -0.630 N 
ATOM      4  C   LIG    1       -2.555   1.594   3.579  0.00  0.00    +0.290 C 
ATOM      5  C   LIG    1       -1.950   2.006   2.232  0.00  0.00    +0.150 C 
ATOM      6  C   LIG    1       -0.891   3.087   2.455  0.00  0.00    +0.080 C 
ATOM      7  C   LIG    1       -4.692   0.413   3.828  0.00  0.00    +0.720 C 
ATOM      8  N   LIG    1       -5.508  -0.618   3.531  0.00  0.00    -0.740 N 
ATOM      9  H   LIG    1       -5.165  -1.381   3.041  0.00  0.00    +0.400 HD
ATOM     10  O   LIG    1       -5.096   1.328   4.520  0.00  0.00    -0.580 OA
ATOM     11  O   LIG    1       -1.346   0.865   1.618  0.00  0.00    -0.360 OA
ENDROOT
BRANCH   1  16
ATOM     12  C   LIG    1       -0.947  -3.851  -1.841  0.00  0.00    +0.200 C 
ATOM     13  C   LIG    1       -0.962  -2.857  -0.708  0.00  0.00    +0.170 A 
ATOM     14  N   LIG    1       -0.043  -2.711   0.199  0.00  0.00    -0.380 NA
ATOM     15  O   LIG    1       -0.350  -1.826   0.969  0.00  0.00    +0.100 OA
ATOM     16  C   LIG    1       -1.530  -1.307   0.616  0.00  0.00    +0.180 A 
ATOM     17  N   LIG    1       -1.925  -1.954  -0.455  0.00  0.00    -0.460 NA
ENDBRANCH   1  16
BRANCH   8  18
ATOM     18  C   LIG    1       -6.912  -0.585   3.948  0.00  0.00    +0.320 C 
ATOM     19  C   LIG    1       -7.020  -1.019   5.411  0.00  0.00    +0.030 C 
BRANCH  18  20
ATOM     20  C   LIG    1       -7.726  -1.538   3.071  0.00  0.00    -0.660 C 
ATOM     21  C   LIG    1       -8.545  -2.621   3.777  0.00  0.00    +0.130 C 
ATOM     22  C   LIG    1       -7.276  -2.999   3.009  0.00  0.00    +0.110 C 
BRANCH  20  23
ATOM     23  S   LIG    1       -8.423  -0.811   1.562  0.00  0.00    +2.450 S 
ATOM     24  O   LIG    1       -9.147  -1.818   0.868  0.00  0.00    -0.930 OA
ATOM     25  O   LIG    1       -7.394  -0.104   0.884  0.00  0.00    -0.930 OA
ATOM     26  C   LIG    1       -9.604   0.390   2.236  0.00  0.00    -0.260 C 
ENDBRANCH  20  23
ENDBRANCH  18  20
ENDBRANCH   8  18
TORSDOF 4
