REMARK  Name = ZINCpe00000MJKQ0.0
REMARK                            x       y       z     vdW  Elec       q    Type
REMARK                         _______ _______ _______ _____ _____    ______ ____
ROOT
ATOM      1  C   LIG    1       -1.727   5.837  -3.340  0.00  0.00    +0.160 A 
ATOM      2  C   LIG    1       -2.656   5.077  -4.038  0.00  0.00    +0.030 A 
ATOM      3  C   LIG    1       -3.374   4.095  -3.384  0.00  0.00    +0.030 A 
ATOM      4  C   LIG    1       -3.167   3.867  -2.035  0.00  0.00    +0.020 A 
ATOM      5  C   LIG    1       -2.242   4.623  -1.338  0.00  0.00    -0.100 A 
ATOM      6  C   LIG    1       -1.526   5.610  -1.985  0.00  0.00    +0.010 A 
ENDROOT
BRANCH   1  11
ATOM      7  O   LIG    1       -2.736   7.352  -5.283  0.00  0.00    -0.560 OA
ATOM      8  C   LIG    1       -1.564   7.525  -5.009  0.00  0.00    +0.710 C 
ATOM      9  N   LIG    1       -0.830   8.408  -5.715  0.00  0.00    -0.710 N 
ATOM     10  H   LIG    1        0.105   8.546  -5.496  0.00  0.00    +0.400 HD
ATOM     11  N   LIG    1       -0.999   6.833  -4.000  0.00  0.00    -0.690 N 
ATOM     12  H   LIG    1       -0.087   7.025  -3.731  0.00  0.00    +0.410 HD
BRANCH   9  13
ATOM     13  C   LIG    1       -1.445   9.160  -6.811  0.00  0.00    +0.260 C 
ATOM     14  C   LIG    1       -0.520   9.676  -7.924  0.00  0.00    -0.040 C 
ATOM     15  C   LIG    1       -1.090   9.629  -9.344  0.00  0.00    +0.040 C 
ATOM     16  C   LIG    1       -1.836  10.933  -9.637  0.00  0.00    +0.220 C 
ATOM     17  O   LIG    1       -2.792  11.156  -8.594  0.00  0.00    -0.380 OA
ATOM     18  C   LIG    1       -2.200  11.617  -7.379  0.00  0.00    +0.250 C 
ATOM     19  C   LIG    1       -1.123  10.646  -6.913  0.00  0.00    -0.080 C 
ENDBRANCH   9  13
ENDBRANCH   1  11
BRANCH   5  20
ATOM     20  C   LIG    1       -2.021   4.372   0.132  0.00  0.00    +0.370 C 
BRANCH  20  21
ATOM     21  N   LIG    1       -0.966   3.369   0.302  0.00  0.00    -0.570 N 
ATOM     22  C   LIG    1        0.345   3.661   0.413  0.00  0.00    +0.520 C 
ATOM     23  C   LIG    1        1.050   2.328   0.569  0.00  0.00    +0.310 C 
ATOM     24  N   LIG    1       -0.050   1.348   0.524  0.00  0.00    -0.730 N 
ATOM     25  H   LIG    1        0.030   0.384   0.595  0.00  0.00    +0.440 HD
ATOM     26  O   LIG    1        0.855   4.760   0.392  0.00  0.00    -0.470 OA
ATOM     27  C   LIG    1       -1.185   2.050   0.361  0.00  0.00    +0.700 C 
ATOM     28  O   LIG    1       -2.287   1.544   0.280  0.00  0.00    -0.540 OA
ENDBRANCH  20  21
ENDBRANCH   5  20
TORSDOF 4
