REMARK  Name = ZINCrD0000074T5n.0
REMARK                            x       y       z     vdW  Elec       q    Type
REMARK                         _______ _______ _______ _____ _____    ______ ____
ROOT
ATOM      1  C   LIG    1        1.798  -6.419   2.611  0.00  0.00    +0.290 C 
ENDROOT
BRANCH   1   2
ATOM      2  N   LIG    1        1.980  -7.871   2.531  0.00  0.00    -0.720 N 
ATOM      3  H   LIG    1        2.026  -8.307   1.666  0.00  0.00    +0.410 HD
ATOM      4  C   LIG    1        2.081  -8.600   3.660  0.00  0.00    +0.520 C 
ATOM      5  O   LIG    1        2.023  -8.054   4.742  0.00  0.00    -0.520 OA
BRANCH   4   6
ATOM      6  C   LIG    1        2.268 -10.093   3.579  0.00  0.00    +0.120 C 
BRANCH   6   7
ATOM      7  C   LIG    1        2.353 -10.666   4.970  0.00  0.00    -0.070 A 
ATOM      8  C   LIG    1        3.580 -10.784   5.595  0.00  0.00    +0.020 A 
ATOM      9  C   LIG    1        3.657 -11.305   6.873  0.00  0.00    +0.000 A 
ATOM     10  C   LIG    1        2.508 -11.716   7.523  0.00  0.00    +0.000 A 
ATOM     11  C   LIG    1        1.281 -11.603   6.895  0.00  0.00    +0.000 A 
ATOM     12  C   LIG    1        1.204 -11.077   5.619  0.00  0.00    +0.010 A 
ENDBRANCH   6   7
ENDBRANCH   4   6
ENDBRANCH   1   2
BRANCH   1  13
ATOM     13  C   LIG    1        3.163  -5.742   2.751  0.00  0.00    -0.010 C 
ATOM     14  C   LIG    1        2.967  -4.238   2.959  0.00  0.00    +0.040 C 
ATOM     15  C   LIG    1        3.982  -5.978   1.481  0.00  0.00    +0.030 C 
ENDBRANCH   1  13
BRANCH   1  16
ATOM     16  C   LIG    1        1.120  -5.928   1.358  0.00  0.00    +0.470 C 
ATOM     17  O   LIG    1        0.819  -6.711   0.488  0.00  0.00    -0.500 OA
BRANCH  16  18
ATOM     18  O   LIG    1        0.850  -4.622   1.208  0.00  0.00    -0.340 OA
BRANCH  18  19
ATOM     19  C   LIG    1        0.195  -4.221  -0.024  0.00  0.00    +0.260 C 
BRANCH  19  20
ATOM     20  C   LIG    1       -0.029  -2.707  -0.013  0.00  0.00    +0.230 C 
BRANCH  20  21
ATOM     21  O   LIG    1        1.234  -2.039  -0.021  0.00  0.00    -0.310 OA
BRANCH  21  28
ATOM     22  C   LIG    1        3.721  -0.698  -0.038  0.00  0.00    +0.100 C 
ATOM     23  C   LIG    1        2.403   0.034  -0.021  0.00  0.00    -0.110 A 
ATOM     24  C   LIG    1        2.379   1.415  -0.013  0.00  0.00    +0.050 A 
ATOM     25  C   LIG    1        1.170   2.086   0.002  0.00  0.00    -0.030 A 
ATOM     26  C   LIG    1       -0.017   1.377   0.010  0.00  0.00    +0.030 A 
ATOM     27  C   LIG    1        0.002  -0.004   0.002  0.00  0.00    -0.080 A 
ATOM     28  C   LIG    1        1.213  -0.680  -0.013  0.00  0.00    +0.130 A 
ENDBRANCH  21  28
ENDBRANCH  20  21
ENDBRANCH  19  20
ENDBRANCH  18  19
ENDBRANCH  16  18
ENDBRANCH   1  16
TORSDOF 10
