REMARK  Name = ZINCb700000010xf.0
REMARK                            x       y       z     vdW  Elec       q    Type
REMARK                         _______ _______ _______ _____ _____    ______ ____
ROOT
ATOM      1  C   LIG    1       -0.017   1.428   0.010  0.00  0.00    +0.250 A 
ATOM      2  N   LIG    1       -1.095   2.184   0.018  0.00  0.00    -0.420 NA
ATOM      3  C   LIG    1       -0.731   3.466   0.027  0.00  0.00    +0.180 A 
ATOM      4  C   LIG    1        0.622   3.527   0.015  0.00  0.00    +0.190 A 
ATOM      5  N   LIG    1        1.079   2.243   0.004  0.00  0.00    -0.440 N 
ENDROOT
BRANCH   1   7
ATOM      6  N   LIG    1        0.018  -1.140  -0.004  0.00  0.00    -0.360 NA
ATOM      7  C   LIG    1        0.002  -0.004   0.002  0.00  0.00    +0.290 C 
ENDBRANCH   1   7
BRANCH   5   8
ATOM      8  C   LIG    1        2.481   1.818  -0.011  0.00  0.00    +0.330 C 
BRANCH   8   9
ATOM      9  C   LIG    1        2.920   1.557  -1.453  0.00  0.00    +0.020 C 
BRANCH   9  10
ATOM     10  C   LIG    1        4.384   1.113  -1.468  0.00  0.00    +0.280 C 
BRANCH  10  11
ATOM     11  N   LIG    1        4.805   0.861  -2.853  0.00  0.00    -0.640 N 
ATOM     12  H   LIG    1        4.705   1.707  -3.394  0.00  0.00    +0.440 HD
ATOM     13  H   LIG    1        4.230   0.136  -3.253  0.00  0.00    +0.440 HD
ATOM     14  H   LIG    1        5.771   0.569  -2.863  0.00  0.00    +0.440 HD
ENDBRANCH  10  11
ENDBRANCH   9  10
ENDBRANCH   8   9
ENDBRANCH   5   8
TORSDOF 5
