REMARK  Name = ZINCrD00000latN1.0
REMARK                            x       y       z     vdW  Elec       q    Type
REMARK                         _______ _______ _______ _____ _____    ______ ____
ROOT
ATOM      1  C   LIG    1        4.832   4.226  -0.236  0.00  0.00    -0.130 A 
ATOM      2  C   LIG    1        6.049   3.541  -0.276  0.00  0.00    +0.070 A 
ATOM      3  C   LIG    1        7.228   4.243  -0.394  0.00  0.00    +0.040 A 
ATOM      4  C   LIG    1        7.209   5.632  -0.461  0.00  0.00    +0.140 A 
ATOM      5  C   LIG    1        6.000   6.317  -0.416  0.00  0.00    +0.020 A 
ATOM      6  C   LIG    1        4.816   5.622  -0.304  0.00  0.00    +0.110 A 
ENDROOT
BRANCH   4   7
ATOM      7  N   LIG    1        8.408   6.340  -0.575  0.00  0.00    -0.510 N 
ATOM      8  C   LIG    1        8.589   7.196  -1.618  0.00  0.00    +0.570 A 
ATOM      9  N   LIG    1        9.673   7.889  -1.792  0.00  0.00    -0.510 NA
ATOM     10  C   LIG    1       10.717   7.804  -0.930  0.00  0.00    +0.140 A 
ATOM     11  C   LIG    1       11.883   8.549  -1.118  0.00  0.00    +0.030 A 
ATOM     12  C   LIG    1       12.918   8.433  -0.217  0.00  0.00    +0.070 A 
ATOM     13  C   LIG    1       12.819   7.583   0.876  0.00  0.00    +0.010 A 
ATOM     14  C   LIG    1       11.678   6.838   1.082  0.00  0.00    +0.100 A 
ATOM     15  C   LIG    1       10.619   6.941   0.183  0.00  0.00    -0.190 A 
ATOM     16  C   LIG    1        9.376   6.174   0.355  0.00  0.00    +0.550 A 
ATOM     17  O   LIG    1        9.226   5.416   1.296  0.00  0.00    -0.490 OA
ENDBRANCH   4   7
BRANCH   1  19
ATOM     18  O   LIG    1        2.507   4.075  -0.077  0.00  0.00    -0.510 OA
ATOM     19  C   LIG    1        3.565   3.477  -0.116  0.00  0.00    +0.560 C 
ATOM     20  N   LIG    1        3.582   2.131  -0.050  0.00  0.00    -0.660 N 
ATOM     21  H   LIG    1        4.428   1.657  -0.024  0.00  0.00    +0.410 HD
BRANCH  20  22
ATOM     22  C   LIG    1        2.378   1.417  -0.020  0.00  0.00    +0.120 A 
ATOM     23  C   LIG    1        1.271   1.946   0.627  0.00  0.00    +0.030 A 
ATOM     24  C   LIG    1        0.083   1.239   0.655  0.00  0.00    +0.020 A 
ATOM     25  C   LIG    1       -0.005   0.004   0.040  0.00  0.00    +0.010 A 
ATOM     26  C   LIG    1        1.095  -0.530  -0.607  0.00  0.00    +0.000 A 
ATOM     27  C   LIG    1        2.288   0.172  -0.640  0.00  0.00    +0.080 A 
BRANCH  27  28
ATOM     28  O   LIG    1        3.370  -0.353  -1.275  0.00  0.00    -0.500 OA
ATOM     29  H   LIG    1        3.432  -0.112  -2.210  0.00  0.00    +0.390 HD
ENDBRANCH  27  28
ENDBRANCH  20  22
ENDBRANCH   1  19
TORSDOF 4
