REMARK  Name = ZINCrD0000075vIu.0
REMARK                            x       y       z     vdW  Elec       q    Type
REMARK                         _______ _______ _______ _____ _____    ______ ____
ROOT
ATOM      1  C   LIG    1        5.104   5.355   2.982  0.00  0.00    +0.140 A 
ATOM      2  C   LIG    1        4.893   4.428   3.994  0.00  0.00    +0.030 A 
ATOM      3  C   LIG    1        5.126   4.772   5.313  0.00  0.00    +0.040 A 
ATOM      4  C   LIG    1        5.560   6.042   5.633  0.00  0.00    +0.030 A 
ATOM      5  C   LIG    1        5.771   6.983   4.623  0.00  0.00    -0.120 A 
ATOM      6  C   LIG    1        5.540   6.634   3.292  0.00  0.00    +0.090 A 
ENDROOT
BRANCH   1   9
ATOM      7  O   LIG    1        6.501   6.327   0.936  0.00  0.00    -0.500 OA
ATOM      8  C   LIG    1        5.652   5.503   0.671  0.00  0.00    +0.520 C 
ATOM      9  N   LIG    1        4.872   5.000   1.648  0.00  0.00    -0.670 N 
ATOM     10  H   LIG    1        4.149   4.392   1.427  0.00  0.00    +0.420 HD
BRANCH   8  11
ATOM     11  C   LIG    1        5.469   5.041  -0.752  0.00  0.00    +0.190 C 
BRANCH  11  12
ATOM     12  C   LIG    1        6.457   5.750  -1.641  0.00  0.00    +0.140 A 
ATOM     13  N   LIG    1        6.267   6.878  -2.255  0.00  0.00    -0.270 NA
ATOM     14  O   LIG    1        7.423   7.221  -2.993  0.00  0.00    -0.080 OA
ATOM     15  C   LIG    1        8.359   6.265  -2.826  0.00  0.00    +0.090 A 
ATOM     16  C   LIG    1        9.650   6.097  -3.310  0.00  0.00    +0.020 A 
ATOM     17  C   LIG    1       10.377   4.983  -2.951  0.00  0.00    +0.080 A 
ATOM     18  C   LIG    1        9.832   4.025  -2.108  0.00  0.00    -0.010 A 
ATOM     19  C   LIG    1        8.563   4.171  -1.621  0.00  0.00    +0.090 A 
ATOM     20  C   LIG    1        7.810   5.293  -1.973  0.00  0.00    -0.190 A 
ENDBRANCH  11  12
ENDBRANCH   8  11
ENDBRANCH   1   9
BRANCH   5  21
ATOM     21  C   LIG    1        6.236   8.345   4.963  0.00  0.00    +0.570 C 
ATOM     22  N   LIG    1        6.458   8.679   6.249  0.00  0.00    -0.730 N 
ATOM     23  H   LIG    1        6.312   8.027   6.952  0.00  0.00    +0.410 HD
ATOM     24  O   LIG    1        6.419   9.162   4.082  0.00  0.00    -0.520 OA
BRANCH  22  25
ATOM     25  C   LIG    1        6.920  10.028   6.586  0.00  0.00    +0.320 C 
BRANCH  25  26
ATOM     26  C   LIG    1        7.092  10.145   8.102  0.00  0.00    +0.450 C 
ATOM     27  F   LIG    1        5.866   9.901   8.730  0.00  0.00    -0.180 F 
ATOM     28  F   LIG    1        7.532  11.433   8.423  0.00  0.00    -0.170 F 
ATOM     29  F   LIG    1        8.034   9.207   8.537  0.00  0.00    -0.180 F 
ENDBRANCH  25  26
ENDBRANCH  22  25
ENDBRANCH   5  21
TORSDOF 6
