REMARK  Name = ZINCqH0000008vRh.0
REMARK                            x       y       z     vdW  Elec       q    Type
REMARK                         _______ _______ _______ _____ _____    ______ ____
ROOT
ATOM      1  C   LIG    1       -2.058   8.138  -0.098  0.00  0.00    +0.550 C 
ATOM      2  N   LIG    1       -3.231   8.655   0.318  0.00  0.00    -0.590 N 
ATOM      3  C   LIG    1       -4.305   7.765   0.767  0.00  0.00    +0.300 C 
ATOM      4  O   LIG    1       -1.169   8.875  -0.470  0.00  0.00    -0.510 OA
ENDROOT
BRANCH   1   6
ATOM      5  C   LIG    1       -2.402   6.057  -1.401  0.00  0.00    +0.090 C 
ATOM      6  C   LIG    1       -1.850   6.646  -0.101  0.00  0.00    +0.010 C 
BRANCH   6   7
ATOM      7  S   LIG    1       -0.078   6.281   0.023  0.00  0.00    -0.070 S 
BRANCH   7   8
ATOM      8  C   LIG    1       -0.046   4.531   0.226  0.00  0.00    -0.130 A 
ATOM      9  C   LIG    1        0.133   3.706  -0.877  0.00  0.00    +0.090 A 
ATOM     10  C   LIG    1        0.158   2.335  -0.715  0.00  0.00    +0.020 A 
ATOM     11  C   LIG    1        0.004   1.782   0.544  0.00  0.00    -0.010 A 
ATOM     12  C   LIG    1       -0.180   2.602   1.644  0.00  0.00    +0.020 A 
ATOM     13 CL   LIG    1        0.035   0.058   0.744  0.00  0.00    -0.060 Cl
ATOM     14  C   LIG    1       -0.200   3.974   1.489  0.00  0.00    +0.080 A 
ENDBRANCH   7   8
ENDBRANCH   6   7
ENDBRANCH   1   6
BRANCH   2  15
ATOM     15  C   LIG    1       -3.433  10.106   0.321  0.00  0.00    +0.410 C 
BRANCH  15  16
ATOM     16  C   LIG    1       -4.002  10.537  -1.006  0.00  0.00    +0.430 A 
ATOM     17  N   LIG    1       -4.216   9.624  -1.913  0.00  0.00    -0.580 NA
ATOM     18  C   LIG    1       -4.728   9.930  -3.120  0.00  0.00    +0.530 A 
ATOM     19  C   LIG    1       -5.034  11.343  -3.405  0.00  0.00    -0.210 A 
ATOM     20  C   LIG    1       -5.561  11.754  -4.627  0.00  0.00    +0.110 A 
ATOM     21  C   LIG    1       -5.828  13.090  -4.835  0.00  0.00    -0.010 A 
ATOM     22  C   LIG    1       -5.575  14.021  -3.839  0.00  0.00    +0.080 A 
ATOM     23  C   LIG    1       -5.055  13.629  -2.623  0.00  0.00    -0.020 A 
ATOM     24  C   LIG    1       -4.779  12.288  -2.395  0.00  0.00    +0.180 A 
ATOM     25  O   LIG    1       -4.927   9.064  -3.955  0.00  0.00    -0.480 OA
ATOM     26  N   LIG    1       -4.257  11.843  -1.196  0.00  0.00    -0.620 N 
ATOM     27  H   LIG    1       -4.074  12.478  -0.486  0.00  0.00    +0.420 HD
ENDBRANCH  15  16
ENDBRANCH   2  15
TORSDOF 5
