REMARK  Name = ZINCqH0000007P6u.0
REMARK                            x       y       z     vdW  Elec       q    Type
REMARK                         _______ _______ _______ _____ _____    ______ ____
ROOT
ATOM      1  N   LIG    1        4.266  -0.755   1.317  0.00  0.00    -0.740 N 
ATOM      2  H   LIG    1        3.786  -0.339   2.050  0.00  0.00    +0.390 HD
ATOM      3  C   LIG    1        5.444  -1.368   1.544  0.00  0.00    +0.710 C 
ATOM      4  N   LIG    1        6.006  -1.317   2.768  0.00  0.00    -0.630 N 
ATOM      5  C   LIG    1        5.302  -0.691   3.899  0.00  0.00    +0.250 C 
ATOM      6  C   LIG    1        6.253   0.308   4.568  0.00  0.00    +0.220 C 
ATOM      7  O   LIG    1        7.486  -0.348   4.872  0.00  0.00    -0.370 OA
ATOM      8  C   LIG    1        8.193  -0.828   3.726  0.00  0.00    +0.200 C 
ATOM      9  C   LIG    1        7.339  -1.890   3.015  0.00  0.00    +0.300 C 
ATOM     10  O   LIG    1        6.001  -1.968   0.645  0.00  0.00    -0.580 OA
ENDROOT
BRANCH   8  11
ATOM     11  C   LIG    1        9.498  -1.442   4.160  0.00  0.00    -0.090 A 
ATOM     12  C   LIG    1       10.642  -1.234   3.412  0.00  0.00    +0.070 A 
ATOM     13  C   LIG    1       11.841  -1.797   3.809  0.00  0.00    +0.010 A 
ATOM     14  C   LIG    1       11.896  -2.570   4.956  0.00  0.00    +0.120 A 
ATOM     15  C   LIG    1       10.749  -2.778   5.706  0.00  0.00    -0.080 A 
ATOM     16 CL   LIG    1       10.816  -3.746   7.145  0.00  0.00    -0.040 Cl
ATOM     17  F   LIG    1       13.067  -3.120   5.345  0.00  0.00    -0.120 F 
ATOM     18  C   LIG    1        9.552  -2.209   5.310  0.00  0.00    +0.100 A 
ENDBRANCH   8  11
BRANCH   1  19
ATOM     19  C   LIG    1        3.710  -0.716  -0.038  0.00  0.00    +0.350 C 
BRANCH  19  25
ATOM     20  C   LIG    1        2.380   1.410  -0.012  0.00  0.00    +0.140 A 
ATOM     21  C   LIG    1        1.169   2.087   0.004  0.00  0.00    -0.080 A 
ATOM     22  C   LIG    1       -0.017   1.378   0.010  0.00  0.00    +0.060 A 
ATOM     23  C   LIG    1        0.003  -0.004   0.000  0.00  0.00    -0.030 A 
ATOM     24  C   LIG    1        1.208  -0.681  -0.015  0.00  0.00    +0.070 A 
ATOM     25  C   LIG    1        2.397   0.023  -0.021  0.00  0.00    -0.150 A 
BRANCH  20  27
ATOM     26  C   LIG    1        3.454   3.531  -0.008  0.00  0.00    +0.250 C 
ATOM     27  O   LIG    1        3.548   2.105  -0.018  0.00  0.00    -0.310 OA
ENDBRANCH  20  27
ENDBRANCH  19  25
ENDBRANCH   1  19
TORSDOF 4
