REMARK  Name = ZINCah0000002z6B.0
REMARK                            x       y       z     vdW  Elec       q    Type
REMARK                         _______ _______ _______ _____ _____    ______ ____
ROOT
ATOM      1  C   LIG    1       -1.157   2.143   0.019  0.00  0.00    -0.290 A 
ATOM      2  C   LIG    1       -0.017   1.377   0.010  0.00  0.00    +0.170 A 
ATOM      3  S   LIG    1        1.372   2.366   0.002  0.00  0.00    +0.170 S 
ATOM      4  C   LIG    1        0.419   3.839   0.018  0.00  0.00    -0.100 A 
ATOM      5  C   LIG    1       -0.876   3.563   0.029  0.00  0.00    +0.110 A 
ENDROOT
BRANCH   2   6
ATOM      6  N   LIG    1        0.002  -0.004   0.002  0.00  0.00    -0.810 N 
ATOM      7  H   LIG    1       -0.831  -0.500   0.007  0.00  0.00    +0.420 HD
ATOM      8  H   LIG    1        0.849  -0.478  -0.008  0.00  0.00    +0.410 HD
ENDBRANCH   2   6
BRANCH   1   9
ATOM      9  C   LIG    1       -2.508   1.584   0.022  0.00  0.00    +0.540 C 
ATOM     10  O   LIG    1       -2.668   0.378   0.016  0.00  0.00    -0.540 OA
BRANCH   9  12
ATOM     11  C   LIG    1       -4.868   1.792   0.033  0.00  0.00    +0.260 C 
ATOM     12  O   LIG    1       -3.578   2.406   0.031  0.00  0.00    -0.350 OA
ENDBRANCH   9  12
ENDBRANCH   1   9
TORSDOF 3
