REMARK  Name = ZINCrH000004mVwT.0
REMARK                            x       y       z     vdW  Elec       q    Type
REMARK                         _______ _______ _______ _____ _____    ______ ____
ROOT
ATOM      1  C   LIG    1       -2.232  -6.251   2.844  0.00  0.00    +0.070 A 
ATOM      2  C   LIG    1       -2.226  -4.869   2.930  0.00  0.00    +0.030 A 
ATOM      3  C   LIG    1       -1.489  -4.121   2.022  0.00  0.00    +0.120 A 
ATOM      4  C   LIG    1       -0.763  -4.758   1.025  0.00  0.00    +0.070 A 
ATOM      5  C   LIG    1       -0.764  -6.138   0.941  0.00  0.00    -0.040 A 
ATOM      6  C   LIG    1       -1.498  -6.887   1.846  0.00  0.00    +0.110 A 
ENDROOT
BRANCH   3   7
ATOM      7  N   LIG    1       -1.483  -2.723   2.108  0.00  0.00    -0.670 N 
ATOM      8  H   LIG    1       -2.235  -2.258   2.507  0.00  0.00    +0.420 HD
ATOM      9  C   LIG    1       -0.432  -2.023   1.636  0.00  0.00    +0.520 C 
ATOM     10  O   LIG    1        0.555  -2.605   1.238  0.00  0.00    -0.520 OA
BRANCH   9  11
ATOM     11  C   LIG    1       -0.483  -0.517   1.603  0.00  0.00    +0.070 C 
BRANCH  11  12
ATOM     12  C   LIG    1        0.827   0.025   1.027  0.00  0.00    +0.360 C 
BRANCH  12  13
ATOM     13  N   LIG    1        0.778   1.489   0.995  0.00  0.00    -0.380 N 
ATOM     14  C   LIG    1        1.676   2.326   1.555  0.00  0.00    +0.230 A 
ATOM     15  C   LIG    1        1.273   3.592   1.302  0.00  0.00    -0.120 A 
ATOM     16  C   LIG    1        0.088   3.527   0.562  0.00  0.00    +0.230 A 
ATOM     17  N   LIG    1       -0.207   2.267   0.373  0.00  0.00    -0.300 NA
ENDBRANCH  12  13
ENDBRANCH  11  12
ENDBRANCH   9  11
ENDBRANCH   3   7
BRANCH   6  18
ATOM     18  O   LIG    1       -1.503  -8.245   1.759  0.00  0.00    -0.300 OA
ATOM     19  C   LIG    1       -0.728  -8.831   0.711  0.00  0.00    +0.240 C 
ENDBRANCH   6  18
BRANCH   1  20
ATOM     20  O   LIG    1       -2.953  -6.986   3.732  0.00  0.00    -0.240 OA
BRANCH  20  24
ATOM     21  C   LIG    1       -1.070  -8.254   7.179  0.00  0.00    +0.100 A 
ATOM     22  C   LIG    1       -2.425  -8.489   7.003  0.00  0.00    +0.030 A 
ATOM     23  C   LIG    1       -3.056  -8.065   5.849  0.00  0.00    +0.040 A 
ATOM     24  C   LIG    1       -2.333  -7.403   4.867  0.00  0.00    +0.090 A 
ATOM     25  C   LIG    1       -0.976  -7.172   5.042  0.00  0.00    -0.020 A 
ATOM     26  C   LIG    1       -0.347  -7.593   6.197  0.00  0.00    -0.040 A 
BRANCH  21  28
ATOM     27  C   LIG    1        0.948  -8.395   8.430  0.00  0.00    +0.230 C 
ATOM     28  O   LIG    1       -0.450  -8.671   8.315  0.00  0.00    -0.320 OA
ENDBRANCH  21  28
ENDBRANCH  20  24
ENDBRANCH   1  20
TORSDOF 8
