REMARK  Name = ZINC670000002BUi.0
REMARK                            x       y       z     vdW  Elec       q    Type
REMARK                         _______ _______ _______ _____ _____    ______ ____
ROOT
ATOM      1  C   LIG    1        1.331  -0.299  -0.012  0.00  0.00    +0.310 A 
ATOM      2  C   LIG    1        0.002  -0.004   0.002  0.00  0.00    -0.160 A 
ATOM      3  S   LIG    1       -0.022   1.769   0.012  0.00  0.00    +0.390 S 
ATOM      4  N   LIG    1        1.536   1.935  -0.002  0.00  0.00    -0.250 NA
ATOM      5  N   LIG    1        2.084   0.784  -0.014  0.00  0.00    -0.280 NA
ENDROOT
BRANCH   1   6
ATOM      6  N   LIG    1        1.841  -1.607  -0.023  0.00  0.00    -0.840 N 
ATOM      7  H   LIG    1        2.800  -1.753  -0.033  0.00  0.00    +0.410 HD
ATOM      8  H   LIG    1        1.236  -2.364  -0.021  0.00  0.00    +0.420 HD
ENDBRANCH   1   6
TORSDOF 1
