REMARK  Name = ZINCrD00000F5Lso.0
REMARK                            x       y       z     vdW  Elec       q    Type
REMARK                         _______ _______ _______ _____ _____    ______ ____
ROOT
ATOM      1  C   LIG    1       -2.573   4.138   0.252  0.00  0.00    +0.330 C 
ENDROOT
BRANCH   1   2
ATOM      2  C   LIG    1       -1.259   3.411   0.128  0.00  0.00    +0.500 C 
ATOM      3  N   LIG    1       -1.239   2.068   0.019  0.00  0.00    -0.670 N 
ATOM      4  H   LIG    1       -2.072   1.575  -0.047  0.00  0.00    +0.410 HD
ATOM      5  O   LIG    1       -0.218   4.035   0.127  0.00  0.00    -0.510 OA
BRANCH   3   6
ATOM      6  C   LIG    1       -0.017   1.385   0.002  0.00  0.00    +0.150 A 
ATOM      7  C   LIG    1        1.089   1.954  -0.615  0.00  0.00    +0.040 A 
ATOM      8  C   LIG    1        2.293   1.277  -0.638  0.00  0.00    +0.050 A 
ATOM      9  C   LIG    1        2.402   0.028  -0.047  0.00  0.00    +0.040 A 
ATOM     10  O   LIG    1        3.596  -0.626  -0.083  0.00  0.00    -0.310 OA
ATOM     11  C   LIG    1        3.767  -1.706   0.842  0.00  0.00    +0.220 C 
ATOM     12  C   LIG    1        2.506  -2.580   0.798  0.00  0.00    +0.220 C 
ATOM     13  O   LIG    1        1.385  -1.768   1.164  0.00  0.00    -0.310 OA
ATOM     14  C   LIG    1        1.297  -0.545   0.573  0.00  0.00    +0.070 A 
ATOM     15  C   LIG    1        0.089   0.135   0.596  0.00  0.00    +0.000 A 
ENDBRANCH   3   6
ENDBRANCH   1   2
BRANCH   1  16
ATOM     16  N   LIG    1       -2.327   5.579   0.356  0.00  0.00    -0.600 N 
ATOM     17  C   LIG    1       -2.156   6.148   1.565  0.00  0.00    +0.560 C 
ATOM     18  O   LIG    1       -2.206   5.464   2.572  0.00  0.00    -0.540 OA
BRANCH  16  20
ATOM     19  C   LIG    1       -3.665   6.923  -1.188  0.00  0.00    +0.020 C 
ATOM     20  C   LIG    1       -2.266   6.401  -0.856  0.00  0.00    +0.270 C 
ENDBRANCH  16  20
BRANCH  17  21
ATOM     21  C   LIG    1       -1.918   7.539   1.666  0.00  0.00    -0.110 C 
ATOM     22  C   LIG    1       -1.746   8.111   2.883  0.00  0.00    +0.190 C 
BRANCH  22  23
ATOM     23  C   LIG    1       -1.507   9.503   2.983  0.00  0.00    -0.210 A 
ATOM     24  C   LIG    1       -1.324  10.197   4.151  0.00  0.00    +0.070 A 
ATOM     25  C   LIG    1       -1.107  11.540   3.956  0.00  0.00    -0.010 A 
ATOM     26  C   LIG    1       -1.122  11.938   2.678  0.00  0.00    -0.200 A 
ATOM     27  C   LIG    1       -0.915  13.360   2.224  0.00  0.00    +0.140 C 
ATOM     28  S   LIG    1       -1.407  10.621   1.630  0.00  0.00    +0.200 S 
ENDBRANCH  22  23
ENDBRANCH  17  21
ENDBRANCH   1  16
TORSDOF 6
