REMARK  Name = ZINCpk00000KfLvQ.0
REMARK                            x       y       z     vdW  Elec       q    Type
REMARK                         _______ _______ _______ _____ _____    ______ ____
ROOT
ATOM      1  C   LIG    1       -0.733   1.913   1.959  0.00  0.00    +0.350 A 
ATOM      2  N   LIG    1        0.483   1.722   2.413  0.00  0.00    -0.300 NA
ATOM      3  N   LIG    1        0.623   2.294   3.556  0.00  0.00    -0.290 NA
ATOM      4  C   LIG    1       -0.497   2.885   3.901  0.00  0.00    +0.280 A 
ATOM      5  N   LIG    1       -1.398   2.665   2.886  0.00  0.00    -0.470 N 
ENDROOT
BRANCH   4   6
ATOM      6  C   LIG    1       -0.742   3.650   5.144  0.00  0.00    -0.160 A 
ATOM      7  C   LIG    1        0.211   4.150   5.986  0.00  0.00    +0.300 A 
ATOM      8  N   LIG    1       -0.425   4.778   6.995  0.00  0.00    -0.370 N 
ATOM      9  N   LIG    1       -1.804   4.668   6.779  0.00  0.00    -0.290 NA
ATOM     10  C   LIG    1        0.215   5.458   8.123  0.00  0.00    +0.360 C 
ATOM     11  C   LIG    1       -2.001   4.001   5.673  0.00  0.00    +0.260 A 
ENDBRANCH   4   6
BRANCH   1  12
ATOM     12  N   LIG    1       -1.245   1.446   0.759  0.00  0.00    -0.430 N 
BRANCH  12  13
ATOM     13  C   LIG    1       -0.167   1.014  -0.141  0.00  0.00    +0.140 C 
ATOM     14  C   LIG    1       -0.115   1.642  -1.535  0.00  0.00    +0.050 C 
ATOM     15  C   LIG    1        0.922   2.034  -0.480  0.00  0.00    +0.030 C 
ENDBRANCH  12  13
BRANCH  12  16
ATOM     16  C   LIG    1       -2.208   0.360   0.986  0.00  0.00    +0.220 C 
BRANCH  16  17
ATOM     17  C   LIG    1       -3.103   0.208  -0.246  0.00  0.00    +0.190 C 
BRANCH  17  19
ATOM     18  C   LIG    1       -3.058  -0.387  -2.567  0.00  0.00    +0.200 C 
ATOM     19  O   LIG    1       -2.314  -0.214  -1.360  0.00  0.00    -0.380 OA
ENDBRANCH  17  19
ENDBRANCH  16  17
ENDBRANCH  12  16
ENDBRANCH   1  12
BRANCH   5  20
ATOM     20  C   LIG    1       -2.784   3.134   2.816  0.00  0.00    +0.320 C 
BRANCH  20  21
ATOM     21  C   LIG    1       -2.814   4.550   2.235  0.00  0.00    +0.150 C 
ATOM     22  C   LIG    1       -4.272   5.067   2.156  0.00  0.00    +0.020 C 
ATOM     23  C   LIG    1       -4.041   6.604   2.194  0.00  0.00    +0.020 C 
ATOM     24  C   LIG    1       -2.808   6.728   3.115  0.00  0.00    +0.190 C 
ATOM     25  O   LIG    1       -2.137   5.463   3.112  0.00  0.00    -0.360 OA
ENDBRANCH  20  21
ENDBRANCH   5  20
TORSDOF 8
