REMARK  Name = ZINCrD0000075857.0
REMARK                            x       y       z     vdW  Elec       q    Type
REMARK                         _______ _______ _______ _____ _____    ______ ____
ROOT
ATOM      1  C   LIG    1       -2.070   2.099  -1.161  0.00  0.00    +0.520 C 
ATOM      2  N   LIG    1       -0.727   1.988  -1.177  0.00  0.00    -0.720 N 
ATOM      3  H   LIG    1       -0.229   2.230  -1.973  0.00  0.00    +0.400 HD
ATOM      4  O   LIG    1       -2.692   1.796  -0.165  0.00  0.00    -0.500 OA
ENDROOT
BRANCH   1   5
ATOM      5  C   LIG    1       -2.799   2.598  -2.382  0.00  0.00    +0.270 C 
BRANCH   5   6
ATOM      6  O   LIG    1       -4.226   2.626  -2.116  0.00  0.00    -0.320 OA
BRANCH   6   7
ATOM      7  C   LIG    1       -5.026   3.051  -3.114  0.00  0.00    +0.560 C 
ATOM      8  O   LIG    1       -4.544   3.390  -4.177  0.00  0.00    -0.480 OA
BRANCH   7  15
ATOM      9  C   LIG    1       -6.816   5.573  -1.951  0.00  0.00    +0.180 C 
ATOM     10  C   LIG    1       -7.299   4.218  -2.400  0.00  0.00    +0.070 A 
ATOM     11  N   LIG    1       -8.524   3.783  -2.417  0.00  0.00    -0.350 NA
ATOM     12  O   LIG    1       -8.602   2.650  -2.825  0.00  0.00    +0.100 OA
ATOM     13  C   LIG    1       -7.420   2.130  -3.160  0.00  0.00    +0.040 A 
ATOM     14  C   LIG    1       -7.162   0.747  -3.701  0.00  0.00    +0.200 C 
ATOM     15  C   LIG    1       -6.484   3.106  -2.916  0.00  0.00    -0.250 A 
ENDBRANCH   7  15
ENDBRANCH   6   7
ENDBRANCH   5   6
ENDBRANCH   1   5
BRANCH   2  16
ATOM     16  C   LIG    1       -0.018   1.503   0.010  0.00  0.00    +0.340 C 
BRANCH  16  17
ATOM     17  C   LIG    1        1.395   2.024  -0.000  0.00  0.00    -0.090 A 
ATOM     18  C   LIG    1        2.107   2.070  -1.185  0.00  0.00    +0.010 A 
ATOM     19  C   LIG    1        3.402   2.553  -1.196  0.00  0.00    +0.020 A 
ATOM     20  C   LIG    1        3.990   2.981  -0.020  0.00  0.00    +0.010 A 
ATOM     21  C   LIG    1        3.280   2.930   1.166  0.00  0.00    +0.020 A 
ATOM     22  C   LIG    1        1.983   2.452   1.175  0.00  0.00    +0.030 A 
ENDBRANCH  16  17
BRANCH  16  23
ATOM     23  C   LIG    1        0.002  -0.004   0.002  0.00  0.00    -0.090 A 
ATOM     24  C   LIG    1        0.202  -0.686  -1.184  0.00  0.00    +0.020 A 
ATOM     25  C   LIG    1        0.226  -2.068  -1.190  0.00  0.00    +0.000 A 
ATOM     26  C   LIG    1        0.039  -2.768  -0.013  0.00  0.00    +0.000 A 
ATOM     27  C   LIG    1       -0.167  -2.087   1.171  0.00  0.00    +0.000 A 
ATOM     28  C   LIG    1       -0.185  -0.704   1.179  0.00  0.00    +0.020 A 
ENDBRANCH  16  23
ENDBRANCH   2  16
TORSDOF 7
