REMARK  Name = ZINCpk00000y6y5X.0
REMARK                            x       y       z     vdW  Elec       q    Type
REMARK                         _______ _______ _______ _____ _____    ______ ____
ROOT
ATOM      1  C   LIG    1        1.787   3.279   0.022  0.00  0.00    +0.620 C 
ATOM      2  N   LIG    1        1.379   1.995  -0.000  0.00  0.00    -0.610 N 
ATOM      3  C   LIG    1       -0.019   1.539   0.011  0.00  0.00    +0.260 C 
ATOM      4  C   LIG    1        0.002  -0.004   0.002  0.00  0.00    +0.090 C 
ATOM      5  C   LIG    1        1.412  -0.336   0.558  0.00  0.00    +0.210 C 
ATOM      6  C   LIG    1        2.261   0.814  -0.041  0.00  0.00    +0.270 C 
ATOM      7  O   LIG    1        2.974   3.540   0.009  0.00  0.00    -0.550 OA
ENDROOT
BRANCH   1  10
ATOM      8  N   LIG    1       -0.117   6.364   0.119  0.00  0.00    -0.350 N 
ATOM      9  C   LIG    1        1.061   5.721   0.088  0.00  0.00    +0.320 A 
ATOM     10  C   LIG    1        0.793   4.367   0.062  0.00  0.00    -0.290 A 
ATOM     11  C   LIG    1       -0.612   4.220   0.074  0.00  0.00    +0.270 A 
ATOM     12  N   LIG    1       -1.143   5.411   0.114  0.00  0.00    -0.290 NA
BRANCH   8  13
ATOM     13  C   LIG    1       -0.300   7.817   0.154  0.00  0.00    +0.320 C 
BRANCH  13  15
ATOM     14  C   LIG    1       -1.493   9.744  -0.897  0.00  0.00    +0.030 C 
ATOM     15  C   LIG    1       -1.202   8.245  -1.005  0.00  0.00    -0.020 C 
ATOM     16  C   LIG    1       -0.498   7.957  -2.333  0.00  0.00    +0.020 C 
ENDBRANCH  13  15
ENDBRANCH   8  13
ENDBRANCH   1  10
BRANCH   5  17
ATOM     17  C   LIG    1        1.888  -1.675   0.059  0.00  0.00    -0.040 A 
ATOM     18  C   LIG    1        3.028  -2.313   0.413  0.00  0.00    +0.150 A 
ATOM     19  N   LIG    1        3.039  -3.477  -0.277  0.00  0.00    -0.280 N 
ATOM     20  N   LIG    1        1.978  -3.525  -1.004  0.00  0.00    -0.080 NA
ATOM     21  N   LIG    1        1.271  -2.465  -0.826  0.00  0.00    -0.250 NA
BRANCH  19  22
ATOM     22  C   LIG    1        4.083  -4.503  -0.213  0.00  0.00    +0.250 C 
ATOM     23  C   LIG    1        4.635  -4.581   1.212  0.00  0.00    +0.060 C 
ATOM     24  C   LIG    1        5.214  -4.141  -1.179  0.00  0.00    +0.060 C 
ENDBRANCH  19  22
ENDBRANCH   5  17
BRANCH   5  25
ATOM     25  O   LIG    1        1.423  -0.291   1.986  0.00  0.00    -0.530 OA
ATOM     26  H   LIG    1        2.284  -0.491   2.379  0.00  0.00    +0.380 HD
ENDBRANCH   5  25
TORSDOF 6
