REMARK  Name = ZINCtj00001n0q39.0
REMARK                            x       y       z     vdW  Elec       q    Type
REMARK                         _______ _______ _______ _____ _____    ______ ____
ROOT
ATOM      1  C   LIG    1       -1.209   0.073   2.774  0.00  0.00    +0.080 C 
ENDROOT
BRANCH   1   8
ATOM      2  C   LIG    1       -0.820   1.788   6.186  0.00  0.00    +0.290 C 
ATOM      3  C   LIG    1        0.542   2.406   6.506  0.00  0.00    +0.250 C 
ATOM      4  O   LIG    1        1.508   1.364   6.665  0.00  0.00    -0.370 OA
ATOM      5  C   LIG    1        1.718   0.577   5.491  0.00  0.00    +0.220 C 
ATOM      6  C   LIG    1        0.414  -0.138   5.122  0.00  0.00    +0.260 C 
ATOM      7  N   LIG    1       -0.661   0.864   5.052  0.00  0.00    -0.610 N 
ATOM      8  C   LIG    1       -1.473   0.938   3.979  0.00  0.00    +0.520 C 
ATOM      9  O   LIG    1       -2.417   1.700   3.983  0.00  0.00    -0.510 OA
BRANCH   2  15
ATOM     10  C   LIG    1       -3.592   2.317   7.488  0.00  0.00    +0.360 C 
ATOM     11  N   LIG    1       -2.992   3.090   6.397  0.00  0.00    -0.370 N 
ATOM     12  N   LIG    1       -3.551   4.202   5.747  0.00  0.00    -0.310 NA
ATOM     13  C   LIG    1       -2.691   4.580   4.839  0.00  0.00    +0.420 A 
ATOM     14  N   LIG    1       -1.629   3.776   4.887  0.00  0.00    -0.530 NA
ATOM     15  C   LIG    1       -1.796   2.877   5.822  0.00  0.00    +0.300 A 
ENDBRANCH   2  15
ENDBRANCH   1   8
BRANCH   1  16
ATOM     16  C   LIG    1       -2.269   0.349   1.706  0.00  0.00    +0.060 C 
BRANCH  16  17
ATOM     17  C   LIG    1       -2.001  -0.530   0.482  0.00  0.00    +0.250 C 
BRANCH  17  18
ATOM     18  N   LIG    1       -3.019  -0.265  -0.544  0.00  0.00    -0.390 N 
ATOM     19  C   LIG    1       -4.336  -0.682  -0.045  0.00  0.00    +0.270 C 
ATOM     20  C   LIG    1       -5.399  -0.389  -1.106  0.00  0.00    +0.230 C 
ATOM     21  N   LIG    1       -5.071  -1.116  -2.339  0.00  0.00    -0.490 N 
ATOM     22  C   LIG    1       -3.743  -0.727  -2.837  0.00  0.00    +0.220 C 
ATOM     23  C   LIG    1       -2.694  -1.018  -1.762  0.00  0.00    +0.280 C 
ATOM     24  H   LIG    1       -3.036   0.722  -0.753  0.00  0.00    +0.420 HD
BRANCH  21  25
ATOM     25  C   LIG    1       -6.050  -0.916  -3.315  0.00  0.00    +0.080 A 
ATOM     26  C   LIG    1       -5.699  -0.403  -4.558  0.00  0.00    -0.030 A 
ATOM     27  C   LIG    1       -6.669  -0.210  -5.522  0.00  0.00    +0.040 A 
ATOM     28  C   LIG    1       -7.989  -0.517  -5.248  0.00  0.00    +0.000 A 
ATOM     29  C   LIG    1       -8.342  -1.023  -4.010  0.00  0.00    +0.040 A 
ATOM     30  C   LIG    1       -7.377  -1.223  -3.043  0.00  0.00    +0.000 A 
ENDBRANCH  21  25
ENDBRANCH  17  18
ENDBRANCH  16  17
ENDBRANCH   1  16
TORSDOF 6
