REMARK  Name = ZINCpe000000YSN6.0
REMARK                            x       y       z     vdW  Elec       q    Type
REMARK                         _______ _______ _______ _____ _____    ______ ____
ROOT
ATOM      1  C   LIG    1        2.569   9.881   3.348  0.00  0.00    +0.350 C 
ENDROOT
BRANCH   1   2
ATOM      2  N   LIG    1        2.612  11.345   3.354  0.00  0.00    -0.400 N 
ATOM      3  N   LIG    1        3.624  11.996   2.648  0.00  0.00    -0.510 N 
ATOM      4  H   LIG    1        4.278  11.465   2.167  0.00  0.00    +0.430 HD
ATOM      5  C   LIG    1        3.720  13.339   2.614  0.00  0.00    +0.560 A 
ATOM      6  C   LIG    1        2.729  14.159   3.344  0.00  0.00    -0.110 A 
ATOM      7  C   LIG    1        2.786  15.545   3.339  0.00  0.00    +0.090 A 
ATOM      8  C   LIG    1        1.836  16.271   4.037  0.00  0.00    +0.040 A 
ATOM      9  C   LIG    1        0.833  15.626   4.737  0.00  0.00    +0.040 A 
ATOM     10  C   LIG    1        0.762  14.244   4.751  0.00  0.00    +0.090 A 
ATOM     11  C   LIG    1        1.706  13.502   4.057  0.00  0.00    -0.110 A 
ATOM     12  O   LIG    1        4.615  13.874   1.989  0.00  0.00    -0.510 OA
ATOM     13  C   LIG    1        1.669  12.023   4.038  0.00  0.00    +0.560 A 
ATOM     14  O   LIG    1        0.799  11.424   4.639  0.00  0.00    -0.510 OA
ENDBRANCH   1   2
BRANCH   1  15
ATOM     15  C   LIG    1        1.716   9.401   2.172  0.00  0.00    +0.050 C 
BRANCH  15  17
ATOM     16  O   LIG    1        2.264   7.267   3.016  0.00  0.00    -0.530 OA
ATOM     17  C   LIG    1        1.671   7.895   2.164  0.00  0.00    +0.520 C 
ATOM     18  N   LIG    1        0.973   7.246   1.212  0.00  0.00    -0.730 N 
ATOM     19  H   LIG    1        0.499   7.748   0.531  0.00  0.00    +0.400 HD
BRANCH  18  20
ATOM     20  C   LIG    1        0.930   5.781   1.205  0.00  0.00    +0.280 C 
BRANCH  20  21
ATOM     21  C   LIG    1        0.077   5.302   0.029  0.00  0.00    +0.100 C 
BRANCH  21  22
ATOM     22  C   LIG    1        0.033   3.795   0.022  0.00  0.00    +0.130 A 
ATOM     23  C   LIG    1       -1.188   3.148   0.030  0.00  0.00    -0.030 A 
ATOM     24  C   LIG    1       -1.217   1.761   0.017  0.00  0.00    +0.070 A 
ATOM     25  C   LIG    1       -0.013   1.076   0.008  0.00  0.00    -0.030 A 
ATOM     26  C   LIG    1        1.170   1.792   0.001  0.00  0.00    +0.260 A 
ATOM     27  N   LIG    1        1.160   3.110   0.007  0.00  0.00    -0.480 NA
ENDBRANCH  21  22
ENDBRANCH  20  21
ENDBRANCH  18  20
ENDBRANCH  15  17
ENDBRANCH   1  15
TORSDOF 6
