REMARK  Name = ZINCpe000000YDXk.0
REMARK                            x       y       z     vdW  Elec       q    Type
REMARK                         _______ _______ _______ _____ _____    ______ ____
ROOT
ATOM      1  N   LIG    1        2.332  -0.085   0.092  0.00  0.00    -0.460 N 
ATOM      2  C   LIG    1        1.403  -0.533   1.138  0.00  0.00    +0.190 C 
ATOM      3  C   LIG    1        1.224  -2.052   1.041  0.00  0.00    +0.320 C 
ATOM      4  N   LIG    1        2.553  -2.682   1.077  0.00  0.00    -1.000 NA
ATOM      5  C   LIG    1        3.582  -2.190   0.149  0.00  0.00    +0.320 C 
ATOM      6  C   LIG    1        3.668  -0.666   0.281  0.00  0.00    +0.190 C 
ENDROOT
BRANCH   1  12
ATOM      7  C   LIG    1        1.861   1.980  -1.063  0.00  0.00    -0.160 A 
ATOM      8  C   LIG    1        1.930   3.377  -1.087  0.00  0.00    +0.100 A 
ATOM      9  C   LIG    1        2.528   4.025  -0.021  0.00  0.00    -0.030 A 
ATOM     10  C   LIG    1        3.035   3.281   1.030  0.00  0.00    +0.300 A 
ATOM     11  N   LIG    1        2.960   1.965   1.035  0.00  0.00    -0.520 NA
ATOM     12  C   LIG    1        2.394   1.295   0.043  0.00  0.00    +0.350 A 
BRANCH   7  16
ATOM     13  N   LIG    1        0.628   1.911  -3.173  0.00  0.00    -0.860 N 
ATOM     14  H   LIG    1        0.602   2.881  -3.160  0.00  0.00    +0.400 HD
ATOM     15  H   LIG    1        0.220   1.424  -3.906  0.00  0.00    +0.410 HD
ATOM     16  C   LIG    1        1.234   1.240  -2.173  0.00  0.00    +0.560 C 
ATOM     17  O   LIG    1        1.267   0.025  -2.189  0.00  0.00    -0.490 OA
ENDBRANCH   7  16
ENDBRANCH   1  12
BRANCH   4  18
ATOM     18  S   LIG    1        2.881  -3.913   2.135  0.00  0.00    +2.600 S 
ATOM     19  O   LIG    1        3.925  -4.645   1.508  0.00  0.00    -0.940 OA
ATOM     20  O   LIG    1        1.615  -4.509   2.383  0.00  0.00    -0.940 OA
BRANCH  18  21
ATOM     21  C   LIG    1        3.494  -3.079   3.625  0.00  0.00    -0.300 C 
BRANCH  21  22
ATOM     22  C   LIG    1        3.831  -4.107   4.674  0.00  0.00    -0.100 A 
ATOM     23  C   LIG    1        2.869  -4.509   5.582  0.00  0.00    +0.020 A 
ATOM     24  C   LIG    1        3.177  -5.455   6.541  0.00  0.00    +0.010 A 
ATOM     25  C   LIG    1        4.449  -5.992   6.599  0.00  0.00    +0.020 A 
ATOM     26  C   LIG    1        5.412  -5.587   5.694  0.00  0.00    +0.010 A 
ATOM     27  C   LIG    1        5.103  -4.644   4.732  0.00  0.00    +0.020 A 
ENDBRANCH  21  22
ENDBRANCH  18  21
ENDBRANCH   4  18
TORSDOF 5
