REMARK  Name = ZINCpe00000yf1rk.0
REMARK                            x       y       z     vdW  Elec       q    Type
REMARK                         _______ _______ _______ _____ _____    ______ ____
ROOT
ATOM      1  N   LIG    1        0.002  -0.004   0.002  0.00  0.00    -0.570 N 
ATOM      2  C   LIG    1        1.253  -0.480  -0.013  0.00  0.00    +0.710 C 
ATOM      3  N   LIG    1        2.176   0.501  -0.016  0.00  0.00    -0.710 N 
ATOM      4  H   LIG    1        3.140   0.392  -0.026  0.00  0.00    +0.440 HD
ATOM      5  C   LIG    1        1.435   1.768  -0.002  0.00  0.00    +0.130 C 
ATOM      6  C   LIG    1        1.765   2.568   1.254  0.00  0.00    +0.050 C 
ATOM      7  C   LIG    1        0.951   3.864   1.264  0.00  0.00    +0.020 C 
ATOM      8  C   LIG    1        1.282   4.683   0.015  0.00  0.00    +0.010 C 
ATOM      9  C   LIG    1        0.926   3.877  -1.236  0.00  0.00    +0.030 C 
ATOM     10  C   LIG    1        1.741   2.581  -1.255  0.00  0.00    +0.010 C 
ATOM     11  C   LIG    1        1.371   1.765  -2.495  0.00  0.00    +0.030 C 
ATOM     12  O   LIG    1        1.526  -1.665  -0.021  0.00  0.00    -0.540 OA
ATOM     13  C   LIG    1       -0.016   1.345   0.009  0.00  0.00    +0.540 C 
ATOM     14  O   LIG    1       -0.991   2.066   0.018  0.00  0.00    -0.450 OA
ENDROOT
BRANCH   1  15
ATOM     15  C   LIG    1       -1.198  -0.844   0.009  0.00  0.00    +0.420 C 
BRANCH  15  16
ATOM     16  C   LIG    1       -1.623  -1.124  -1.410  0.00  0.00    +0.450 C 
ATOM     17  O   LIG    1       -0.988  -0.669  -2.332  0.00  0.00    -0.490 OA
BRANCH  16  18
ATOM     18  O   LIG    1       -2.707  -1.879  -1.649  0.00  0.00    -0.330 OA
BRANCH  18  19
ATOM     19  C   LIG    1       -3.057  -2.108  -3.040  0.00  0.00    +0.250 C 
BRANCH  19  21
ATOM     20  N   LIG    1       -4.803  -3.314  -4.310  0.00  0.00    -0.610 N 
ATOM     21  C   LIG    1       -4.290  -2.970  -3.112  0.00  0.00    +0.520 C 
ATOM     22  O   LIG    1       -4.822  -3.354  -2.092  0.00  0.00    -0.510 OA
BRANCH  20  24
ATOM     23  C   LIG    1       -7.247  -3.262  -4.391  0.00  0.00    +0.020 C 
ATOM     24  C   LIG    1       -6.002  -4.152  -4.380  0.00  0.00    +0.280 C 
ENDBRANCH  20  24
BRANCH  20  25
ATOM     25  C   LIG    1       -4.160  -2.850  -5.542  0.00  0.00    +0.270 C 
ATOM     26  C   LIG    1       -3.110  -3.871  -5.985  0.00  0.00    +0.010 C 
ENDBRANCH  20  25
ENDBRANCH  19  21
ENDBRANCH  18  19
ENDBRANCH  16  18
ENDBRANCH  15  16
ENDBRANCH   1  15
TORSDOF 7
