REMARK  Name = ZINCrg00001Jdv0p.2
REMARK                            x       y       z     vdW  Elec       q    Type
REMARK                         _______ _______ _______ _____ _____    ______ ____
ROOT
ATOM      1  N   LIG    1        2.206   1.460  -1.224  0.00  0.00    -0.410 N 
ATOM      2  C   LIG    1        1.573   1.927   0.016  0.00  0.00    +0.210 C 
ATOM      3  C   LIG    1        0.120   1.448   0.062  0.00  0.00    +0.060 C 
ATOM      4  C   LIG    1        0.091  -0.082   0.005  0.00  0.00    +0.060 C 
ATOM      5  C   LIG    1        0.810  -0.550  -1.261  0.00  0.00    +0.110 C 
ATOM      6  C   LIG    1        0.841  -2.090  -1.298  0.00  0.00    +0.250 C 
ATOM      7  C   LIG    1       -0.362  -2.440  -2.215  0.00  0.00    +0.030 C 
ATOM      8  C   LIG    1       -0.323  -1.280  -3.241  0.00  0.00    +0.180 C 
ATOM      9  N   LIG    1        0.078  -0.093  -2.454  0.00  0.00    -0.510 NA
ATOM     10  C   LIG    1        0.901   0.820  -3.259  0.00  0.00    +0.200 C 
ATOM     11  C   LIG    1        2.238  -0.007  -1.283  0.00  0.00    +0.190 C 
ENDROOT
BRANCH   1  16
ATOM     12  C   LIG    1        5.598   4.949  -1.512  0.00  0.00    +0.200 C 
ATOM     13  C   LIG    1        5.097   3.528  -1.504  0.00  0.00    +0.290 A 
ATOM     14  N   LIG    1        5.917   2.527  -1.643  0.00  0.00    -0.480 NA
ATOM     15  S   LIG    1        4.954   1.129  -1.577  0.00  0.00    +0.170 S 
ATOM     16  C   LIG    1        3.477   1.989  -1.361  0.00  0.00    +0.270 A 
ATOM     17  N   LIG    1        3.820   3.260  -1.361  0.00  0.00    -0.530 NA
ENDBRANCH   1  16
BRANCH   6  18
ATOM     18  N   LIG    1        2.095  -2.569  -1.884  0.00  0.00    -0.710 N 
ATOM     19  H   LIG    1        2.592  -2.004  -2.495  0.00  0.00    +0.400 HD
ATOM     20  C   LIG    1        2.559  -3.796  -1.573  0.00  0.00    +0.560 C 
ATOM     21  O   LIG    1        1.936  -4.505  -0.807  0.00  0.00    -0.510 OA
BRANCH  20  22
ATOM     22  C   LIG    1        3.825  -4.280  -2.164  0.00  0.00    +0.120 A 
ATOM     23  C   LIG    1        4.516  -3.483  -3.027  0.00  0.00    -0.030 A 
ATOM     24  C   LIG    1        5.721  -3.937  -3.586  0.00  0.00    +0.120 A 
ATOM     25  C   LIG    1        6.181  -5.178  -3.266  0.00  0.00    -0.040 A 
ATOM     26  C   LIG    1        5.442  -5.985  -2.374  0.00  0.00    +0.520 A 
ATOM     27  O   LIG    1        5.846  -7.098  -2.082  0.00  0.00    -0.540 OA
ATOM     28  N   LIG    1        4.291  -5.527  -1.845  0.00  0.00    -0.590 N 
ATOM     29  H   LIG    1        3.788  -6.086  -1.232  0.00  0.00    +0.420 HD
ENDBRANCH  20  22
ENDBRANCH   6  18
TORSDOF 3
