REMARK  Name = ZINCrg00001JduNT.0
REMARK                            x       y       z     vdW  Elec       q    Type
REMARK                         _______ _______ _______ _____ _____    ______ ____
ROOT
ATOM      1  C   LIG    1        3.605   1.281   1.013  0.00  0.00    +0.090 C 
ATOM      2  C   LIG    1        3.589   2.321   2.142  0.00  0.00    +0.310 C 
ATOM      3  N   LIG    1        2.180   1.971   2.374  0.00  0.00    -0.640 N 
ATOM      4  C   LIG    1        1.333   1.997   3.422  0.00  0.00    +0.530 C 
ATOM      5  O   LIG    1        1.718   2.393   4.502  0.00  0.00    -0.510 OA
ATOM      6  C   LIG    1        2.102   1.574   0.960  0.00  0.00    +0.310 C 
ENDROOT
BRANCH   1  15
ATOM      7  C   LIG    1        8.705  -0.267  -3.139  0.00  0.00    +0.030 C 
ATOM      8  C   LIG    1        7.367   0.026  -2.457  0.00  0.00    -0.020 C 
ATOM      9  C   LIG    1        7.507  -0.180  -0.946  0.00  0.00    +0.050 C 
ATOM     10  C   LIG    1        6.123  -0.117  -0.289  0.00  0.00    +0.290 C 
ATOM     11  N   LIG    1        5.444   1.096  -0.743  0.00  0.00    -0.460 N 
ATOM     12  C   LIG    1        5.798   1.821  -1.834  0.00  0.00    +0.190 A 
ATOM     13  N   LIG    1        4.971   2.818  -1.923  0.00  0.00    -0.290 NA
ATOM     14  N   LIG    1        4.118   2.756  -0.959  0.00  0.00    -0.290 NA
ATOM     15  C   LIG    1        4.369   1.711  -0.213  0.00  0.00    +0.180 A 
ATOM     16  C   LIG    1        6.958   1.479  -2.735  0.00  0.00    +0.170 C 
ENDBRANCH   1  15
BRANCH   4  17
ATOM     17  C   LIG    1       -0.091   1.534   3.253  0.00  0.00    +0.180 C 
ATOM     18  C   LIG    1       -0.138   0.005   3.289  0.00  0.00    +0.050 C 
ATOM     19  C   LIG    1       -1.584  -0.465   3.117  0.00  0.00    +0.020 C 
ATOM     20  C   LIG    1       -2.442   0.099   4.252  0.00  0.00    +0.000 C 
ATOM     21  C   LIG    1       -2.394   1.628   4.216  0.00  0.00    +0.030 C 
ATOM     22  C   LIG    1       -0.949   2.098   4.388  0.00  0.00    +0.060 C 
BRANCH  17  23
ATOM     23  N   LIG    1       -0.609   2.008   1.967  0.00  0.00    -1.110 NA
ATOM     24  H   LIG    1       -0.838   1.371   1.272  0.00  0.00    +0.420 HD
BRANCH  23  25
ATOM     25  S   LIG    1       -0.802   3.631   1.700  0.00  0.00    +2.600 S 
ATOM     26  O   LIG    1       -1.214   3.716   0.343  0.00  0.00    -0.950 OA
ATOM     27  O   LIG    1       -1.654   4.060   2.753  0.00  0.00    -0.940 OA
ATOM     28  C   LIG    1        0.861   4.325   1.905  0.00  0.00    -0.280 C 
ENDBRANCH  23  25
ENDBRANCH  17  23
ENDBRANCH   4  17
TORSDOF 4
