REMARK  Name = ZINCpe00000gMw4F.1
REMARK                            x       y       z     vdW  Elec       q    Type
REMARK                         _______ _______ _______ _____ _____    ______ ____
ROOT
ATOM      1  C   LIG    1        6.978   1.937  -0.486  0.00  0.00    +0.420 C 
ENDROOT
BRANCH   1   2
ATOM      2  C   LIG    1        5.572   2.289  -0.897  0.00  0.00    +0.200 A 
ATOM      3  N   LIG    1        5.200   3.415  -1.446  0.00  0.00    -0.280 NA
ATOM      4  N   LIG    1        3.817   3.320  -1.671  0.00  0.00    -0.470 N 
ATOM      5  H   LIG    1        3.246   3.995  -2.071  0.00  0.00    +0.440 HD
ATOM      6  C   LIG    1        3.443   2.111  -1.220  0.00  0.00    +0.290 A 
ATOM      7  N   LIG    1        4.506   1.501  -0.762  0.00  0.00    -0.490 NA
BRANCH   6   8
ATOM      8  C   LIG    1        2.043   1.552  -1.244  0.00  0.00    +0.210 C 
ATOM      9  C   LIG    1        1.284   2.019   0.001  0.00  0.00    +0.240 C 
ATOM     10  O   LIG    1       -0.017   1.426   0.010  0.00  0.00    -0.380 OA
ATOM     11  C   LIG    1        0.002  -0.004   0.002  0.00  0.00    +0.240 C 
ATOM     12  C   LIG    1        0.749  -0.492  -1.242  0.00  0.00    +0.170 C 
ATOM     13  N   LIG    1        2.102   0.083  -1.253  0.00  0.00    -0.520 NA
ATOM     14  C   LIG    1        2.873  -0.406  -2.404  0.00  0.00    +0.200 C 
ENDBRANCH   6   8
ENDBRANCH   1   2
BRANCH   1  16
ATOM     15  C   LIG    1        8.946   0.887  -1.466  0.00  0.00    +0.570 C 
ATOM     16  N   LIG    1        7.668   1.291  -1.605  0.00  0.00    -0.720 N 
ATOM     17  H   LIG    1        7.204   1.153  -2.446  0.00  0.00    +0.400 HD
ATOM     18  O   LIG    1        9.527   1.059  -0.412  0.00  0.00    -0.530 OA
BRANCH  15  21
ATOM     19  C   LIG    1       11.611  -0.794  -3.514  0.00  0.00    +0.090 A 
ATOM     20  C   LIG    1       10.968  -0.179  -2.455  0.00  0.00    +0.030 A 
ATOM     21  C   LIG    1        9.641   0.235  -2.595  0.00  0.00    -0.110 A 
ATOM     22  C   LIG    1        8.976   0.036  -3.806  0.00  0.00    +0.050 A 
ATOM     23  C   LIG    1        9.628  -0.572  -4.859  0.00  0.00    +0.030 A 
ATOM     24  C   LIG    1       10.941  -0.987  -4.718  0.00  0.00    +0.100 A 
ATOM     25  F   LIG    1       11.574  -1.583  -5.752  0.00  0.00    -0.120 F 
BRANCH  19  27
ATOM     26  C   LIG    1       13.527  -0.973  -2.116  0.00  0.00    +0.250 C 
ATOM     27  O   LIG    1       12.901  -1.203  -3.380  0.00  0.00    -0.310 OA
ENDBRANCH  19  27
ENDBRANCH  15  21
ENDBRANCH   1  16
TORSDOF 5
