REMARK  Name = ZINCpe00000gMw4F.2
REMARK                            x       y       z     vdW  Elec       q    Type
REMARK                         _______ _______ _______ _____ _____    ______ ____
ROOT
ATOM      1  C   LIG    1       -0.237  -5.431   1.716  0.00  0.00    +0.410 C 
ENDROOT
BRANCH   1   2
ATOM      2  C   LIG    1        0.430  -4.120   1.393  0.00  0.00    +0.160 A 
ATOM      3  N   LIG    1        1.597  -3.964   0.828  0.00  0.00    -0.260 NA
ATOM      4  N   LIG    1        1.851  -2.710   0.699  0.00  0.00    -0.250 NA
ATOM      5  C   LIG    1        0.863  -2.009   1.183  0.00  0.00    +0.190 A 
ATOM      6  N   LIG    1       -0.069  -2.883   1.634  0.00  0.00    -0.570 N 
ATOM      7  H   LIG    1       -0.920  -2.668   2.046  0.00  0.00    +0.430 HD
BRANCH   5   8
ATOM      8  C   LIG    1        0.772  -0.505   1.227  0.00  0.00    +0.210 C 
ATOM      9  C   LIG    1        0.002  -0.004   0.002  0.00  0.00    +0.240 C 
ATOM     10  O   LIG    1       -0.017   1.426   0.010  0.00  0.00    -0.380 OA
ATOM     11  C   LIG    1        1.284   2.019   0.001  0.00  0.00    +0.240 C 
ATOM     12  C   LIG    1        2.067   1.539   1.225  0.00  0.00    +0.170 C 
ATOM     13  N   LIG    1        2.125   0.070   1.217  0.00  0.00    -0.520 NA
ATOM     14  C   LIG    1        2.918  -0.432   2.348  0.00  0.00    +0.200 C 
ENDBRANCH   5   8
ENDBRANCH   1   2
BRANCH   1  16
ATOM     15  C   LIG    1       -1.636  -7.080   0.593  0.00  0.00    +0.570 C 
ATOM     16  N   LIG    1       -0.959  -5.916   0.537  0.00  0.00    -0.720 N 
ATOM     17  H   LIG    1       -0.949  -5.399  -0.284  0.00  0.00    +0.410 HD
ATOM     18  O   LIG    1       -1.649  -7.727   1.621  0.00  0.00    -0.530 OA
BRANCH  15  21
ATOM     19  C   LIG    1       -3.746  -9.226  -1.658  0.00  0.00    +0.090 A 
ATOM     20  C   LIG    1       -3.062  -8.777  -0.543  0.00  0.00    +0.030 A 
ATOM     21  C   LIG    1       -2.364  -7.568  -0.597  0.00  0.00    -0.110 A 
ATOM     22  C   LIG    1       -2.351  -6.826  -1.779  0.00  0.00    +0.050 A 
ATOM     23  C   LIG    1       -3.031  -7.285  -2.888  0.00  0.00    +0.030 A 
ATOM     24  C   LIG    1       -3.728  -8.480  -2.832  0.00  0.00    +0.100 A 
ATOM     25  F   LIG    1       -4.393  -8.924  -3.922  0.00  0.00    -0.120 F 
BRANCH  19  27
ATOM     26  C   LIG    1       -4.406 -11.113  -0.370  0.00  0.00    +0.250 C 
ATOM     27  O   LIG    1       -4.431 -10.399  -1.608  0.00  0.00    -0.310 OA
ENDBRANCH  19  27
ENDBRANCH  15  21
ENDBRANCH   1  16
TORSDOF 5
