REMARK  Name = ZINCpe00000gMw4F.0
REMARK                            x       y       z     vdW  Elec       q    Type
REMARK                         _______ _______ _______ _____ _____    ______ ____
ROOT
ATOM      1  C   LIG    1       -3.741   2.145   0.032  0.00  0.00    +0.410 C 
ENDROOT
BRANCH   1   2
ATOM      2  C   LIG    1       -4.875   1.152   0.032  0.00  0.00    +0.260 A 
ATOM      3  N   LIG    1       -5.401   0.586  -1.024  0.00  0.00    -0.510 NA
ATOM      4  C   LIG    1       -6.380  -0.238  -0.655  0.00  0.00    +0.230 A 
ATOM      5  N   LIG    1       -6.497  -0.202   0.646  0.00  0.00    -0.270 NA
ATOM      6  N   LIG    1       -5.527   0.698   1.116  0.00  0.00    -0.470 N 
ATOM      7  H   LIG    1       -5.360   0.943   2.039  0.00  0.00    +0.450 HD
BRANCH   4   8
ATOM      8  C   LIG    1       -7.221  -1.073  -1.587  0.00  0.00    +0.220 C 
ATOM      9  C   LIG    1       -8.612  -0.448  -1.718  0.00  0.00    +0.250 C 
ATOM     10  O   LIG    1       -9.428  -1.283  -2.543  0.00  0.00    -0.380 OA
ATOM     11  C   LIG    1       -9.576  -2.616  -2.046  0.00  0.00    +0.220 C 
ATOM     12  C   LIG    1       -8.194  -3.263  -1.918  0.00  0.00    +0.160 C 
ATOM     13  N   LIG    1       -7.349  -2.434  -1.046  0.00  0.00    -0.530 NA
ATOM     14  C   LIG    1       -6.030  -3.050  -0.851  0.00  0.00    +0.200 C 
ENDBRANCH   4   8
ENDBRANCH   1   2
BRANCH   1  16
ATOM     15  C   LIG    1       -1.305   2.115   0.020  0.00  0.00    +0.570 C 
ATOM     16  N   LIG    1       -2.464   1.427   0.021  0.00  0.00    -0.720 N 
ATOM     17  H   LIG    1       -2.453   0.458   0.016  0.00  0.00    +0.410 HD
ATOM     18  O   LIG    1       -1.319   3.331   0.026  0.00  0.00    -0.520 OA
BRANCH  15  21
ATOM     19  C   LIG    1        2.388   1.419  -0.013  0.00  0.00    +0.090 A 
ATOM     20  C   LIG    1        1.185   2.102   0.002  0.00  0.00    +0.030 A 
ATOM     21  C   LIG    1       -0.017   1.392   0.010  0.00  0.00    -0.110 A 
ATOM     22  C   LIG    1        0.002  -0.004   0.002  0.00  0.00    +0.050 A 
ATOM     23  C   LIG    1        1.206  -0.677  -0.013  0.00  0.00    +0.030 A 
ATOM     24  C   LIG    1        2.398   0.028  -0.021  0.00  0.00    +0.100 A 
ATOM     25  F   LIG    1        3.574  -0.636  -0.035  0.00  0.00    -0.120 F 
BRANCH  19  27
ATOM     26  C   LIG    1        3.475   3.534  -0.013  0.00  0.00    +0.250 C 
ATOM     27  O   LIG    1        3.560   2.108  -0.021  0.00  0.00    -0.310 OA
ENDBRANCH  19  27
ENDBRANCH  15  21
ENDBRANCH   1  16
TORSDOF 5
