REMARK  Name = ZINCpk00000xI3z3.0
REMARK                            x       y       z     vdW  Elec       q    Type
REMARK                         _______ _______ _______ _____ _____    ______ ____
ROOT
ATOM      1  C   LIG    1        1.313  -0.881  -4.640  0.00  0.00    +0.220 C 
ATOM      2  C   LIG    1        1.234  -1.686  -3.315  0.00  0.00    +0.050 C 
ATOM      3  C   LIG    1        0.444  -0.744  -2.383  0.00  0.00    +0.260 C 
ATOM      4  N   LIG    1        0.582   0.618  -2.920  0.00  0.00    -0.620 N 
ATOM      5  C   LIG    1        0.018   1.728  -2.401  0.00  0.00    +0.540 C 
ATOM      6  O   LIG    1        0.205   2.805  -2.927  0.00  0.00    -0.500 OA
ATOM      7  C   LIG    1        1.443   0.570  -4.115  0.00  0.00    +0.320 C 
ENDROOT
BRANCH   1  12
ATOM      8  C   LIG    1        4.579  -3.352  -7.521  0.00  0.00    +0.200 C 
ATOM      9  C   LIG    1        3.915  -2.310  -6.658  0.00  0.00    +0.170 A 
ATOM     10  N   LIG    1        4.417  -1.161  -6.317  0.00  0.00    -0.380 NA
ATOM     11  O   LIG    1        3.632  -0.550  -5.623  0.00  0.00    +0.090 OA
ATOM     12  C   LIG    1        2.526  -1.277  -5.442  0.00  0.00    +0.160 A 
ATOM     13  N   LIG    1        2.695  -2.398  -6.100  0.00  0.00    -0.470 NA
ENDBRANCH   1  12
BRANCH   5  14
ATOM     14  C   LIG    1       -0.844   1.630  -1.169  0.00  0.00    +0.150 C 
ATOM     15  C   LIG    1       -0.019   1.088   0.025  0.00  0.00    +0.050 C 
ATOM     16  C   LIG    1       -0.816   1.643   1.235  0.00  0.00    +0.010 C 
ATOM     17  C   LIG    1       -1.300   3.019   0.730  0.00  0.00    +0.210 C 
ATOM     18  N   LIG    1       -1.287   2.974  -0.743  0.00  0.00    -0.470 N 
BRANCH  18  19
ATOM     19  C   LIG    1       -2.549   3.274  -1.264  0.00  0.00    +0.080 A 
ATOM     20  C   LIG    1       -2.741   4.440  -1.993  0.00  0.00    +0.050 A 
ATOM     21  C   LIG    1       -3.989   4.731  -2.511  0.00  0.00    +0.020 A 
ATOM     22  C   LIG    1       -5.047   3.867  -2.294  0.00  0.00    +0.000 A 
ATOM     23  C   LIG    1       -4.860   2.708  -1.564  0.00  0.00    +0.010 A 
ATOM     24  C   LIG    1       -3.614   2.409  -1.048  0.00  0.00    -0.030 A 
ENDBRANCH  18  19
ENDBRANCH   5  14
BRANCH   1  25
ATOM     25  O   LIG    1        0.119  -1.043  -5.409  0.00  0.00    -0.520 OA
ATOM     26  H   LIG    1       -0.006  -1.935  -5.758  0.00  0.00    +0.390 HD
ENDBRANCH   1  25
TORSDOF 4
