REMARK  Name = ZINCvU0000000AjC.1
REMARK                            x       y       z     vdW  Elec       q    Type
REMARK                         _______ _______ _______ _____ _____    ______ ____
ROOT
ATOM      1  C   LIG    1       -3.088   3.211  -4.605  0.00  0.00    +0.130 C 
ENDROOT
BRANCH   1   3
ATOM      2  O   LIG    1       -1.138   4.511  -4.881  0.00  0.00    -0.480 OA
ATOM      3  C   LIG    1       -2.193   4.156  -5.363  0.00  0.00    +0.540 C 
ATOM      4  N   LIG    1       -2.564   4.607  -6.578  0.00  0.00    -0.600 N 
ATOM      5  H   LIG    1       -3.407   4.324  -6.964  0.00  0.00    +0.430 HD
BRANCH   4   6
ATOM      6  C   LIG    1       -1.740   5.478  -7.276  0.00  0.00    +0.280 A 
ATOM      7  N   LIG    1       -1.953   6.000  -8.463  0.00  0.00    -0.540 NA
ATOM      8  C   LIG    1       -1.025   6.812  -8.932  0.00  0.00    +0.330 A 
ATOM      9  N   LIG    1        0.030   7.021  -8.184  0.00  0.00    -0.500 NA
ATOM     10  S   LIG    1       -0.213   6.101  -6.776  0.00  0.00    +0.340 S 
BRANCH   8  11
ATOM     11  C   LIG    1       -1.168   7.460 -10.259  0.00  0.00    -0.030 A 
ATOM     12  C   LIG    1       -2.298   7.217 -11.038  0.00  0.00    +0.070 A 
ATOM     13  C   LIG    1       -2.428   7.826 -12.269  0.00  0.00    +0.000 A 
ATOM     14  C   LIG    1       -1.435   8.668 -12.736  0.00  0.00    +0.030 A 
ATOM     15  C   LIG    1       -0.309   8.909 -11.969  0.00  0.00    +0.000 A 
ATOM     16  C   LIG    1       -0.171   8.309 -10.734  0.00  0.00    +0.060 A 
ENDBRANCH   8  11
ENDBRANCH   4   6
ENDBRANCH   1   3
BRANCH   1  17
ATOM     17  S   LIG    1       -2.317   2.790  -3.018  0.00  0.00    +0.110 S 
BRANCH  17  18
ATOM     18  C   LIG    1       -3.488   1.696  -2.285  0.00  0.00    +0.160 A 
ATOM     19  N   LIG    1       -4.625   1.315  -2.811  0.00  0.00    -0.260 NA
ATOM     20  N   LIG    1       -5.234   0.514  -2.011  0.00  0.00    -0.230 NA
ATOM     21  C   LIG    1       -4.518   0.342  -0.932  0.00  0.00    +0.120 A 
ATOM     22  S   LIG    1       -4.417  -0.464   0.638  0.00  0.00    +0.210 S 
ATOM     23  C   LIG    1       -2.840   0.230   1.053  0.00  0.00    +0.050 A 
ATOM     24  C   LIG    1       -2.503   1.007   0.019  0.00  0.00    +0.110 A 
ATOM     25  N   LIG    1       -3.374   1.083  -1.051  0.00  0.00    -0.410 N 
BRANCH  24  26
ATOM     26  C   LIG    1       -1.230   1.759   0.017  0.00  0.00    -0.060 A 
ATOM     27  C   LIG    1       -0.013   1.076   0.008  0.00  0.00    +0.070 A 
ATOM     28  C   LIG    1        1.172   1.783   0.000  0.00  0.00    +0.030 A 
ATOM     29  C   LIG    1        1.155   3.168   0.008  0.00  0.00    -0.010 A 
ATOM     30  C   LIG    1       -0.050   3.851   0.023  0.00  0.00    +0.040 A 
ATOM     31 CL   LIG    1        2.649   4.051  -0.003  0.00  0.00    -0.060 Cl
ATOM     32  C   LIG    1       -1.241   3.155   0.031  0.00  0.00    +0.060 A 
ENDBRANCH  24  26
ENDBRANCH  17  18
ENDBRANCH   1  17
TORSDOF 6
