REMARK  Name = ZINCpk00000KfLr4.0
REMARK                            x       y       z     vdW  Elec       q    Type
REMARK                         _______ _______ _______ _____ _____    ______ ____
ROOT
ATOM      1  N   LIG    1        5.155  -3.343  -4.267  0.00  0.00    -0.260 NA
ATOM      2  N   LIG    1        5.133  -3.549  -5.616  0.00  0.00    -0.590 N 
ATOM      3  H   LIG    1        5.396  -4.383  -6.035  0.00  0.00    +0.420 HD
ATOM      4  C   LIG    1        4.711  -2.471  -6.305  0.00  0.00    +0.510 C 
ATOM      5  C   LIG    1        4.363  -1.383  -5.303  0.00  0.00    +0.070 C 
ATOM      6  O   LIG    1        4.624  -2.385  -7.511  0.00  0.00    -0.520 OA
ATOM      7  C   LIG    1        4.311  -2.169  -3.978  0.00  0.00    +0.080 C 
ATOM      8  C   LIG    1        4.904  -1.341  -2.846  0.00  0.00    +0.070 C 
ATOM      9  C   LIG    1        4.050  -0.085  -2.633  0.00  0.00    +0.320 C 
ATOM     10  N   LIG    1        2.651  -0.492  -2.443  0.00  0.00    -0.600 N 
ATOM     11  C   LIG    1        2.018  -1.348  -3.455  0.00  0.00    +0.300 C 
ATOM     12  C   LIG    1        1.963  -0.092  -1.356  0.00  0.00    +0.650 C 
ATOM     13  O   LIG    1        2.499   0.612  -0.522  0.00  0.00    -0.560 OA
ATOM     14  C   LIG    1        2.882  -2.591  -3.666  0.00  0.00    +0.010 C 
ENDROOT
BRANCH   1  15
ATOM     15  C   LIG    1        4.671  -4.529  -3.546  0.00  0.00    +0.270 C 
BRANCH  15  21
ATOM     16  C   LIG    1        4.173  -6.339  -6.013  0.00  0.00    +0.350 C 
ATOM     17  N   LIG    1        5.251  -6.512  -5.037  0.00  0.00    -0.380 N 
ATOM     18  N   LIG    1        6.228  -7.516  -5.057  0.00  0.00    -0.280 NA
ATOM     19  C   LIG    1        7.014  -7.342  -4.025  0.00  0.00    +0.240 A 
ATOM     20  C   LIG    1        6.567  -6.220  -3.319  0.00  0.00    -0.090 A 
ATOM     21  C   LIG    1        5.479  -5.732  -3.959  0.00  0.00    +0.070 A 
ENDBRANCH  15  21
ENDBRANCH   1  15
BRANCH  12  22
ATOM     22  O   LIG    1        0.682  -0.472  -1.193  0.00  0.00    -0.360 OA
BRANCH  22  23
ATOM     23  C   LIG    1        0.002  -0.004   0.002  0.00  0.00    +0.140 C 
ATOM     24  C   LIG    1       -1.433  -0.534   0.013  0.00  0.00    +0.080 C 
ATOM     25  C   LIG    1        0.742  -0.511   1.242  0.00  0.00    +0.040 C 
ATOM     26  C   LIG    1       -0.019   1.526   0.010  0.00  0.00    +0.040 C 
ENDBRANCH  22  23
ENDBRANCH  12  22
TORSDOF 4
