REMARK  Name = ZINCtV00001bB3Lp.0
REMARK                            x       y       z     vdW  Elec       q    Type
REMARK                         _______ _______ _______ _____ _____    ______ ____
ROOT
ATOM      1  O   LIG    1        0.245   0.411  -1.379  0.00  0.00    -0.500 OA
ATOM      2  C   LIG    1        0.109   1.425  -0.719  0.00  0.00    +0.590 C 
ATOM      3  N   LIG    1        1.143   1.903   0.001  0.00  0.00    -0.670 N 
ATOM      4  H   LIG    1        1.060   2.750   0.466  0.00  0.00    +0.410 HD
ENDROOT
BRANCH   3   5
ATOM      5  C   LIG    1        2.337   1.177   0.079  0.00  0.00    +0.150 A 
ATOM      6  C   LIG    1        2.307  -0.212   0.069  0.00  0.00    +0.030 A 
ATOM      7  C   LIG    1        3.483  -0.935   0.140  0.00  0.00    +0.030 A 
ATOM      8  C   LIG    1        4.695  -0.282   0.231  0.00  0.00    +0.010 A 
ATOM      9  C   LIG    1        4.736   1.115   0.247  0.00  0.00    -0.050 A 
ATOM     10  C   LIG    1        3.548   1.844   0.170  0.00  0.00    +0.000 A 
BRANCH   9  11
ATOM     11  C   LIG    1        6.029   1.816   0.344  0.00  0.00    +0.080 C 
ATOM     12  C   LIG    1        7.171   1.112   0.418  0.00  0.00    +0.010 C 
BRANCH  12  13
ATOM     13  C   LIG    1        8.463   1.812   0.515  0.00  0.00    +0.160 A 
ATOM     14  C   LIG    1        9.647   1.075   0.592  0.00  0.00    -0.020 A 
ATOM     15  C   LIG    1       10.852   1.748   0.682  0.00  0.00    +0.070 A 
ATOM     16  C   LIG    1       10.838   3.136   0.694  0.00  0.00    -0.040 A 
ATOM     17  C   LIG    1        9.629   3.804   0.615  0.00  0.00    +0.270 A 
ATOM     18  N   LIG    1        8.495   3.142   0.524  0.00  0.00    -0.480 NA
ENDBRANCH  12  13
ENDBRANCH   9  11
ENDBRANCH   3   5
BRANCH   2  19
ATOM     19  C   LIG    1       -1.175   2.128  -0.711  0.00  0.00    -0.270 A 
ATOM     20  C   LIG    1       -2.288   1.741  -1.404  0.00  0.00    +0.120 A 
ATOM     21  C   LIG    1       -3.374   2.557  -1.242  0.00  0.00    +0.010 A 
ATOM     22  C   LIG    1       -3.171   3.624  -0.416  0.00  0.00    -0.110 A 
ATOM     23  S   LIG    1       -1.522   3.593   0.196  0.00  0.00    +0.170 S 
BRANCH  22  24
ATOM     24  C   LIG    1       -4.183   4.646  -0.081  0.00  0.00    -0.040 A 
ATOM     25  C   LIG    1       -5.466   4.568  -0.628  0.00  0.00    +0.080 A 
ATOM     26  C   LIG    1       -6.409   5.521  -0.307  0.00  0.00    -0.010 A 
ATOM     27  C   LIG    1       -6.082   6.563   0.547  0.00  0.00    +0.110 A 
ATOM     28  C   LIG    1       -4.809   6.649   1.088  0.00  0.00    -0.010 A 
ATOM     29  F   LIG    1       -7.009   7.497   0.854  0.00  0.00    -0.130 F 
ATOM     30  C   LIG    1       -3.860   5.697   0.779  0.00  0.00    +0.050 A 
ENDBRANCH  22  24
ENDBRANCH   2  19
TORSDOF 5
