REMARK  Name = ZINCpe000000U9LU.0
REMARK                            x       y       z     vdW  Elec       q    Type
REMARK                         _______ _______ _______ _____ _____    ______ ____
ROOT
ATOM      1  N   LIG    1       -4.215  -4.880   1.005  0.00  0.00    -0.530 NA
ATOM      2  C   LIG    1       -5.387  -4.014   1.184  0.00  0.00    +0.180 C 
ATOM      3  C   LIG    1       -5.411  -2.957   0.074  0.00  0.00    +0.300 C 
ATOM      4  N   LIG    1       -4.117  -2.259   0.066  0.00  0.00    -0.610 N 
ATOM      5  C   LIG    1       -2.890  -3.068   0.022  0.00  0.00    +0.280 C 
ATOM      6  C   LIG    1       -4.058  -0.912   0.094  0.00  0.00    +0.520 C 
ATOM      7  O   LIG    1       -5.080  -0.261   0.126  0.00  0.00    -0.510 OA
ATOM      8  C   LIG    1       -2.965  -4.120   1.139  0.00  0.00    +0.170 C 
ENDROOT
BRANCH   1   9
ATOM      9  C   LIG    1       -4.247  -6.010   1.944  0.00  0.00    +0.190 C 
BRANCH   9  10
ATOM     10  C   LIG    1       -3.860  -5.522   3.342  0.00  0.00    +0.170 C 
BRANCH  10  12
ATOM     11  C   LIG    1       -3.239  -6.248   5.651  0.00  0.00    +0.010 C 
ATOM     12  C   LIG    1       -3.746  -6.720   4.287  0.00  0.00    -0.010 C 
ENDBRANCH  10  12
BRANCH  10  13
ATOM     13  O   LIG    1       -4.862  -4.626   3.828  0.00  0.00    -0.560 OA
ATOM     14  H   LIG    1       -5.742  -5.020   3.897  0.00  0.00    +0.370 HD
ENDBRANCH  10  13
ENDBRANCH   9  10
ENDBRANCH   1   9
BRANCH   6  15
ATOM     15  C   LIG    1       -2.721  -0.217   0.085  0.00  0.00    +0.240 C 
BRANCH  15  16
ATOM     16  O   LIG    1       -2.919   1.198   0.119  0.00  0.00    -0.270 OA
BRANCH  16  17
ATOM     17  C   LIG    1       -1.807   1.977   0.116  0.00  0.00    +0.130 A 
ATOM     18  C   LIG    1       -0.550   1.390   0.082  0.00  0.00    -0.030 A 
ATOM     19  C   LIG    1        0.582   2.176   0.073  0.00  0.00    +0.080 A 
ATOM     20  C   LIG    1        0.466   3.568   0.104  0.00  0.00    -0.030 A 
ATOM     21  C   LIG    1       -0.800   4.160   0.144  0.00  0.00    +0.020 A 
ATOM     22  C   LIG    1       -1.930   3.365   0.153  0.00  0.00    +0.110 A 
BRANCH  20  23
ATOM     23  C   LIG    1        1.641   4.386   0.095  0.00  0.00    +0.250 C 
ATOM     24  N   LIG    1        2.573   5.036   0.087  0.00  0.00    -0.410 NA
ENDBRANCH  20  23
BRANCH  22  25
ATOM     25  O   LIG    1       -3.163   3.938   0.192  0.00  0.00    -0.300 OA
ATOM     26  C   LIG    1       -3.215   5.365   0.222  0.00  0.00    +0.250 C 
ENDBRANCH  22  25
ENDBRANCH  16  17
ENDBRANCH  15  16
ENDBRANCH   6  15
TORSDOF 9
