REMARK  Name = ZINCAx0000000hMt.0
REMARK                            x       y       z     vdW  Elec       q    Type
REMARK                         _______ _______ _______ _____ _____    ______ ____
ROOT
ATOM      1  N   LIG    1       -0.671   1.567   3.196  0.00  0.00    -0.970 NA
ENDROOT
BRANCH   1   2
ATOM      2  S   LIG    1       -1.824   2.080   2.123  0.00  0.00    +2.610 S 
ATOM      3  O   LIG    1       -3.010   1.416   2.538  0.00  0.00    -0.960 OA
ATOM      4  O   LIG    1       -1.728   3.498   2.156  0.00  0.00    -0.920 OA
ATOM      5  C   LIG    1       -1.266   1.442   0.519  0.00  0.00    -0.290 C 
ENDBRANCH   1   2
BRANCH   1   6
ATOM      6  C   LIG    1        0.496   2.408   3.474  0.00  0.00    +0.320 C 
BRANCH   6  11
ATOM      7  N   LIG    1        1.158   4.997   6.166  0.00  0.00    -0.520 NA
ATOM      8  C   LIG    1       -0.022   5.834   5.908  0.00  0.00    +0.150 C 
ATOM      9  C   LIG    1       -1.224   4.934   5.610  0.00  0.00    +0.220 C 
ATOM     10  O   LIG    1       -0.913   4.081   4.505  0.00  0.00    -0.350 OA
ATOM     11  C   LIG    1        0.231   3.251   4.723  0.00  0.00    +0.140 C 
ATOM     12  C   LIG    1        1.448   4.134   5.012  0.00  0.00    +0.150 C 
BRANCH   7  13
ATOM     13  C   LIG    1        2.323   5.821   6.513  0.00  0.00    +0.260 C 
BRANCH  13  15
ATOM     14  C   LIG    1        3.804   5.992   4.562  0.00  0.00    +0.060 C 
ATOM     15  C   LIG    1        2.825   6.526   5.279  0.00  0.00    -0.130 C 
BRANCH  15  16
ATOM     16  C   LIG    1        2.225   7.812   4.867  0.00  0.00    -0.040 A 
ATOM     17  C   LIG    1        2.331   8.931   5.693  0.00  0.00    +0.030 A 
ATOM     18  C   LIG    1        1.773  10.130   5.301  0.00  0.00    +0.020 A 
ATOM     19  C   LIG    1        1.100  10.222   4.094  0.00  0.00    -0.030 A 
ATOM     20  C   LIG    1        0.987   9.114   3.272  0.00  0.00    +0.030 A 
ATOM     21 CL   LIG    1        0.396  11.733   3.610  0.00  0.00    -0.070 Cl
ATOM     22  C   LIG    1        1.545   7.910   3.652  0.00  0.00    +0.030 A 
ENDBRANCH  15  16
ENDBRANCH  13  15
ENDBRANCH   7  13
ENDBRANCH   6  11
ENDBRANCH   1   6
BRANCH   1  23
ATOM     23  C   LIG    1       -0.819   0.273   3.866  0.00  0.00    +0.350 C 
BRANCH  23  24
ATOM     24  C   LIG    1       -0.059  -0.779   3.100  0.00  0.00    +0.490 C 
ATOM     25  N   LIG    1       -0.052  -2.055   3.534  0.00  0.00    -0.720 N 
ATOM     26  H   LIG    1       -0.536  -2.296   4.340  0.00  0.00    +0.410 HD
ATOM     27  O   LIG    1        0.546  -0.477   2.093  0.00  0.00    -0.530 OA
BRANCH  25  28
ATOM     28  C   LIG    1        0.687  -3.078   2.790  0.00  0.00    +0.250 C 
ATOM     29  C   LIG    1        0.075  -4.454   3.066  0.00  0.00    +0.040 C 
ATOM     30  C   LIG    1        0.674  -5.481   2.102  0.00  0.00    +0.140 C 
ATOM     31  C   LIG    1        2.191  -5.377   2.159  0.00  0.00    +0.070 A 
ATOM     32  C   LIG    1        2.827  -4.306   2.668  0.00  0.00    -0.230 A 
ATOM     33  S   LIG    1        4.561  -4.576   2.549  0.00  0.00    +0.120 S 
ATOM     34  C   LIG    1        4.283  -6.100   1.828  0.00  0.00    +0.050 A 
ATOM     35  C   LIG    1        5.361  -7.053   1.382  0.00  0.00    +0.180 C 
ATOM     36  N   LIG    1        3.019  -6.314   1.720  0.00  0.00    -0.470 NA
ATOM     37  C   LIG    1        2.152  -3.083   3.241  0.00  0.00    +0.110 C 
ENDBRANCH  25  28
ENDBRANCH  23  24
ENDBRANCH   1  23
TORSDOF 9
