REMARK  Name = ZINCrH000004mKFN.0
REMARK                            x       y       z     vdW  Elec       q    Type
REMARK                         _______ _______ _______ _____ _____    ______ ____
ROOT
ATOM      1  C   LIG    1        4.840   1.358  -0.251  0.00  0.00    -0.160 A 
ATOM      2  C   LIG    1        4.862  -0.038  -0.259  0.00  0.00    +0.110 A 
ATOM      3  C   LIG    1        6.064  -0.705  -0.379  0.00  0.00    +0.000 A 
ATOM      4  C   LIG    1        7.245   0.005  -0.491  0.00  0.00    +0.160 A 
ATOM      5  C   LIG    1        7.231   1.389  -0.483  0.00  0.00    -0.680 A 
ATOM      6  C   LIG    1        6.036   2.069  -0.370  0.00  0.00    +0.200 A 
ENDROOT
BRANCH   1   9
ATOM      7  N   LIG    1        2.404   1.390  -0.014  0.00  0.00    -0.660 N 
ATOM      8  H   LIG    1        2.422   0.423   0.061  0.00  0.00    +0.420 HD
ATOM      9  C   LIG    1        3.557   2.079  -0.123  0.00  0.00    +0.560 C 
ATOM     10  O   LIG    1        3.541   3.295  -0.116  0.00  0.00    -0.510 OA
BRANCH   7  17
ATOM     11  C   LIG    1        0.064   1.495   0.597  0.00  0.00    +0.110 A 
ATOM     12  C   LIG    1       -1.146   2.168   0.593  0.00  0.00    -0.040 A 
ATOM     13  C   LIG    1       -1.244   3.413  -0.001  0.00  0.00    +0.060 A 
ATOM     14  C   LIG    1       -0.137   3.985  -0.603  0.00  0.00    -0.050 A 
ATOM     15  C   LIG    1        1.074   3.316  -0.609  0.00  0.00    +0.070 A 
ATOM     16 CL   LIG    1       -0.268   5.545  -1.353  0.00  0.00    -0.060 Cl
ATOM     17  C   LIG    1        1.179   2.070  -0.009  0.00  0.00    +0.130 A 
BRANCH  11  19
ATOM     18  C   LIG    1       -1.022  -0.254   1.787  0.00  0.00    +0.250 C 
ATOM     19  O   LIG    1        0.162   0.273   1.186  0.00  0.00    -0.320 OA
ENDBRANCH  11  19
ENDBRANCH   7  17
ENDBRANCH   1   9
BRANCH   5  20
ATOM     20  S   LIG    1        8.742   2.285  -0.626  0.00  0.00    +2.690 S 
ATOM     21  O   LIG    1        9.770   1.410  -0.183  0.00  0.00    -0.950 OA
ATOM     22  O   LIG    1        8.507   3.562  -0.050  0.00  0.00    -0.950 OA
BRANCH  20  23
ATOM     23  N   LIG    1        9.008   2.542  -2.240  0.00  0.00    -0.990 NA
ATOM     24  C   LIG    1        9.773   1.572  -3.035  0.00  0.00    +0.290 C 
ATOM     25  C   LIG    1        8.932   1.170  -4.256  0.00  0.00    +0.010 C 
ATOM     26  C   LIG    1        8.523   2.429  -5.024  0.00  0.00    +0.020 C 
ATOM     27  C   LIG    1        7.668   3.323  -4.123  0.00  0.00    +0.010 C 
ATOM     28  C   LIG    1        8.490   3.746  -2.902  0.00  0.00    +0.290 C 
ENDBRANCH  20  23
ENDBRANCH   5  20
TORSDOF 5
