REMARK  Name = ZINCpk00000KfLi4.0
REMARK                            x       y       z     vdW  Elec       q    Type
REMARK                         _______ _______ _______ _____ _____    ______ ____
ROOT
ATOM      1  N   LIG    1       -2.345   0.934   0.018  0.00  0.00    -0.650 N 
ATOM      2  H   LIG    1       -2.332  -0.036   0.013  0.00  0.00    +0.410 HD
ATOM      3  C   LIG    1       -1.187   1.624   0.017  0.00  0.00    +0.710 C 
ATOM      4  N   LIG    1       -0.011   0.966   0.007  0.00  0.00    -0.730 N 
ATOM      5  H   LIG    1        0.002  -0.004   0.002  0.00  0.00    +0.400 HD
ATOM      6  O   LIG    1       -1.204   2.840   0.023  0.00  0.00    -0.580 OA
ENDROOT
BRANCH   1  12
ATOM      7  C   LIG    1       -4.853   1.035   0.031  0.00  0.00    +0.250 A 
ATOM      8  N   LIG    1       -5.746   1.994   0.040  0.00  0.00    -0.330 NA
ATOM      9  N   LIG    1       -5.073   3.223   0.044  0.00  0.00    -0.370 N 
ATOM     10  C   LIG    1       -3.738   2.969   0.042  0.00  0.00    +0.280 A 
ATOM     11  C   LIG    1       -5.698   4.548   0.054  0.00  0.00    +0.370 C 
ATOM     12  C   LIG    1       -3.575   1.622   0.028  0.00  0.00    +0.010 A 
BRANCH   7  14
ATOM     13  C   LIG    1       -6.492  -0.689   0.029  0.00  0.00    +0.260 C 
ATOM     14  O   LIG    1       -5.117  -0.300   0.025  0.00  0.00    -0.300 OA
ENDBRANCH   7  14
ENDBRANCH   1  12
BRANCH   4  15
ATOM     15  C   LIG    1        1.248   1.716  -0.001  0.00  0.00    +0.250 C 
ATOM     16  C   LIG    1        1.677   2.037  -1.450  0.00  0.00    -0.000 C 
ATOM     17  C   LIG    1        3.040   1.319  -1.602  0.00  0.00    +0.200 C 
ATOM     18  O   LIG    1        3.545   1.197  -0.254  0.00  0.00    -0.350 OA
ATOM     19  C   LIG    1        2.399   0.846   0.551  0.00  0.00    +0.240 C 
BRANCH  19  20
ATOM     20  C   LIG    1        2.656   1.174   2.000  0.00  0.00    -0.240 A 
ATOM     21  C   LIG    1        2.297   0.417   3.063  0.00  0.00    +0.100 A 
ATOM     22  N   LIG    1        2.709   1.054   4.179  0.00  0.00    -0.370 N 
ATOM     23  N   LIG    1        3.335   2.245   3.789  0.00  0.00    -0.300 NA
ATOM     24  C   LIG    1        2.529   0.586   5.555  0.00  0.00    +0.350 C 
ATOM     25  C   LIG    1        1.569  -0.901   3.010  0.00  0.00    +0.130 C 
ATOM     26  C   LIG    1        3.302   2.316   2.483  0.00  0.00    +0.100 A 
ATOM     27  C   LIG    1        3.864   3.435   1.644  0.00  0.00    +0.150 C 
ENDBRANCH  19  20
ENDBRANCH   4  15
TORSDOF 4
