REMARK  Name = ZINCrH00000No4Sb.0
REMARK                            x       y       z     vdW  Elec       q    Type
REMARK                         _______ _______ _______ _____ _____    ______ ____
ROOT
ATOM      1  C   LIG    1        0.678   1.965  -1.223  0.00  0.00    +0.250 C 
ATOM      2  C   LIG    1        0.327   0.460  -1.342  0.00  0.00    +0.240 C 
ATOM      3  N   LIG    1       -1.147   0.413  -1.325  0.00  0.00    -0.600 N 
ATOM      4  C   LIG    1       -1.662   1.710  -1.782  0.00  0.00    +0.170 C 
ATOM      5  C   LIG    1       -2.525   2.343  -0.691  0.00  0.00    +0.000 C 
ATOM      6  C   LIG    1       -3.729   1.442  -0.407  0.00  0.00    +0.010 C 
ATOM      7  C   LIG    1       -4.551   1.272  -1.686  0.00  0.00    -0.010 C 
ATOM      8  C   LIG    1       -3.684   0.629  -2.770  0.00  0.00    +0.010 C 
ATOM      9  C   LIG    1       -2.479   1.528  -3.059  0.00  0.00    +0.000 C 
ATOM     10  C   LIG    1       -1.896  -0.643  -0.953  0.00  0.00    +0.490 C 
ATOM     11  O   LIG    1       -3.106  -0.580  -1.012  0.00  0.00    -0.450 OA
ATOM     12  C   LIG    1       -0.449   2.615  -2.070  0.00  0.00    +0.040 C 
ENDROOT
BRANCH   1  14
ATOM     13  C   LIG    1        3.104   2.105  -1.043  0.00  0.00    +0.550 C 
ATOM     14  N   LIG    1        1.996   2.244  -1.798  0.00  0.00    -0.720 N 
ATOM     15  H   LIG    1        2.071   2.528  -2.723  0.00  0.00    +0.400 HD
ATOM     16  O   LIG    1        3.009   1.748   0.116  0.00  0.00    -0.540 OA
BRANCH  13  18
ATOM     17  C   LIG    1        5.520   2.248  -0.875  0.00  0.00    +0.150 C 
ATOM     18  C   LIG    1        4.427   2.385  -1.620  0.00  0.00    -0.090 C 
ENDBRANCH  13  18
ENDBRANCH   1  14
BRANCH  10  19
ATOM     19  C   LIG    1       -1.230  -1.904  -0.464  0.00  0.00    +0.100 C 
BRANCH  19  20
ATOM     20  C   LIG    1       -2.296  -2.959  -0.160  0.00  0.00    -0.070 C 
ATOM     21  C   LIG    1       -1.916  -4.426  -0.365  0.00  0.00    +0.040 C 
ATOM     22  C   LIG    1       -2.874  -3.740  -1.342  0.00  0.00    +0.030 C 
BRANCH  20  23
ATOM     23  C   LIG    1       -3.227  -2.633   0.980  0.00  0.00    -0.040 A 
ATOM     24  C   LIG    1       -4.570  -2.420   0.736  0.00  0.00    +0.030 A 
ATOM     25  C   LIG    1       -5.424  -2.127   1.783  0.00  0.00    +0.000 A 
ATOM     26  C   LIG    1       -4.933  -2.036   3.072  0.00  0.00    +0.000 A 
ATOM     27  C   LIG    1       -3.588  -2.244   3.314  0.00  0.00    +0.000 A 
ATOM     28  C   LIG    1       -2.735  -2.542   2.269  0.00  0.00    +0.010 A 
ENDBRANCH  20  23
ENDBRANCH  19  20
ENDBRANCH  10  19
TORSDOF 5
