REMARK  Name = ZINCpe000027pGVk.0
REMARK                            x       y       z     vdW  Elec       q    Type
REMARK                         _______ _______ _______ _____ _____    ______ ____
ROOT
ATOM      1  N   LIG    1        0.083   0.017   0.177  0.00  0.00    -0.510 N 
ATOM      2  C   LIG    1        0.035   1.365   0.178  0.00  0.00    +0.580 C 
ATOM      3  C   LIG    1        1.302   2.107   0.323  0.00  0.00    -0.380 C 
ATOM      4  C   LIG    1        2.536   1.308   0.458  0.00  0.00    +0.580 C 
ATOM      5  N   LIG    1        2.430  -0.036   0.440  0.00  0.00    -0.620 N 
ATOM      6  H   LIG    1        3.231  -0.576   0.527  0.00  0.00    +0.450 HD
ATOM      7  O   LIG    1        3.619   1.848   0.582  0.00  0.00    -0.480 OA
ATOM      8  C   LIG    1        1.332   3.485   0.333  0.00  0.00    +0.560 C 
ATOM      9  O   LIG    1       -1.023   1.952   0.057  0.00  0.00    -0.510 OA
ATOM     10  C   LIG    1        1.243  -0.644   0.304  0.00  0.00    +0.530 C 
ATOM     11  S   LIG    1        1.205  -2.356   0.292  0.00  0.00    -0.460 S 
ENDROOT
BRANCH   8  12
ATOM     12  N   LIG    1        0.197   4.192   0.080  0.00  0.00    -0.640 N 
ATOM     13  H   LIG    1       -0.647   3.729  -0.035  0.00  0.00    +0.430 HD
ATOM     14  C   LIG    1        0.247   5.536  -0.012  0.00  0.00    +0.700 C 
ATOM     15  N   LIG    1       -0.877   6.236  -0.262  0.00  0.00    -0.660 N 
ATOM     16  H   LIG    1       -1.733   5.782  -0.301  0.00  0.00    +0.420 HD
ATOM     17  O   LIG    1        1.305   6.116   0.132  0.00  0.00    -0.530 OA
BRANCH  15  18
ATOM     18  C   LIG    1       -0.809   7.619  -0.466  0.00  0.00    +0.140 A 
ATOM     19  C   LIG    1       -1.857   8.434  -0.059  0.00  0.00    +0.000 A 
ATOM     20  C   LIG    1       -1.784   9.800  -0.256  0.00  0.00    +0.030 A 
ATOM     21  C   LIG    1       -0.675  10.353  -0.868  0.00  0.00    -0.090 A 
ATOM     22  C   LIG    1        0.368   9.543  -1.279  0.00  0.00    +0.030 A 
ATOM     23  C   LIG    1       -0.601  11.842  -1.086  0.00  0.00    +0.090 C 
ATOM     24  C   LIG    1        0.304   8.178  -1.080  0.00  0.00    +0.030 A 
ENDBRANCH  15  18
ENDBRANCH   8  12
BRANCH   1  25
ATOM     25  C   LIG    1       -1.161  -0.743   0.034  0.00  0.00    +0.350 C 
BRANCH  25  26
ATOM     26  C   LIG    1       -1.433  -1.001  -1.449  0.00  0.00    +0.170 C 
BRANCH  26  28
ATOM     27  C   LIG    1       -0.572  -2.151  -3.368  0.00  0.00    +0.190 C 
ATOM     28  O   LIG    1       -0.411  -1.846  -1.982  0.00  0.00    -0.360 OA
ENDBRANCH  26  28
ENDBRANCH  25  26
ENDBRANCH   1  25
TORSDOF 5
