REMARK  Name = ZINCpk00000l1QA0.0
REMARK                            x       y       z     vdW  Elec       q    Type
REMARK                         _______ _______ _______ _____ _____    ______ ____
ROOT
ATOM      1  C   LIG    1       -1.136  -2.159   0.001  0.00  0.00    +0.230 C 
ATOM      2  C   LIG    1       -1.500  -2.787   1.357  0.00  0.00    +0.020 C 
ATOM      3  C   LIG    1       -2.967  -2.751   0.888  0.00  0.00    +0.230 C 
ATOM      4  C   LIG    1       -2.425  -2.789  -0.551  0.00  0.00    +0.040 C 
ENDROOT
BRANCH   1   7
ATOM      5  O   LIG    1        1.060  -0.596  -0.011  0.00  0.00    -0.510 OA
ATOM      6  C   LIG    1        0.002  -0.004   0.002  0.00  0.00    +0.520 C 
ATOM      7  N   LIG    1       -1.156  -0.694   0.009  0.00  0.00    -0.720 N 
ATOM      8  H   LIG    1       -2.002  -0.220   0.020  0.00  0.00    +0.390 HD
BRANCH   6   9
ATOM      9  C   LIG    1       -0.018   1.503   0.010  0.00  0.00    +0.150 C 
BRANCH   9  10
ATOM     10  C   LIG    1        1.395   2.024  -0.000  0.00  0.00    +0.080 A 
ATOM     11  C   LIG    1        1.843   2.880  -0.924  0.00  0.00    -0.070 A 
ATOM     12  S   LIG    1        3.533   3.228  -0.567  0.00  0.00    +0.120 S 
ATOM     13  C   LIG    1        3.472   2.182   0.784  0.00  0.00    +0.230 A 
ATOM     14  N   LIG    1        2.293   1.669   0.897  0.00  0.00    -0.450 NA
ENDBRANCH   9  10
ENDBRANCH   6   9
ENDBRANCH   1   7
BRANCH   3  15
ATOM     15  N   LIG    1       -3.661  -1.505   1.221  0.00  0.00    -0.710 N 
ATOM     16  H   LIG    1       -3.450  -0.689   0.741  0.00  0.00    +0.390 HD
ATOM     17  C   LIG    1       -4.593  -1.492   2.194  0.00  0.00    +0.560 C 
ATOM     18  O   LIG    1       -4.858  -2.515   2.796  0.00  0.00    -0.510 OA
BRANCH  17  19
ATOM     19  C   LIG    1       -5.292  -0.237   2.530  0.00  0.00    -0.130 A 
ATOM     20  C   LIG    1       -4.991   0.941   1.841  0.00  0.00    +0.060 A 
ATOM     21  C   LIG    1       -5.646   2.111   2.157  0.00  0.00    +0.040 A 
ATOM     22  C   LIG    1       -6.605   2.128   3.156  0.00  0.00    +0.070 A 
ATOM     23  C   LIG    1       -6.915   0.970   3.848  0.00  0.00    +0.030 A 
ATOM     24  O   LIG    1       -7.805   0.729   4.856  0.00  0.00    -0.300 OA
ATOM     25  C   LIG    1       -7.397  -0.524   5.436  0.00  0.00    +0.440 C 
ATOM     26  O   LIG    1       -6.739  -1.205   4.351  0.00  0.00    -0.280 OA
ATOM     27  C   LIG    1       -6.265  -0.222   3.536  0.00  0.00    +0.100 A 
ENDBRANCH  17  19
ENDBRANCH   3  15
TORSDOF 5
