REMARK  Name = ZINCpe00000VVGNa.0
REMARK                            x       y       z     vdW  Elec       q    Type
REMARK                         _______ _______ _______ _____ _____    ______ ____
ROOT
ATOM      1  C   LIG    1        0.073   1.727   2.432  0.00  0.00    +0.520 C 
ATOM      2  N   LIG    1        0.350   0.627   3.161  0.00  0.00    -0.620 N 
ATOM      3  C   LIG    1       -0.210  -0.682   2.793  0.00  0.00    +0.280 C 
ATOM      4  C   LIG    1        0.942  -1.698   2.730  0.00  0.00    +0.170 C 
ATOM      5  N   LIG    1        1.679  -1.674   4.000  0.00  0.00    -0.530 NA
ATOM      6  C   LIG    1        2.305  -0.364   4.228  0.00  0.00    +0.170 C 
ATOM      7  C   LIG    1        1.214   0.705   4.348  0.00  0.00    +0.300 C 
ATOM      8  O   LIG    1        0.539   2.800   2.753  0.00  0.00    -0.510 OA
ENDROOT
BRANCH   1  15
ATOM      9  C   LIG    1       -2.056   5.294   1.067  0.00  0.00    +0.100 C 
ATOM     10  C   LIG    1       -1.599   3.973   1.632  0.00  0.00    +0.530 C 
ATOM     11  N   LIG    1       -1.274   2.962   0.803  0.00  0.00    -0.610 N 
ATOM     12  C   LIG    1       -1.319   3.009  -0.666  0.00  0.00    +0.240 C 
ATOM     13  C   LIG    1       -0.839   1.637  -1.184  0.00  0.00    +0.040 C 
ATOM     14  C   LIG    1       -0.013   1.086   0.008  0.00  0.00    +0.050 C 
ATOM     15  C   LIG    1       -0.815   1.624   1.219  0.00  0.00    +0.220 C 
ATOM     16  O   LIG    1       -1.525   3.821   2.833  0.00  0.00    -0.520 OA
ENDBRANCH   1  15
BRANCH   5  17
ATOM     17  C   LIG    1        2.678  -2.750   4.051  0.00  0.00    +0.160 C 
BRANCH  17  18
ATOM     18  C   LIG    1        1.967  -4.105   4.060  0.00  0.00    +0.260 C 
BRANCH  18  19
ATOM     19  C   LIG    1        2.991  -5.209   4.112  0.00  0.00    -0.120 A 
ATOM     20  C   LIG    1        3.509  -5.615   5.327  0.00  0.00    +0.010 A 
ATOM     21  C   LIG    1        4.446  -6.631   5.375  0.00  0.00    +0.000 A 
ATOM     22  C   LIG    1        4.871  -7.234   4.206  0.00  0.00    +0.000 A 
ATOM     23  C   LIG    1        4.356  -6.825   2.990  0.00  0.00    +0.000 A 
ATOM     24  C   LIG    1        3.417  -5.812   2.943  0.00  0.00    +0.010 A 
ENDBRANCH  18  19
BRANCH  18  25
ATOM     25  O   LIG    1        1.117  -4.189   5.206  0.00  0.00    -0.540 OA
ATOM     26  H   LIG    1        1.585  -4.106   6.049  0.00  0.00    +0.370 HD
ENDBRANCH  18  25
ENDBRANCH  17  18
ENDBRANCH   5  17
TORSDOF 5
