REMARK  Name = ZINCpe00000FUpnu.0
REMARK                            x       y       z     vdW  Elec       q    Type
REMARK                         _______ _______ _______ _____ _____    ______ ____
ROOT
ATOM      1  O   LIG    1       -0.138   3.392   5.640  0.00  0.00    -0.520 OA
ATOM      2  C   LIG    1       -0.541   3.902   4.616  0.00  0.00    +0.520 C 
ATOM      3  N   LIG    1       -0.889   3.127   3.569  0.00  0.00    -0.620 N 
ATOM      4  C   LIG    1       -0.786   1.662   3.647  0.00  0.00    +0.300 C 
ATOM      5  C   LIG    1       -0.003   1.164   2.428  0.00  0.00    +0.170 C 
ATOM      6  N   LIG    1       -0.629   1.678   1.203  0.00  0.00    -0.530 NA
ATOM      7  C   LIG    1       -0.572   3.145   1.151  0.00  0.00    +0.170 C 
ATOM      8  C   LIG    1       -1.380   3.725   2.318  0.00  0.00    +0.280 C 
ENDROOT
BRANCH   6   9
ATOM      9  C   LIG    1       -0.013   1.086   0.008  0.00  0.00    +0.160 C 
BRANCH   9  10
ATOM     10  C   LIG    1       -0.512  -0.350  -0.164  0.00  0.00    +0.260 C 
BRANCH  10  11
ATOM     11  C   LIG    1        0.128  -0.962  -1.384  0.00  0.00    -0.110 A 
ATOM     12  C   LIG    1       -0.532  -0.937  -2.597  0.00  0.00    +0.030 A 
ATOM     13  C   LIG    1        0.056  -1.498  -3.716  0.00  0.00    +0.020 A 
ATOM     14  C   LIG    1        1.304  -2.085  -3.621  0.00  0.00    +0.020 A 
ATOM     15  C   LIG    1        1.965  -2.111  -2.408  0.00  0.00    +0.030 A 
ATOM     16  C   LIG    1        1.380  -1.544  -1.289  0.00  0.00    -0.030 A 
ATOM     17 CL   LIG    1        2.214  -1.569   0.233  0.00  0.00    -0.060 Cl
ENDBRANCH  10  11
BRANCH  10  18
ATOM     18  O   LIG    1       -1.932  -0.344  -0.325  0.00  0.00    -0.540 OA
ATOM     19  H   LIG    1       -2.240   0.159  -1.091  0.00  0.00    +0.370 HD
ENDBRANCH  10  18
ENDBRANCH   9  10
ENDBRANCH   6   9
BRANCH   2  20
ATOM     20  C   LIG    1       -0.654   5.401   4.514  0.00  0.00    +0.210 C 
BRANCH  20  21
ATOM     21  N   LIG    1       -0.219   6.012   5.777  0.00  0.00    -0.520 NA
ATOM     22  C   LIG    1       -1.140   5.671   6.872  0.00  0.00    +0.150 C 
ATOM     23  C   LIG    1       -0.618   6.277   8.178  0.00  0.00    +0.230 C 
ATOM     24  O   LIG    1       -0.468   7.690   8.016  0.00  0.00    -0.390 OA
ATOM     25  C   LIG    1        0.423   8.057   6.959  0.00  0.00    +0.220 C 
ATOM     26  C   LIG    1       -0.088   7.470   5.641  0.00  0.00    +0.160 C 
ENDBRANCH  20  21
ENDBRANCH   2  20
TORSDOF 6
