REMARK  Name = ZINCnE000001GXW5.0
REMARK                            x       y       z     vdW  Elec       q    Type
REMARK                         _______ _______ _______ _____ _____    ______ ____
ROOT
ATOM      1  C   LIG    1       -2.156  -3.082   0.006  0.00  0.00    +0.050 C 
ENDROOT
BRANCH   1   3
ATOM      2  N   LIG    1       -1.112  -0.840   0.008  0.00  0.00    -0.680 NA
ATOM      3  C   LIG    1       -0.951  -2.178  -0.001  0.00  0.00    +0.460 C 
ATOM      4  O   LIG    1        0.165  -2.654  -0.014  0.00  0.00    -0.570 OA
BRANCH   2   8
ATOM      5  C   LIG    1        1.743   1.751  -0.005  0.00  0.00    -0.090 A 
ATOM      6  N   LIG    1        2.133   0.510  -0.016  0.00  0.00    -0.230 NA
ATOM      7  N   LIG    1        1.244  -0.385  -0.012  0.00  0.00    -0.350 NA
ATOM      8  C   LIG    1        0.002  -0.004   0.002  0.00  0.00    +0.330 A 
ATOM      9  S   LIG    1       -0.022   1.761   0.012  0.00  0.00    +0.000 S 
BRANCH   5  10
ATOM     10  S   LIG    1        2.789   3.168  -0.008  0.00  0.00    -0.040 S 
BRANCH  10  12
ATOM     11  C   LIG    1        5.495   3.568  -0.032  0.00  0.00    +0.060 C 
ATOM     12  C   LIG    1        4.454   2.447  -0.028  0.00  0.00    +0.080 C 
ENDBRANCH  10  12
ENDBRANCH   5  10
ENDBRANCH   2   8
ENDBRANCH   1   3
BRANCH   1  13
ATOM     13  C   LIG    1       -1.699  -4.542  -0.006  0.00  0.00    +0.060 C 
BRANCH  13  14
ATOM     14  C   LIG    1       -2.923  -5.460   0.001  0.00  0.00    +0.180 C 
BRANCH  14  15
ATOM     15  O   LIG    1       -2.495  -6.824  -0.011  0.00  0.00    -0.310 OA
BRANCH  15  16
ATOM     16  C   LIG    1       -3.467  -7.775  -0.007  0.00  0.00    +0.100 A 
ATOM     17  C   LIG    1       -4.803  -7.402   0.014  0.00  0.00    -0.040 A 
ATOM     18  C   LIG    1       -5.790  -8.369   0.013  0.00  0.00    -0.040 A 
ATOM     19  C   LIG    1       -5.445  -9.712   0.003  0.00  0.00    +0.080 A 
ATOM     20  C   LIG    1       -4.109 -10.085  -0.013  0.00  0.00    +0.030 A 
ATOM     21  C   LIG    1       -3.122  -9.118  -0.017  0.00  0.00    +0.020 A 
BRANCH  19  22
ATOM     22  O   LIG    1       -6.416 -10.664   0.008  0.00  0.00    -0.320 OA
ATOM     23  C   LIG    1       -7.771 -10.208   0.024  0.00  0.00    +0.230 C 
ENDBRANCH  19  22
ENDBRANCH  15  16
ENDBRANCH  14  15
ENDBRANCH  13  14
ENDBRANCH   1  13
TORSDOF 9
