REMARK  Name = ZINCrg000000pUCu.0
REMARK                            x       y       z     vdW  Elec       q    Type
REMARK                         _______ _______ _______ _____ _____    ______ ____
ROOT
ATOM      1  C   LIG    1        1.182   2.099   0.002  0.00  0.00    -0.090 A 
ATOM      2  C   LIG    1       -0.017   1.383   0.010  0.00  0.00    +0.060 A 
ATOM      3  C   LIG    1        0.002  -0.004   0.002  0.00  0.00    +0.200 A 
ATOM      4  C   LIG    1        1.211  -0.684  -0.013  0.00  0.00    +0.040 A 
ATOM      5  C   LIG    1        2.413   0.025  -0.021  0.00  0.00    -0.090 A 
ATOM      6  C   LIG    1        2.398   1.419  -0.014  0.00  0.00    +0.090 A 
ENDROOT
BRANCH   1   7
ATOM      7  C   LIG    1        1.161   3.577   0.010  0.00  0.00    +0.510 C 
ATOM      8  O   LIG    1        0.101   4.169   0.023  0.00  0.00    -0.500 OA
BRANCH   7  10
ATOM      9  C   LIG    1        2.221   5.716   0.011  0.00  0.00    +0.290 C 
ATOM     10  O   LIG    1        2.318   4.267   0.002  0.00  0.00    -0.350 OA
ENDBRANCH   7  10
ENDBRANCH   1   7
BRANCH   5  11
ATOM     11  C   LIG    1        3.701  -0.700  -0.039  0.00  0.00    +0.510 C 
ATOM     12  O   LIG    1        3.713  -1.915  -0.046  0.00  0.00    -0.500 OA
BRANCH  11  13
ATOM     13  O   LIG    1        4.860  -0.015  -0.046  0.00  0.00    -0.350 OA
ATOM     14  C   LIG    1        6.086  -0.793  -0.063  0.00  0.00    +0.290 C 
ENDBRANCH  11  13
ENDBRANCH   5  11
BRANCH   3  15
ATOM     15  N   LIG    1       -1.200  -0.718   0.010  0.00  0.00    -0.730 N 
ATOM     16  H   LIG    1       -2.045  -0.243   0.021  0.00  0.00    +0.420 HD
BRANCH  15  17
ATOM     17  C   LIG    1       -1.181  -2.183   0.002  0.00  0.00    +0.290 C 
BRANCH  17  18
ATOM     18  C   LIG    1       -2.596  -2.702   0.013  0.00  0.00    +0.510 C 
ATOM     19  N   LIG    1       -2.826  -4.030   0.009  0.00  0.00    -0.610 N 
ATOM     20  C   LIG    1       -1.701  -4.968  -0.008  0.00  0.00    +0.280 C 
ATOM     21  O   LIG    1       -3.527  -1.926   0.027  0.00  0.00    -0.530 OA
BRANCH  19  22
ATOM     22  C   LIG    1       -4.201  -4.536   0.020  0.00  0.00    +0.370 C 
BRANCH  22  23
ATOM     23  C   LIG    1       -4.687  -4.701  -1.397  0.00  0.00    -0.270 A 
ATOM     24  C   LIG    1       -5.325  -3.764  -2.135  0.00  0.00    +0.260 A 
ATOM     25  N   LIG    1       -5.588  -4.300  -3.345  0.00  0.00    -0.380 N 
ATOM     26  N   LIG    1       -5.102  -5.614  -3.348  0.00  0.00    -0.300 NA
ATOM     27  C   LIG    1       -6.266  -3.629  -4.457  0.00  0.00    +0.360 C 
ATOM     28  C   LIG    1       -4.562  -5.853  -2.180  0.00  0.00    +0.240 A 
ENDBRANCH  22  23
ENDBRANCH  19  22
ENDBRANCH  17  18
ENDBRANCH  15  17
ENDBRANCH   3  15
TORSDOF 9
