REMARK  Name = ZINCkj00000y7zRV.0
REMARK                            x       y       z     vdW  Elec       q    Type
REMARK                         _______ _______ _______ _____ _____    ______ ____
ROOT
ATOM      1  C   LIG    1       -0.476   1.595   1.159  0.00  0.00    +0.140 C 
ATOM      2  C   LIG    1        0.316   1.335  -0.128  0.00  0.00    +0.310 C 
ATOM      3  N   LIG    1       -0.385   1.987  -1.245  0.00  0.00    -0.640 N 
ATOM      4  C   LIG    1       -0.765   3.400  -1.092  0.00  0.00    +0.260 C 
ATOM      5  C   LIG    1       -1.506   3.560   0.241  0.00  0.00    +0.240 C 
ATOM      6  C   LIG    1       -0.670   1.310  -2.375  0.00  0.00    +0.710 C 
ATOM      7  N   LIG    1       -1.400   1.895  -3.345  0.00  0.00    -0.740 N 
ATOM      8  H   LIG    1       -1.657   2.827  -3.263  0.00  0.00    +0.400 HD
ATOM      9  O   LIG    1       -0.269   0.171  -2.519  0.00  0.00    -0.580 OA
ATOM     10  O   LIG    1       -0.713   2.999   1.290  0.00  0.00    -0.390 OA
ENDROOT
BRANCH   1  11
ATOM     11  C   LIG    1        0.325   1.097   2.363  0.00  0.00    +0.290 C 
BRANCH  11  13
ATOM     12  C   LIG    1        0.383   0.985   4.758  0.00  0.00    +0.320 C 
ATOM     13  N   LIG    1       -0.444   1.327   3.593  0.00  0.00    -0.380 N 
ATOM     14  H   LIG    1       -0.713   2.298   3.644  0.00  0.00    +0.430 HD
BRANCH  13  15
ATOM     15  C   LIG    1       -1.648   0.485   3.582  0.00  0.00    +0.280 C 
BRANCH  15  16
ATOM     16  C   LIG    1       -2.511   0.815   4.801  0.00  0.00    -0.080 C 
ATOM     17  C   LIG    1       -2.727  -0.293   5.835  0.00  0.00    +0.050 C 
ATOM     18  C   LIG    1       -3.872   0.124   4.910  0.00  0.00    +0.070 C 
ENDBRANCH  15  16
ENDBRANCH  13  15
ENDBRANCH  11  13
ENDBRANCH   1  11
BRANCH   7  19
ATOM     19  C   LIG    1       -1.804   1.125  -4.524  0.00  0.00    +0.320 C 
BRANCH  19  20
ATOM     20  C   LIG    1       -2.616   2.018  -5.463  0.00  0.00    -0.070 C 
ATOM     21  C   LIG    1       -4.078   1.639  -5.710  0.00  0.00    +0.020 C 
ATOM     22  C   LIG    1       -3.036   1.429  -6.812  0.00  0.00    +0.030 C 
ENDBRANCH  19  20
ENDBRANCH   7  19
TORSDOF 6
