REMARK  Name = ZINCkj00000y7zRV.1
REMARK                            x       y       z     vdW  Elec       q    Type
REMARK                         _______ _______ _______ _____ _____    ______ ____
ROOT
ATOM      1  C   LIG    1        0.002  -0.005   0.005  0.00  0.00    +0.140 C 
ATOM      2  C   LIG    1       -0.018   1.528   0.011  0.00  0.00    +0.310 C 
ATOM      3  N   LIG    1        1.371   2.011   0.001  0.00  0.00    -0.640 N 
ATOM      4  C   LIG    1        2.287   1.462  -1.012  0.00  0.00    +0.260 C 
ATOM      5  C   LIG    1        2.195  -0.068  -0.969  0.00  0.00    +0.240 C 
ATOM      6  C   LIG    1        1.794   2.929   0.892  0.00  0.00    +0.710 C 
ATOM      7  N   LIG    1        3.094   3.283   0.931  0.00  0.00    -0.740 N 
ATOM      8  H   LIG    1        3.711   2.933   0.269  0.00  0.00    +0.400 HD
ATOM      9  O   LIG    1        1.002   3.438   1.662  0.00  0.00    -0.580 OA
ATOM     10  O   LIG    1        0.824  -0.460  -1.072  0.00  0.00    -0.380 OA
ENDROOT
BRANCH   1  11
ATOM     11  C   LIG    1       -1.422  -0.534  -0.178  0.00  0.00    +0.290 C 
BRANCH  11  13
ATOM     12  C   LIG    1       -1.033  -2.383   1.301  0.00  0.00    +0.320 C 
ATOM     13  N   LIG    1       -1.418  -1.999  -0.064  0.00  0.00    -0.380 N 
ATOM     14  H   LIG    1       -0.757  -2.386  -0.721  0.00  0.00    +0.430 HD
BRANCH  13  15
ATOM     15  C   LIG    1       -2.761  -2.517  -0.358  0.00  0.00    +0.290 C 
BRANCH  15  16
ATOM     16  C   LIG    1       -2.729  -4.046  -0.362  0.00  0.00    -0.090 C 
ATOM     17  C   LIG    1       -3.043  -4.756  -1.680  0.00  0.00    +0.050 C 
ATOM     18  C   LIG    1       -4.060  -4.780  -0.536  0.00  0.00    +0.070 C 
ENDBRANCH  15  16
ENDBRANCH  13  15
ENDBRANCH  11  13
ENDBRANCH   1  11
BRANCH   7  19
ATOM     19  C   LIG    1        3.574   4.196   1.971  0.00  0.00    +0.320 C 
BRANCH  19  20
ATOM     20  C   LIG    1        5.074   4.433   1.788  0.00  0.00    -0.070 C 
ATOM     21  C   LIG    1        6.005   3.957   2.906  0.00  0.00    +0.020 C 
ATOM     22  C   LIG    1        5.746   5.453   2.710  0.00  0.00    +0.030 C 
ENDBRANCH  19  20
ENDBRANCH   7  19
TORSDOF 6
