REMARK  Name = ZINCrg000000ni4r.0
REMARK                            x       y       z     vdW  Elec       q    Type
REMARK                         _______ _______ _______ _____ _____    ______ ____
ROOT
ATOM      1  N   LIG    1       -1.445   2.010  -4.963  0.00  0.00    -0.540 N 
ATOM      2  C   LIG    1       -1.440   2.906  -5.962  0.00  0.00    +0.710 A 
ATOM      3  N   LIG    1       -1.794   4.189  -5.782  0.00  0.00    -0.560 N 
ATOM      4  C   LIG    1       -2.176   4.636  -4.568  0.00  0.00    +0.580 A 
ATOM      5  C   LIG    1       -2.197   3.692  -3.444  0.00  0.00    -0.440 A 
ATOM      6  O   LIG    1       -2.497   5.800  -4.408  0.00  0.00    -0.510 OA
ATOM      7  C   LIG    1       -1.766   5.113  -6.918  0.00  0.00    +0.340 C 
ATOM      8  O   LIG    1       -1.103   2.542  -7.072  0.00  0.00    -0.520 OA
ATOM      9  C   LIG    1       -1.810   2.364  -3.695  0.00  0.00    +0.550 A 
ENDROOT
BRANCH   9  10
ATOM     10  N   LIG    1       -1.804   1.444  -2.692  0.00  0.00    -0.810 N 
ATOM     11  H   LIG    1       -1.949   0.506  -2.893  0.00  0.00    +0.410 HD
ATOM     12  H   LIG    1       -1.654   1.726  -1.776  0.00  0.00    +0.440 HD
ENDBRANCH   9  10
BRANCH   5  13
ATOM     13  C   LIG    1       -2.587   4.104  -2.152  0.00  0.00    +0.440 C 
ATOM     14  O   LIG    1       -2.492   3.338  -1.215  0.00  0.00    -0.490 OA
BRANCH  13  15
ATOM     15  C   LIG    1       -3.123   5.496  -1.936  0.00  0.00    +0.210 C 
BRANCH  15  16
ATOM     16  N   LIG    1       -3.577   5.636  -0.546  0.00  0.00    -0.510 NA
ATOM     17  C   LIG    1       -3.895   7.038  -0.234  0.00  0.00    +0.210 C 
ATOM     18  C   LIG    1       -4.861   7.566  -1.296  0.00  0.00    +0.040 C 
ATOM     19  C   LIG    1       -6.017   6.612  -1.458  0.00  0.00    -0.080 A 
ATOM     20  C   LIG    1       -7.159   7.062  -2.103  0.00  0.00    +0.000 A 
ATOM     21  C   LIG    1       -8.241   6.221  -2.272  0.00  0.00    +0.000 A 
ATOM     22  C   LIG    1       -8.181   4.921  -1.807  0.00  0.00    +0.000 A 
ATOM     23  C   LIG    1       -7.043   4.471  -1.168  0.00  0.00    +0.010 A 
ATOM     24  C   LIG    1       -5.957   5.316  -0.991  0.00  0.00    -0.110 A 
ATOM     25  C   LIG    1       -4.739   4.782  -0.284  0.00  0.00    +0.270 C 
ENDBRANCH  15  16
ENDBRANCH  13  15
ENDBRANCH   5  13
BRANCH   1  26
ATOM     26  C   LIG    1       -1.046   0.627  -5.236  0.00  0.00    +0.300 C 
BRANCH  26  28
ATOM     27  C   LIG    1        0.860  -0.988  -5.187  0.00  0.00    +0.040 C 
ATOM     28  C   LIG    1        0.462   0.481  -5.024  0.00  0.00    -0.030 C 
ATOM     29  C   LIG    1        1.207   1.329  -6.056  0.00  0.00    +0.040 C 
ENDBRANCH  26  28
ENDBRANCH   1  26
TORSDOF 6
