REMARK  Name = ZINCrD000000CxmS.0
REMARK                            x       y       z     vdW  Elec       q    Type
REMARK                         _______ _______ _______ _____ _____    ______ ____
ROOT
ATOM      1  C   LIG    1       -0.016   1.344   0.009  0.00  0.00    +0.600 C 
ATOM      2  N   LIG    1        0.336   0.876  -1.205  0.00  0.00    -0.610 N 
ATOM      3  C   LIG    1        1.418  -0.108  -1.343  0.00  0.00    +0.280 C 
ATOM      4  C   LIG    1        2.441   0.417  -2.349  0.00  0.00    +0.000 C 
ATOM      5  C   LIG    1        1.733   0.762  -3.661  0.00  0.00    +0.150 C 
ATOM      6  C   LIG    1        0.695   1.858  -3.410  0.00  0.00    +0.030 C 
ATOM      7  C   LIG    1       -0.352   1.345  -2.416  0.00  0.00    +0.270 C 
ATOM      8  O   LIG    1        0.505   0.890   1.010  0.00  0.00    -0.530 OA
ENDROOT
BRANCH   1  11
ATOM      9  O   LIG    1       -2.765   0.910   0.685  0.00  0.00    -0.470 OA
ATOM     10  C   LIG    1       -2.423   2.062   0.479  0.00  0.00    +0.440 A 
ATOM     11  C   LIG    1       -1.036   2.398   0.125  0.00  0.00    -0.330 A 
ATOM     12  C   LIG    1       -0.705   3.720  -0.092  0.00  0.00    +0.380 A 
ATOM     13  N   LIG    1       -1.607   4.706  -0.002  0.00  0.00    -0.600 N 
ATOM     14  H   LIG    1       -1.318   5.617  -0.169  0.00  0.00    +0.420 HD
ATOM     15  C   LIG    1       -2.927   4.482   0.324  0.00  0.00    +0.180 A 
ATOM     16  C   LIG    1       -3.824   5.544   0.411  0.00  0.00    -0.030 A 
ATOM     17  C   LIG    1       -5.141   5.307   0.738  0.00  0.00    +0.080 A 
ATOM     18  C   LIG    1       -5.590   4.018   0.985  0.00  0.00    -0.020 A 
ATOM     19  C   LIG    1       -4.720   2.952   0.905  0.00  0.00    +0.110 A 
ATOM     20  C   LIG    1       -3.384   3.177   0.574  0.00  0.00    -0.180 A 
ENDBRANCH   1  11
BRANCH   5  21
ATOM     21  O   LIG    1        2.693   1.225  -4.613  0.00  0.00    -0.370 OA
BRANCH  21  22
ATOM     22  C   LIG    1        3.262   0.189  -5.416  0.00  0.00    +0.220 C 
BRANCH  22  23
ATOM     23  C   LIG    1        4.255   0.787  -6.379  0.00  0.00    -0.090 A 
ATOM     24  C   LIG    1        3.840   1.204  -7.630  0.00  0.00    +0.020 A 
ATOM     25  C   LIG    1        4.750   1.757  -8.511  0.00  0.00    +0.000 A 
ATOM     26  C   LIG    1        6.077   1.884  -8.145  0.00  0.00    +0.010 A 
ATOM     27  C   LIG    1        6.493   1.462  -6.896  0.00  0.00    +0.000 A 
ATOM     28  C   LIG    1        5.582   0.914  -6.013  0.00  0.00    +0.020 A 
ENDBRANCH  22  23
ENDBRANCH  21  22
ENDBRANCH   5  21
TORSDOF 4
