REMARK  Name = ZINCkj000005iqFT.0
REMARK                            x       y       z     vdW  Elec       q    Type
REMARK                         _______ _______ _______ _____ _____    ______ ____
ROOT
ATOM      1  C   LIG    1        0.558  -0.496  -1.163  0.00  0.00    +0.170 C 
ATOM      2  C   LIG    1       -0.433  -0.829  -2.281  0.00  0.00    +0.010 C 
ATOM      3  C   LIG    1       -1.475  -1.821  -1.756  0.00  0.00    +0.290 C 
ATOM      4  N   LIG    1       -0.778  -2.989  -1.200  0.00  0.00    -0.600 N 
ATOM      5  C   LIG    1        0.260  -2.774  -0.182  0.00  0.00    +0.240 C 
ATOM      6  C   LIG    1       -1.085  -4.234  -1.616  0.00  0.00    +0.530 C 
ATOM      7  O   LIG    1       -0.576  -5.195  -1.079  0.00  0.00    -0.520 OA
ATOM      8  C   LIG    1        1.282  -1.771  -0.725  0.00  0.00    +0.030 C 
ENDROOT
BRANCH   1  10
ATOM      9  C   LIG    1       -0.280   1.478  -0.094  0.00  0.00    +0.220 C 
ATOM     10  O   LIG    1       -0.148   0.056  -0.050  0.00  0.00    -0.390 OA
ENDBRANCH   1  10
BRANCH   5  11
ATOM     11  C   LIG    1        0.957  -4.101   0.128  0.00  0.00    +0.300 C 
BRANCH  11  12
ATOM     12  N   LIG    1        2.022  -3.875   1.114  0.00  0.00    -0.640 N 
ATOM     13  H   LIG    1        2.650  -3.163   0.773  0.00  0.00    +0.420 HD
ATOM     14  H   LIG    1        2.533  -4.733   1.258  0.00  0.00    +0.440 HD
ATOM     15  H   LIG    1        1.615  -3.575   1.986  0.00  0.00    +0.430 HD
ENDBRANCH  11  12
ENDBRANCH   5  11
BRANCH   6  16
ATOM     16  C   LIG    1       -2.060  -4.432  -2.748  0.00  0.00    +0.220 C 
BRANCH  16  17
ATOM     17  O   LIG    1       -2.218  -5.829  -3.001  0.00  0.00    -0.360 OA
BRANCH  17  18
ATOM     18  C   LIG    1       -3.127  -6.127  -4.063  0.00  0.00    +0.150 C 
ATOM     19  C   LIG    1       -4.540  -6.282  -3.496  0.00  0.00    -0.010 C 
ATOM     20  C   LIG    1       -5.513  -6.602  -4.632  0.00  0.00    +0.010 C 
ATOM     21  C   LIG    1       -5.092  -7.905  -5.313  0.00  0.00    +0.010 C 
ATOM     22  C   LIG    1       -3.679  -7.750  -5.880  0.00  0.00    +0.010 C 
ATOM     23  C   LIG    1       -2.706  -7.431  -4.744  0.00  0.00    +0.020 C 
ENDBRANCH  17  18
ENDBRANCH  16  17
ENDBRANCH   6  16
TORSDOF 6
