REMARK  Name = ZINCb80000003WdZ.1
REMARK                            x       y       z     vdW  Elec       q    Type
REMARK                         _______ _______ _______ _____ _____    ______ ____
ROOT
ATOM      1  C   LIG    1       -1.312  -1.102   2.726  0.00  0.00    +0.170 C 
ATOM      2  C   LIG    1       -0.266  -0.087   3.109  0.00  0.00    +0.160 A 
ATOM      3  N   LIG    1        0.550  -0.188   4.109  0.00  0.00    -0.320 NA
ATOM      4  N   LIG    1        1.357   0.958   4.130  0.00  0.00    -0.370 NA
ATOM      5  C   LIG    1        0.980   1.734   3.092  0.00  0.00    +0.380 A 
ATOM      6  S   LIG    1        1.649   3.251   2.665  0.00  0.00    -0.780 S 
ATOM      7  N   LIG    1       -0.020   1.094   2.454  0.00  0.00    -0.510 N 
ENDROOT
BRANCH   7   8
ATOM      8  C   LIG    1       -0.729   1.579   1.267  0.00  0.00    +0.310 C 
BRANCH   8   9
ATOM      9  C   LIG    1       -0.013   1.086   0.008  0.00  0.00    +0.010 C 
BRANCH   9  10
ATOM     10  C   LIG    1       -0.753   1.593  -1.232  0.00  0.00    +0.270 C 
BRANCH  10  11
ATOM     11  N   LIG    1       -0.065   1.119  -2.440  0.00  0.00    -0.640 N 
ATOM     12  H   LIG    1        0.881   1.468  -2.447  0.00  0.00    +0.440 HD
ATOM     13  H   LIG    1       -0.553   1.453  -3.258  0.00  0.00    +0.440 HD
ATOM     14  H   LIG    1       -0.051   0.110  -2.446  0.00  0.00    +0.430 HD
ENDBRANCH  10  11
ENDBRANCH   9  10
ENDBRANCH   8   9
ENDBRANCH   7   8
TORSDOF 4
