REMARK  Name = ZINCnE000001KZID.0
REMARK                            x       y       z     vdW  Elec       q    Type
REMARK                         _______ _______ _______ _____ _____    ______ ____
ROOT
ATOM      1  N   LIG    1       -0.698   1.558   1.213  0.00  0.00    -0.740 N 
ATOM      2  H   LIG    1       -1.495   2.106   1.135  0.00  0.00    +0.400 HD
ENDROOT
BRANCH   1   8
ATOM      3  C   LIG    1       -0.857   1.670   3.627  0.00  0.00    +0.050 A 
ATOM      4  C   LIG    1       -0.369   1.335   4.883  0.00  0.00    -0.060 A 
ATOM      5  C   LIG    1        0.762   0.558   5.003  0.00  0.00    +0.030 A 
ATOM      6  C   LIG    1        1.422   0.103   3.857  0.00  0.00    -0.120 A 
ATOM      7  C   LIG    1        0.929   0.435   2.590  0.00  0.00    +0.010 A 
ATOM      8  C   LIG    1       -0.203   1.220   2.478  0.00  0.00    +0.180 A 
BRANCH   6   9
ATOM      9  C   LIG    1        2.631  -0.729   3.983  0.00  0.00    +0.520 C 
ATOM     10  O   LIG    1        3.207  -1.126   2.980  0.00  0.00    -0.690 OA
ATOM     11  O   LIG    1        3.058  -1.022   5.091  0.00  0.00    -0.690 OA
ENDBRANCH   6   9
BRANCH   3  13
ATOM     12  C   LIG    1       -2.590   2.863   4.732  0.00  0.00    +0.230 C 
ATOM     13  O   LIG    1       -1.972   2.437   3.516  0.00  0.00    -0.330 OA
ENDBRANCH   3  13
ENDBRANCH   1   8
BRANCH   1  14
ATOM     14  C   LIG    1       -0.013   1.086   0.008  0.00  0.00    +0.330 C 
BRANCH  14  15
ATOM     15  C   LIG    1       -0.742   1.585  -1.213  0.00  0.00    +0.180 A 
ATOM     16  N   LIG    1       -1.702   0.854  -1.743  0.00  0.00    -0.460 NA
ATOM     17  C   LIG    1       -2.370   1.252  -2.808  0.00  0.00    +0.300 A 
ATOM     18  C   LIG    1       -2.076   2.457  -3.417  0.00  0.00    -0.020 A 
ATOM     19  C   LIG    1       -1.068   3.252  -2.891  0.00  0.00    +0.120 A 
ATOM     20  C   LIG    1       -0.392   2.802  -1.768  0.00  0.00    -0.220 A 
BRANCH  20  21
ATOM     21  C   LIG    1        0.711   3.629  -1.158  0.00  0.00    +0.510 C 
ATOM     22  F   LIG    1        1.905   2.900  -1.176  0.00  0.00    -0.170 F 
ATOM     23  F   LIG    1        0.379   3.949   0.162  0.00  0.00    -0.160 F 
ATOM     24  F   LIG    1        0.873   4.806  -1.897  0.00  0.00    -0.180 F 
ENDBRANCH  20  21
ENDBRANCH  14  15
ENDBRANCH   1  14
TORSDOF 6
