REMARK  Name = ZINCvU00000009R5.0
REMARK                            x       y       z     vdW  Elec       q    Type
REMARK                         _______ _______ _______ _____ _____    ______ ____
ROOT
ATOM      1  C   LIG    1        1.835   2.323  -0.037  0.00  0.00    +0.090 A 
ATOM      2  C   LIG    1        0.656   1.598  -0.014  0.00  0.00    +0.000 A 
ATOM      3  C   LIG    1        0.695   0.210  -0.011  0.00  0.00    +0.140 A 
ATOM      4  C   LIG    1        1.919  -0.452  -0.032  0.00  0.00    +0.090 A 
ATOM      5  C   LIG    1        3.099   0.273  -0.054  0.00  0.00    +0.000 A 
ATOM      6  C   LIG    1        3.060   1.660  -0.057  0.00  0.00    +0.140 A 
ENDROOT
BRANCH   3   7
ATOM      7  N   LIG    1       -0.499  -0.524   0.011  0.00  0.00    -0.660 N 
ATOM      8  H   LIG    1       -0.559  -1.367  -0.464  0.00  0.00    +0.410 HD
ATOM      9  C   LIG    1       -1.565  -0.057   0.692  0.00  0.00    +0.560 C 
ATOM     10  O   LIG    1       -1.518   1.038   1.218  0.00  0.00    -0.520 OA
BRANCH   9  11
ATOM     11  C   LIG    1       -2.791  -0.876   0.798  0.00  0.00    -0.140 A 
ATOM     12  C   LIG    1       -2.850  -2.131   0.190  0.00  0.00    +0.050 A 
ATOM     13  C   LIG    1       -3.995  -2.893   0.297  0.00  0.00    +0.000 A 
ATOM     14  C   LIG    1       -5.087  -2.411   0.997  0.00  0.00    +0.040 A 
ATOM     15  C   LIG    1       -5.037  -1.166   1.598  0.00  0.00    +0.000 A 
ATOM     16  C   LIG    1       -3.896  -0.396   1.502  0.00  0.00    +0.080 A 
ENDBRANCH   9  11
ENDBRANCH   3   7
BRANCH   6  17
ATOM     17  N   LIG    1        4.255   2.395  -0.079  0.00  0.00    -0.660 N 
ATOM     18  H   LIG    1        4.314   3.239   0.396  0.00  0.00    +0.420 HD
ATOM     19  C   LIG    1        5.320   1.928  -0.761  0.00  0.00    +0.510 C 
ATOM     20  O   LIG    1        5.273   0.836  -1.286  0.00  0.00    -0.520 OA
BRANCH  19  21
ATOM     21  C   LIG    1        6.570   2.763  -0.869  0.00  0.00    +0.070 C 
BRANCH  21  22
ATOM     22  C   LIG    1        7.619   2.008  -1.688  0.00  0.00    +0.090 C 
BRANCH  22  23
ATOM     23  C   LIG    1        8.868   2.843  -1.796  0.00  0.00    -0.080 A 
ATOM     24  C   LIG    1        9.022   3.722  -2.852  0.00  0.00    +0.030 A 
ATOM     25  C   LIG    1       10.166   4.492  -2.949  0.00  0.00    +0.020 A 
ATOM     26  C   LIG    1       11.162   4.374  -1.996  0.00  0.00    -0.040 A 
ATOM     27  C   LIG    1       11.010   3.489  -0.943  0.00  0.00    +0.020 A 
ATOM     28 CL   LIG    1       12.603   5.334  -2.122  0.00  0.00    -0.070 Cl
ATOM     29  C   LIG    1        9.863   2.724  -0.844  0.00  0.00    +0.030 A 
ENDBRANCH  22  23
ENDBRANCH  21  22
ENDBRANCH  19  21
ENDBRANCH   6  17
BRANCH   1  31
ATOM     30  C   LIG    1        0.507   4.296  -0.018  0.00  0.00    +0.240 C 
ATOM     31  O   LIG    1        1.798   3.683  -0.039  0.00  0.00    -0.320 OA
ENDBRANCH   1  31
BRANCH   4  32
ATOM     32  O   LIG    1        1.957  -1.812  -0.029  0.00  0.00    -0.320 OA
ATOM     33  C   LIG    1        3.247  -2.425  -0.050  0.00  0.00    +0.240 C 
ENDBRANCH   4  32
TORSDOF 8
