REMARK  Name = ZINCtV000002OiDa.0
REMARK                            x       y       z     vdW  Elec       q    Type
REMARK                         _______ _______ _______ _____ _____    ______ ____
ROOT
ATOM      1  O   LIG    1       -1.367   2.952   0.077  0.00  0.00    -0.490 OA
ATOM      2  C   LIG    1       -1.448   1.885  -0.501  0.00  0.00    +0.560 C 
ATOM      3  N   LIG    1       -2.644   1.444  -0.937  0.00  0.00    -0.660 N 
ATOM      4  H   LIG    1       -2.695   0.655  -1.500  0.00  0.00    +0.410 HD
ENDROOT
BRANCH   2   5
ATOM      5  C   LIG    1       -0.237   1.074  -0.723  0.00  0.00    -0.140 A 
ATOM      6  C   LIG    1       -0.325  -0.153  -1.386  0.00  0.00    +0.070 A 
ATOM      7  C   LIG    1        0.811  -0.904  -1.595  0.00  0.00    -0.010 A 
ATOM      8  C   LIG    1        2.043  -0.449  -1.152  0.00  0.00    +0.060 A 
ATOM      9  C   LIG    1        2.147   0.760  -0.497  0.00  0.00    -0.020 A 
ATOM     10  C   LIG    1        1.013   1.532  -0.275  0.00  0.00    -0.040 A 
BRANCH  10  11
ATOM     11  S   LIG    1        1.142   3.077   0.562  0.00  0.00    +0.030 S 
BRANCH  11  12
ATOM     12  C   LIG    1        2.916   3.200   0.919  0.00  0.00    +0.030 C 
BRANCH  12  13
ATOM     13  C   LIG    1        3.198   4.510   1.658  0.00  0.00    +0.180 C 
ATOM     14  C   LIG    1        4.704   4.625   1.966  0.00  0.00    +0.010 C 
ATOM     15  C   LIG    1        5.136   5.936   1.267  0.00  0.00    +0.000 C 
ATOM     16  C   LIG    1        3.786   6.684   1.116  0.00  0.00    +0.200 C 
ATOM     17  O   LIG    1        2.847   5.627   0.823  0.00  0.00    -0.360 OA
ENDBRANCH  12  13
ENDBRANCH  11  12
ENDBRANCH  10  11
ENDBRANCH   2   5
BRANCH   3  18
ATOM     18  C   LIG    1       -3.814   2.124  -0.579  0.00  0.00    +0.120 A 
ATOM     19  C   LIG    1       -5.027   1.449  -0.542  0.00  0.00    +0.020 A 
ATOM     20  C   LIG    1       -6.180   2.119  -0.183  0.00  0.00    -0.040 A 
ATOM     21  C   LIG    1       -6.128   3.470   0.129  0.00  0.00    +0.100 A 
ATOM     22  C   LIG    1       -4.918   4.147   0.086  0.00  0.00    +0.020 A 
ATOM     23  C   LIG    1       -3.764   3.477  -0.267  0.00  0.00    +0.070 A 
BRANCH  21  24
ATOM     24  O   LIG    1       -7.264   4.131   0.477  0.00  0.00    -0.260 OA
BRANCH  24  25
ATOM     25  C   LIG    1       -8.390   3.399   0.683  0.00  0.00    +0.080 A 
ATOM     26  C   LIG    1       -9.390   3.377  -0.279  0.00  0.00    +0.010 A 
ATOM     27  C   LIG    1      -10.532   2.627  -0.069  0.00  0.00    +0.020 A 
ATOM     28  C   LIG    1      -10.683   1.909   1.103  0.00  0.00    +0.010 A 
ATOM     29  C   LIG    1       -9.690   1.933   2.065  0.00  0.00    +0.020 A 
ATOM     30  C   LIG    1       -8.544   2.677   1.858  0.00  0.00    +0.000 A 
ENDBRANCH  24  25
ENDBRANCH  21  24
ENDBRANCH   3  18
TORSDOF 7
