REMARK  Name = ZINCrD000000D2r9.1
REMARK                            x       y       z     vdW  Elec       q    Type
REMARK                         _______ _______ _______ _____ _____    ______ ____
ROOT
ATOM      1  C   LIG    1        3.653   1.664  -3.679  0.00  0.00    +0.240 C 
ATOM      2  C   LIG    1        3.707   2.950  -2.850  0.00  0.00    +0.040 C 
ATOM      3  C   LIG    1        3.309   2.638  -1.406  0.00  0.00    +0.180 C 
ATOM      4  N   LIG    1        1.953   2.075  -1.382  0.00  0.00    -0.520 NA
ATOM      5  C   LIG    1        1.888   0.814  -2.132  0.00  0.00    +0.180 C 
ATOM      6  C   LIG    1        2.244   1.072  -3.598  0.00  0.00    +0.010 C 
ENDROOT
BRANCH   4   7
ATOM      7  C   LIG    1        1.484   1.891  -0.002  0.00  0.00    +0.180 C 
ATOM      8  C   LIG    1        1.306   3.259   0.690  0.00  0.00    +0.060 C 
ATOM      9  C   LIG    1       -0.179   3.578   0.417  0.00  0.00    +0.100 C 
ATOM     10  C   LIG    1       -0.848   2.231   0.246  0.00  0.00    -0.110 A 
ATOM     11  C   LIG    1       -2.189   1.880   0.298  0.00  0.00    +0.110 A 
ATOM     12  C   LIG    1       -2.571   0.563   0.109  0.00  0.00    -0.010 A 
ATOM     13  C   LIG    1       -1.614  -0.404  -0.132  0.00  0.00    +0.050 A 
ATOM     14  C   LIG    1       -0.278  -0.055  -0.183  0.00  0.00    +0.020 A 
ATOM     15  F   LIG    1       -3.124   2.826   0.533  0.00  0.00    -0.140 F 
ATOM     16  C   LIG    1        0.107   1.261   0.005  0.00  0.00    -0.060 A 
ENDBRANCH   4   7
BRANCH   1  17
ATOM     17  N   LIG    1        3.979   1.967  -5.075  0.00  0.00    -1.110 NA
ATOM     18  H   LIG    1        3.700   2.810  -5.466  0.00  0.00    +0.420 HD
BRANCH  17  20
ATOM     19  O   LIG    1        4.945   1.438  -7.283  0.00  0.00    -0.950 OA
ATOM     20  S   LIG    1        4.822   0.872  -5.986  0.00  0.00    +2.700 S 
ATOM     21  O   LIG    1        5.939   0.474  -5.202  0.00  0.00    -0.950 OA
BRANCH  20  22
ATOM     22  C   LIG    1        3.804  -0.556  -6.160  0.00  0.00    -0.690 A 
ATOM     23  C   LIG    1        3.885  -1.579  -5.235  0.00  0.00    +0.160 A 
ATOM     24  C   LIG    1        3.083  -2.697  -5.368  0.00  0.00    -0.020 A 
ATOM     25  C   LIG    1        2.206  -2.796  -6.435  0.00  0.00    +0.160 A 
ATOM     26  C   LIG    1        2.130  -1.773  -7.364  0.00  0.00    -0.020 A 
ATOM     27  F   LIG    1        1.425  -3.891  -6.569  0.00  0.00    -0.130 F 
ATOM     28  C   LIG    1        2.929  -0.653  -7.226  0.00  0.00    +0.160 A 
ENDBRANCH  20  22
ENDBRANCH  17  20
ENDBRANCH   1  17
TORSDOF 4
