REMARK  Name = ZINCvU00000004oW.0
REMARK                            x       y       z     vdW  Elec       q    Type
REMARK                         _______ _______ _______ _____ _____    ______ ____
ROOT
ATOM      1  C   LIG    1        2.565   5.652   0.007  0.00  0.00    -0.040 C 
ATOM      2  C   LIG    1        1.849   6.146   1.266  0.00  0.00    +0.050 C 
ATOM      3  C   LIG    1        0.413   5.616   1.276  0.00  0.00    +0.000 C 
ATOM      4  C   LIG    1       -0.326   6.122   0.037  0.00  0.00    +0.030 C 
ATOM      5  C   LIG    1        0.390   5.629  -1.222  0.00  0.00    +0.000 C 
ATOM      6  C   LIG    1        0.411   4.099  -1.230  0.00  0.00    +0.040 C 
ATOM      7  C   LIG    1        1.151   3.592   0.010  0.00  0.00    -0.010 C 
ATOM      8  C   LIG    1        0.434   4.086   1.268  0.00  0.00    +0.040 C 
ATOM      9  C   LIG    1        2.586   4.122  -0.001  0.00  0.00    +0.070 C 
ATOM     10  C   LIG    1        1.825   6.158  -1.233  0.00  0.00    +0.050 C 
ENDROOT
BRANCH   7  11
ATOM     11  C   LIG    1        1.171   2.086   0.002  0.00  0.00    -0.070 A 
ATOM     12  C   LIG    1       -0.017   1.378   0.010  0.00  0.00    +0.010 A 
ATOM     13  C   LIG    1        0.002  -0.004   0.002  0.00  0.00    +0.000 A 
ATOM     14  C   LIG    1        1.208  -0.679  -0.014  0.00  0.00    +0.000 A 
ATOM     15  C   LIG    1        2.396   0.029  -0.022  0.00  0.00    +0.000 A 
ATOM     16  C   LIG    1        2.377   1.411  -0.014  0.00  0.00    +0.010 A 
ENDBRANCH   7  11
BRANCH   1  18
ATOM     17  O   LIG    1        4.908   5.401  -0.016  0.00  0.00    -0.500 OA
ATOM     18  C   LIG    1        3.979   6.173  -0.004  0.00  0.00    +0.470 C 
BRANCH  18  19
ATOM     19  O   LIG    1        4.206   7.496   0.001  0.00  0.00    -0.350 OA
BRANCH  19  20
ATOM     20  C   LIG    1        5.593   7.927  -0.010  0.00  0.00    +0.300 C 
BRANCH  20  21
ATOM     21  C   LIG    1        5.651   9.433  -0.003  0.00  0.00    -0.110 A 
ATOM     22  C   LIG    1        4.483  10.169   0.012  0.00  0.00    +0.100 A 
ATOM     23  C   LIG    1        4.536  11.552   0.019  0.00  0.00    -0.060 A 
ATOM     24  C   LIG    1        5.759  12.198   0.009  0.00  0.00    +0.080 A 
ATOM     25  C   LIG    1        6.931  11.465  -0.007  0.00  0.00    -0.190 A 
ATOM     26  C   LIG    1        8.258  12.180  -0.022  0.00  0.00    +0.300 C 
ATOM     27  O   LIG    1        9.295  11.261   0.337  0.00  0.00    -0.380 OA
ATOM     28  C   LIG    1        9.227  10.028  -0.389  0.00  0.00    +0.440 C 
ATOM     29  O   LIG    1        8.025   9.346  -0.019  0.00  0.00    -0.330 OA
ATOM     30 CL   LIG    1        3.067  12.476   0.040  0.00  0.00    -0.060 Cl
ATOM     31  C   LIG    1        6.880  10.080  -0.005  0.00  0.00    +0.150 A 
ENDBRANCH  20  21
ENDBRANCH  19  20
ENDBRANCH  18  19
ENDBRANCH   1  18
TORSDOF 5
