REMARK  Name = ZINCrD000006fizL.0
REMARK                            x       y       z     vdW  Elec       q    Type
REMARK                         _______ _______ _______ _____ _____    ______ ____
ROOT
ATOM      1  C   LIG    1        3.754  -4.866  -0.821  0.00  0.00    +0.550 C 
ATOM      2  N   LIG    1        4.988  -4.327  -0.786  0.00  0.00    -0.600 N 
ATOM      3  C   LIG    1        5.310  -2.903  -0.990  0.00  0.00    +0.270 C 
ATOM      4  C   LIG    1        6.663  -2.694  -0.265  0.00  0.00    +0.040 C 
ATOM      5  C   LIG    1        7.387  -4.033  -0.566  0.00  0.00    +0.060 C 
ATOM      6  C   LIG    1        6.237  -5.061  -0.534  0.00  0.00    +0.320 C 
ATOM      7  O   LIG    1        3.614  -6.067  -0.728  0.00  0.00    -0.520 OA
ENDROOT
BRANCH   6   8
ATOM      8  C   LIG    1        6.449  -6.097  -1.607  0.00  0.00    +0.290 A 
ATOM      9  N   LIG    1        5.957  -6.035  -2.810  0.00  0.00    -0.470 NA
ATOM     10  C   LIG    1        6.342  -7.128  -3.518  0.00  0.00    +0.060 A 
ATOM     11  C   LIG    1        6.106  -7.561  -4.825  0.00  0.00    +0.090 A 
ATOM     12  C   LIG    1        6.650  -8.749  -5.260  0.00  0.00    -0.040 A 
ATOM     13  C   LIG    1        7.431  -9.520  -4.410  0.00  0.00    +0.050 A 
ATOM     14  C   LIG    1        7.673  -9.107  -3.117  0.00  0.00    +0.030 A 
ATOM     15 CL   LIG    1        6.357  -9.287  -6.885  0.00  0.00    -0.060 Cl
ATOM     16  C   LIG    1        7.133  -7.912  -2.661  0.00  0.00    +0.050 A 
ATOM     17  N   LIG    1        7.187  -7.230  -1.462  0.00  0.00    -0.590 N 
ATOM     18  H   LIG    1        7.661  -7.509  -0.663  0.00  0.00    +0.420 HD
ENDBRANCH   6   8
BRANCH   1  24
ATOM     19  C   LIG    1        0.767  -1.439   0.717  0.00  0.00    +0.550 C 
ATOM     20  N   LIG    1        0.866  -2.701   0.252  0.00  0.00    -0.610 N 
ATOM     21  C   LIG    1       -0.274  -3.344  -0.416  0.00  0.00    +0.260 C 
ATOM     22  C   LIG    1        0.184  -3.864  -1.782  0.00  0.00    +0.010 C 
ATOM     23  C   LIG    1        1.399  -4.775  -1.596  0.00  0.00    +0.050 C 
ATOM     24  C   LIG    1        2.547  -3.977  -0.973  0.00  0.00    -0.010 C 
ATOM     25  C   LIG    1        2.118  -3.456   0.397  0.00  0.00    +0.300 C 
ATOM     26  O   LIG    1        1.744  -0.884   1.181  0.00  0.00    -0.540 OA
BRANCH  19  28
ATOM     27  C   LIG    1       -0.646   0.471   1.210  0.00  0.00    +0.140 C 
ATOM     28  C   LIG    1       -0.523  -0.735   0.663  0.00  0.00    -0.090 C 
ENDBRANCH  19  28
ENDBRANCH   1  24
TORSDOF 3
