REMARK  Name = ZINCrD000006fizL.1
REMARK                            x       y       z     vdW  Elec       q    Type
REMARK                         _______ _______ _______ _____ _____    ______ ____
ROOT
ATOM      1  C   LIG    1       -1.071   8.342  -1.793  0.00  0.00    +0.550 C 
ATOM      2  N   LIG    1       -1.540   8.324  -0.530  0.00  0.00    -0.600 N 
ATOM      3  C   LIG    1       -1.283   9.351   0.496  0.00  0.00    +0.270 C 
ATOM      4  C   LIG    1       -2.469   9.229   1.485  0.00  0.00    +0.040 C 
ATOM      5  C   LIG    1       -2.700   7.695   1.507  0.00  0.00    +0.060 C 
ATOM      6  C   LIG    1       -2.394   7.279   0.053  0.00  0.00    +0.320 C 
ATOM      7  O   LIG    1       -1.272   7.398  -2.528  0.00  0.00    -0.520 OA
ENDROOT
BRANCH   6   8
ATOM      8  C   LIG    1       -1.668   5.958   0.040  0.00  0.00    +0.290 A 
ATOM      9  N   LIG    1       -0.374   5.819   0.030  0.00  0.00    -0.470 NA
ATOM     10  C   LIG    1       -0.057   4.498   0.020  0.00  0.00    +0.050 A 
ATOM     11  C   LIG    1        1.152   3.798   0.008  0.00  0.00    +0.090 A 
ATOM     12  C   LIG    1        1.147   2.432  -0.001  0.00  0.00    +0.020 A 
ATOM     13  C   LIG    1       -0.049   1.728   0.002  0.00  0.00    -0.020 A 
ATOM     14  C   LIG    1       -1.255   2.399   0.008  0.00  0.00    +0.030 A 
ATOM     15 CL   LIG    1       -0.029  -0.008  -0.010  0.00  0.00    -0.060 Cl
ATOM     16  C   LIG    1       -1.269   3.786   0.022  0.00  0.00    +0.060 A 
ATOM     17  N   LIG    1       -2.269   4.738   0.035  0.00  0.00    -0.590 N 
ATOM     18  H   LIG    1       -3.224   4.568   0.040  0.00  0.00    +0.420 HD
ENDBRANCH   6   8
BRANCH   1  24
ATOM     19  C   LIG    1       -0.691  12.970  -3.003  0.00  0.00    +0.550 C 
ATOM     20  N   LIG    1       -0.501  11.697  -3.404  0.00  0.00    -0.610 N 
ATOM     21  C   LIG    1        0.480  11.380  -4.451  0.00  0.00    +0.260 C 
ATOM     22  C   LIG    1        1.436  10.306  -3.923  0.00  0.00    +0.020 C 
ATOM     23  C   LIG    1        0.625   9.102  -3.436  0.00  0.00    +0.050 C 
ATOM     24  C   LIG    1       -0.296   9.534  -2.293  0.00  0.00    -0.010 C 
ATOM     25  C   LIG    1       -1.272  10.600  -2.803  0.00  0.00    +0.310 C 
ATOM     26  O   LIG    1       -1.434  13.209  -2.071  0.00  0.00    -0.540 OA
BRANCH  19  28
ATOM     27  C   LIG    1       -0.261  15.331  -3.364  0.00  0.00    +0.140 C 
ATOM     28  C   LIG    1        0.002  14.069  -3.693  0.00  0.00    -0.090 C 
ENDBRANCH  19  28
ENDBRANCH   1  24
TORSDOF 3
