REMARK  Name = ZINCqH0000051ack.0
REMARK                            x       y       z     vdW  Elec       q    Type
REMARK                         _______ _______ _______ _____ _____    ______ ____
ROOT
ATOM      1  O   LIG    1        5.987   3.312   0.189  0.00  0.00    -0.490 OA
ATOM      2  C   LIG    1        5.349   4.254   0.611  0.00  0.00    +0.510 C 
ATOM      3  N   LIG    1        4.003   4.204   0.625  0.00  0.00    -0.670 N 
ATOM      4  H   LIG    1        3.491   4.984   0.891  0.00  0.00    +0.420 HD
ENDROOT
BRANCH   3   5
ATOM      5  C   LIG    1        3.341   3.024   0.258  0.00  0.00    +0.160 A 
ATOM      6  C   LIG    1        2.114   3.089  -0.387  0.00  0.00    +0.010 A 
ATOM      7  C   LIG    1        1.459   1.927  -0.750  0.00  0.00    +0.060 A 
ATOM      8  C   LIG    1        2.027   0.696  -0.472  0.00  0.00    +0.020 A 
ATOM      9  O   LIG    1        1.599  -0.583  -0.718  0.00  0.00    -0.290 OA
ATOM     10  C   LIG    1        2.801  -1.364  -0.661  0.00  0.00    +0.250 C 
ATOM     11  O   LIG    1        3.594  -0.693   0.329  0.00  0.00    -0.290 OA
ATOM     12  C   LIG    1        2.506  -2.810  -0.248  0.00  0.00    +0.070 C 
ATOM     13  C   LIG    1        2.506  -3.589  -1.590  0.00  0.00    +0.040 C 
ATOM     14  C   LIG    1        3.636  -2.896  -2.392  0.00  0.00    +0.040 C 
ATOM     15  C   LIG    1        3.510  -1.403  -2.014  0.00  0.00    +0.020 C 
ATOM     16  C   LIG    1        3.261   0.628   0.176  0.00  0.00    +0.050 A 
ATOM     17  C   LIG    1        3.914   1.791   0.539  0.00  0.00    +0.050 A 
ENDBRANCH   3   5
BRANCH   2  18
ATOM     18  C   LIG    1        6.064   5.480   1.118  0.00  0.00    +0.270 C 
BRANCH  18  19
ATOM     19  O   LIG    1        7.498   5.289   0.997  0.00  0.00    -0.330 OA
BRANCH  19  20
ATOM     20  C   LIG    1        8.283   6.297   1.409  0.00  0.00    +0.460 C 
ATOM     21  O   LIG    1        7.788   7.305   1.855  0.00  0.00    -0.500 OA
BRANCH  20  22
ATOM     22  C   LIG    1        9.782   6.171   1.314  0.00  0.00    +0.110 C 
BRANCH  22  23
ATOM     23  C   LIG    1       10.435   7.449   1.845  0.00  0.00    +0.000 C 
ATOM     24  C   LIG    1       10.118   8.633   0.909  0.00  0.00    +0.010 C 
ATOM     25  C   LIG    1       11.421   9.472   0.904  0.00  0.00    +0.010 C 
ATOM     26  C   LIG    1       12.527   8.388   0.924  0.00  0.00    +0.010 C 
ATOM     27  C   LIG    1       11.966   7.293   1.855  0.00  0.00    +0.020 C 
ENDBRANCH  22  23
ENDBRANCH  20  22
ENDBRANCH  19  20
ENDBRANCH  18  19
ENDBRANCH   2  18
TORSDOF 6
