REMARK  Name = ZINCqH0000032ICT.0
REMARK                            x       y       z     vdW  Elec       q    Type
REMARK                         _______ _______ _______ _____ _____    ______ ____
ROOT
ATOM      1  C   LIG    1        0.079   7.564   4.922  0.00  0.00    -0.010 C 
ATOM      2  C   LIG    1        0.384   8.628   3.865  0.00  0.00    +0.040 C 
ATOM      3  C   LIG    1        1.561   8.162   3.002  0.00  0.00    +0.280 C 
ATOM      4  N   LIG    1        1.247   6.837   2.450  0.00  0.00    -0.620 N 
ATOM      5  C   LIG    1        0.847   5.765   3.372  0.00  0.00    +0.270 C 
ATOM      6  C   LIG    1        1.319   6.611   1.124  0.00  0.00    +0.520 C 
ATOM      7  O   LIG    1        1.646   7.505   0.373  0.00  0.00    -0.540 OA
ATOM      8  C   LIG    1       -0.316   6.256   4.232  0.00  0.00    +0.030 C 
ENDROOT
BRANCH   1  15
ATOM      9  C   LIG    1       -0.486   7.804  11.211  0.00  0.00    +0.020 C 
ATOM     10  C   LIG    1       -0.966   7.324   9.840  0.00  0.00    -0.020 C 
ATOM     11  C   LIG    1       -1.866   8.391   9.212  0.00  0.00    +0.020 C 
ATOM     12  C   LIG    1       -2.371   7.893   7.855  0.00  0.00    +0.270 C 
ATOM     13  N   LIG    1       -1.216   7.516   7.029  0.00  0.00    -0.610 N 
ATOM     14  C   LIG    1       -0.241   6.560   7.572  0.00  0.00    +0.260 C 
ATOM     15  C   LIG    1       -1.056   8.033   5.795  0.00  0.00    +0.520 C 
ATOM     16  O   LIG    1       -1.826   8.877   5.386  0.00  0.00    -0.540 OA
ATOM     17  C   LIG    1        0.244   7.078   8.935  0.00  0.00    +0.020 C 
ENDBRANCH   1  15
BRANCH   6  18
ATOM     18  C   LIG    1        0.995   5.246   0.573  0.00  0.00    +0.070 C 
BRANCH  18  19
ATOM     19  C   LIG    1        1.154   5.259  -0.948  0.00  0.00    +0.100 C 
BRANCH  19  20
ATOM     20  C   LIG    1        0.829   3.894  -1.499  0.00  0.00    -0.070 A 
ATOM     21  C   LIG    1        1.827   2.948  -1.634  0.00  0.00    +0.020 A 
ATOM     22  C   LIG    1        1.530   1.696  -2.140  0.00  0.00    +0.030 A 
ATOM     23  C   LIG    1        0.234   1.389  -2.510  0.00  0.00    +0.020 A 
ATOM     24  C   LIG    1       -0.766   2.336  -2.374  0.00  0.00    -0.030 A 
ATOM     25 CL   LIG    1       -2.394   1.952  -2.838  0.00  0.00    -0.070 Cl
ATOM     26  C   LIG    1       -0.468   3.589  -1.869  0.00  0.00    +0.020 A 
ENDBRANCH  19  20
ENDBRANCH  18  19
ENDBRANCH   6  18
TORSDOF 4
