REMARK  Name = ZINCrg00000BzCdn.0
REMARK                            x       y       z     vdW  Elec       q    Type
REMARK                         _______ _______ _______ _____ _____    ______ ____
ROOT
ATOM      1  O   LIG    1       -3.205  -6.093   1.550  0.00  0.00    -0.530 OA
ATOM      2  C   LIG    1       -2.086  -5.681   1.312  0.00  0.00    +0.570 C 
ATOM      3  N   LIG    1       -1.867  -4.356   1.193  0.00  0.00    -0.610 N 
ATOM      4  C   LIG    1       -2.943  -3.393   1.464  0.00  0.00    +0.290 C 
ATOM      5  C   LIG    1       -3.120  -2.495   0.233  0.00  0.00    +0.290 C 
ATOM      6  N   LIG    1       -1.801  -1.989  -0.172  0.00  0.00    -0.610 N 
ATOM      7  C   LIG    1       -0.727  -2.953  -0.449  0.00  0.00    +0.270 C 
ATOM      8  C   LIG    1       -1.583  -0.664  -0.292  0.00  0.00    +0.530 C 
ATOM      9  O   LIG    1       -2.449   0.124   0.022  0.00  0.00    -0.520 OA
ATOM     10  C   LIG    1       -0.549  -3.850   0.788  0.00  0.00    +0.270 C 
ENDROOT
BRANCH   8  11
ATOM     11  C   LIG    1       -0.262  -0.163  -0.818  0.00  0.00    +0.010 C 
ATOM     12  C   LIG    1       -0.485   1.119  -1.638  0.00  0.00    +0.100 C 
ATOM     13  C   LIG    1        0.913   1.752  -1.859  0.00  0.00    -0.300 C 
ATOM     14  S   LIG    1        1.703   1.559  -0.217  0.00  0.00    +2.400 S 
ATOM     15  O   LIG    1        3.044   1.121  -0.385  0.00  0.00    -0.930 OA
ATOM     16  O   LIG    1        1.427   2.706   0.576  0.00  0.00    -0.930 OA
ATOM     17  C   LIG    1        0.676   0.161   0.362  0.00  0.00    -0.290 C 
ENDBRANCH   8  11
BRANCH   2  18
ATOM     18  C   LIG    1       -0.968  -6.631   1.155  0.00  0.00    -0.160 A 
ATOM     19  C   LIG    1       -1.193  -7.892   0.598  0.00  0.00    +0.120 A 
ATOM     20  C   LIG    1       -0.146  -8.774   0.447  0.00  0.00    -0.060 A 
ATOM     21  C   LIG    1        1.132  -8.414   0.859  0.00  0.00    +0.130 A 
ATOM     22  C   LIG    1        1.359  -7.162   1.418  0.00  0.00    +0.000 A 
ATOM     23  C   LIG    1        0.319  -6.273   1.567  0.00  0.00    +0.090 A 
BRANCH  21  24
ATOM     24  O   LIG    1        2.160  -9.288   0.715  0.00  0.00    -0.320 OA
BRANCH  24  25
ATOM     25  C   LIG    1        1.856 -10.557   0.132  0.00  0.00    +0.600 C 
ATOM     26  F   LIG    1        1.340 -10.368  -1.154  0.00  0.00    -0.200 F 
ATOM     27  F   LIG    1        0.910 -11.218   0.922  0.00  0.00    -0.200 F 
ENDBRANCH  24  25
ENDBRANCH  21  24
ENDBRANCH   2  18
TORSDOF 4
