REMARK  Name = ZINCrg00001Jdv1S.0
REMARK                            x       y       z     vdW  Elec       q    Type
REMARK                         _______ _______ _______ _____ _____    ______ ____
ROOT
ATOM      1  C   LIG    1        1.398  -2.090  -0.042  0.00  0.00    +0.260 C 
ENDROOT
BRANCH   1   2
ATOM      2  N   LIG    1        2.434  -2.462  -1.015  0.00  0.00    -0.500 NA
ATOM      3  C   LIG    1        3.751  -1.918  -0.621  0.00  0.00    +0.200 C 
ATOM      4  C   LIG    1        4.775  -2.978  -1.096  0.00  0.00    +0.010 C 
ATOM      5  C   LIG    1        4.011  -4.299  -0.818  0.00  0.00    +0.010 C 
ATOM      6  C   LIG    1        2.547  -3.927  -1.133  0.00  0.00    +0.200 C 
BRANCH   5   7
ATOM      7  C   LIG    1        4.498  -5.412  -1.748  0.00  0.00    +0.180 C 
BRANCH   7   8
ATOM      8  O   LIG    1        3.779  -6.615  -1.468  0.00  0.00    -0.570 OA
ATOM      9  H   LIG    1        4.036  -7.365  -2.022  0.00  0.00    +0.380 HD
ENDBRANCH   7   8
ENDBRANCH   5   7
BRANCH   4  10
ATOM     10  C   LIG    1        6.063  -2.906  -0.273  0.00  0.00    +0.190 C 
BRANCH  10  11
ATOM     11  O   LIG    1        6.797  -1.736  -0.639  0.00  0.00    -0.570 OA
ATOM     12  H   LIG    1        7.627  -1.625  -0.156  0.00  0.00    +0.380 HD
ENDBRANCH  10  11
ENDBRANCH   4  10
ENDBRANCH   1   2
BRANCH   1  13
ATOM     13  C   LIG    1        1.283  -0.588   0.020  0.00  0.00    -0.170 A 
ATOM     14  C   LIG    1        2.308   0.206   0.401  0.00  0.00    +0.000 A 
ATOM     15  S   LIG    1        1.702   1.813   0.312  0.00  0.00    +0.280 S 
ATOM     16  N   LIG    1        0.149   1.379  -0.214  0.00  0.00    -0.450 NA
ATOM     17  C   LIG    1        0.124   0.082  -0.307  0.00  0.00    +0.290 A 
ENDBRANCH   1  13
BRANCH   1  19
ATOM     18  O   LIG    1        2.800  -3.249   1.462  0.00  0.00    -0.500 OA
ATOM     19  C   LIG    1        1.772  -2.621   1.317  0.00  0.00    +0.490 C 
ATOM     20  N   LIG    1        0.963  -2.400   2.373  0.00  0.00    -0.660 N 
ATOM     21  H   LIG    1        0.106  -1.965   2.245  0.00  0.00    +0.410 HD
BRANCH  20  22
ATOM     22  C   LIG    1        1.361  -2.799   3.656  0.00  0.00    +0.150 A 
ATOM     23  C   LIG    1        2.096  -3.965   3.824  0.00  0.00    +0.040 A 
ATOM     24  C   LIG    1        2.493  -4.356   5.088  0.00  0.00    +0.060 A 
ATOM     25  C   LIG    1        2.151  -3.593   6.192  0.00  0.00    +0.020 A 
ATOM     26  O   LIG    1        2.412  -3.760   7.523  0.00  0.00    -0.310 OA
ATOM     27  C   LIG    1        1.476  -2.905   8.207  0.00  0.00    +0.430 C 
ATOM     28  O   LIG    1        1.206  -1.861   7.253  0.00  0.00    -0.310 OA
ATOM     29  C   LIG    1        1.410  -2.425   6.027  0.00  0.00    +0.050 A 
ATOM     30  C   LIG    1        1.017  -2.030   4.760  0.00  0.00    +0.010 A 
ENDBRANCH  20  22
ENDBRANCH   1  19
TORSDOF 8
