REMARK  Name = ZINCvU00000004O7.0
REMARK                            x       y       z     vdW  Elec       q    Type
REMARK                         _______ _______ _______ _____ _____    ______ ____
ROOT
ATOM      1  N   LIG    1       -2.350   4.065   0.182  0.00  0.00    -0.680 N 
ATOM      2  H   LIG    1       -3.031   3.563   0.657  0.00  0.00    +0.410 HD
ATOM      3  C   LIG    1       -1.386   3.414  -0.499  0.00  0.00    +0.700 C 
ATOM      4  N   LIG    1       -1.419   2.071  -0.595  0.00  0.00    -0.680 N 
ATOM      5  H   LIG    1       -2.170   1.577  -0.232  0.00  0.00    +0.410 HD
ATOM      6  O   LIG    1       -0.486   4.040  -1.026  0.00  0.00    -0.560 OA
ENDROOT
BRANCH   1  13
ATOM      7  C   LIG    1       -4.877   5.372   0.203  0.00  0.00    +0.080 C 
ATOM      8  C   LIG    1       -3.582   6.143   0.213  0.00  0.00    -0.090 A 
ATOM      9  C   LIG    1       -3.602   7.523   0.238  0.00  0.00    +0.040 A 
ATOM     10  C   LIG    1       -2.409   8.235   0.241  0.00  0.00    +0.150 A 
ATOM     11  C   LIG    1       -1.197   7.558   0.225  0.00  0.00    +0.000 A 
ATOM     12  C   LIG    1       -1.177   6.177   0.205  0.00  0.00    +0.060 A 
ATOM     13  C   LIG    1       -2.370   5.466   0.202  0.00  0.00    +0.150 A 
BRANCH  10  14
ATOM     14  N   LIG    1       -2.429   9.636   0.260  0.00  0.00    -0.650 N 
ATOM     15  H   LIG    1       -1.748  10.137  -0.215  0.00  0.00    +0.420 HD
ATOM     16  C   LIG    1       -3.394  10.287   0.939  0.00  0.00    +0.650 C 
ATOM     17  O   LIG    1       -4.187   9.663   1.615  0.00  0.00    -0.550 OA
BRANCH  16  18
ATOM     18  O   LIG    1       -3.478  11.629   0.869  0.00  0.00    -0.360 OA
BRANCH  18  19
ATOM     19  C   LIG    1       -4.542  12.263   1.626  0.00  0.00    +0.140 C 
ATOM     20  C   LIG    1       -5.896  11.740   1.141  0.00  0.00    +0.040 C 
ATOM     21  C   LIG    1       -4.479  13.778   1.424  0.00  0.00    +0.080 C 
ATOM     22  C   LIG    1       -4.373  11.939   3.112  0.00  0.00    +0.040 C 
ENDBRANCH  18  19
ENDBRANCH  16  18
ENDBRANCH  10  14
ENDBRANCH   1  13
BRANCH   4  23
ATOM     23  C   LIG    1       -0.368   1.388  -1.219  0.00  0.00    +0.200 A 
ATOM     24  C   LIG    1        0.286   1.958  -2.303  0.00  0.00    +0.020 A 
ATOM     25  C   LIG    1        1.318   1.280  -2.920  0.00  0.00    +0.040 A 
ATOM     26  C   LIG    1        1.701   0.033  -2.460  0.00  0.00    -0.010 A 
ATOM     27  C   LIG    1        1.052  -0.538  -1.380  0.00  0.00    +0.050 A 
ATOM     28  C   LIG    1        0.019   0.136  -0.759  0.00  0.00    -0.140 A 
BRANCH  28  29
ATOM     29  C   LIG    1       -0.689  -0.487   0.417  0.00  0.00    +0.380 C 
BRANCH  29  30
ATOM     30  N   LIG    1       -1.889  -1.185  -0.049  0.00  0.00    -0.370 N 
ATOM     31  C   LIG    1       -2.191  -2.482   0.173  0.00  0.00    +0.230 A 
ATOM     32  C   LIG    1       -3.382  -2.735  -0.418  0.00  0.00    -0.120 A 
ATOM     33  C   LIG    1       -3.819  -1.556  -1.029  0.00  0.00    +0.230 A 
ATOM     34  N   LIG    1       -2.925  -0.626  -0.809  0.00  0.00    -0.300 NA
ENDBRANCH  29  30
ENDBRANCH  28  29
ENDBRANCH   4  23
TORSDOF 7
