REMARK  Name = ZINCvU0000000IsV.0
REMARK                            x       y       z     vdW  Elec       q    Type
REMARK                         _______ _______ _______ _____ _____    ______ ____
ROOT
ATOM      1  C   LIG    1        1.240  -0.398   0.010  0.00  0.00    +0.200 A 
ATOM      2  N   LIG    1        0.007   0.013   0.180  0.00  0.00    -0.310 NA
ATOM      3  N   LIG    1       -0.001   1.411   0.093  0.00  0.00    -0.320 NA
ATOM      4  C   LIG    1        1.227   1.812  -0.128  0.00  0.00    +0.410 A 
ATOM      5  N   LIG    1        2.029   0.704  -0.185  0.00  0.00    -0.420 N 
ENDROOT
BRANCH   4   6
ATOM      6  N   LIG    1        1.642   3.129  -0.278  0.00  0.00    -0.460 N 
ATOM      7  C   LIG    1        1.344   3.915   0.926  0.00  0.00    +0.210 C 
ATOM      8  C   LIG    1        1.942   5.316   0.783  0.00  0.00    +0.030 C 
ATOM      9  C   LIG    1        1.348   5.996  -0.453  0.00  0.00    +0.010 C 
ATOM     10  C   LIG    1        1.631   5.133  -1.686  0.00  0.00    +0.030 C 
ATOM     11  C   LIG    1        1.041   3.737  -1.472  0.00  0.00    +0.210 C 
ENDBRANCH   4   6
BRANCH   5  12
ATOM     12  C   LIG    1        3.414   0.699  -0.405  0.00  0.00    +0.110 A 
ATOM     13  C   LIG    1        4.271   1.245   0.541  0.00  0.00    +0.040 A 
ATOM     14  C   LIG    1        5.635   1.233   0.324  0.00  0.00    +0.020 A 
ATOM     15  C   LIG    1        6.147   0.688  -0.840  0.00  0.00    +0.030 A 
ATOM     16  C   LIG    1        5.296   0.149  -1.786  0.00  0.00    +0.040 A 
ATOM     17  C   LIG    1        3.931   0.152  -1.572  0.00  0.00    +0.030 A 
ENDBRANCH   5  12
BRANCH   1  18
ATOM     18  S   LIG    1        1.787  -2.073   0.030  0.00  0.00    +0.080 S 
BRANCH  18  20
ATOM     19  C   LIG    1       -0.692  -2.817  -0.855  0.00  0.00    +0.110 C 
ATOM     20  C   LIG    1        0.256  -2.998   0.332  0.00  0.00    +0.140 C 
BRANCH  20  21
ATOM     21  C   LIG    1        0.577  -4.460   0.500  0.00  0.00    +0.170 A 
ATOM     22  N   LIG    1        1.381  -5.163  -0.248  0.00  0.00    -0.250 NA
ATOM     23  N   LIG    1        1.420  -6.375   0.181  0.00  0.00    -0.270 NA
ATOM     24  C   LIG    1        0.636  -6.488   1.228  0.00  0.00    +0.220 A 
ATOM     25  O   LIG    1        0.091  -5.276   1.452  0.00  0.00    -0.210 OA
BRANCH  24  26
ATOM     26  C   LIG    1        0.398  -7.716   2.017  0.00  0.00    -0.030 A 
ATOM     27  C   LIG    1       -0.462  -7.687   3.115  0.00  0.00    +0.050 A 
ATOM     28  C   LIG    1       -0.684  -8.838   3.843  0.00  0.00    +0.010 A 
ATOM     29  C   LIG    1       -0.046 -10.015   3.495  0.00  0.00    +0.040 A 
ATOM     30  C   LIG    1        0.813 -10.048   2.410  0.00  0.00    +0.020 A 
ATOM     31  C   LIG    1        1.038  -8.906   1.670  0.00  0.00    +0.080 A 
ENDBRANCH  24  26
ENDBRANCH  20  21
ENDBRANCH  18  20
ENDBRANCH   1  18
TORSDOF 6
