REMARK  Name = ZINCAx0000000bt1.0
REMARK                            x       y       z     vdW  Elec       q    Type
REMARK                         _______ _______ _______ _____ _____    ______ ____
ROOT
ATOM      1  C   LIG    1        3.072   3.072  -1.542  0.00  0.00    -0.030 C 
ATOM      2  C   LIG    1        2.187   3.856  -0.972  0.00  0.00    -0.050 C 
ATOM      3  C   LIG    1        1.158   3.368   0.003  0.00  0.00    +0.320 C 
ATOM      4  N   LIG    1        1.143   1.898   0.001  0.00  0.00    -0.610 N 
ATOM      5  C   LIG    1        2.445   1.209  -0.015  0.00  0.00    +0.300 C 
ATOM      6  C   LIG    1       -0.014   1.209   0.009  0.00  0.00    +0.510 C 
ATOM      7  O   LIG    1        0.002  -0.004   0.002  0.00  0.00    -0.530 OA
ATOM      8  C   LIG    1        3.167   1.593  -1.309  0.00  0.00    +0.070 C 
ENDROOT
BRANCH   1  12
ATOM      9  C   LIG    1        5.857   4.840  -4.228  0.00  0.00    +0.210 A 
ATOM     10  C   LIG    1        6.164   4.746  -2.877  0.00  0.00    -0.140 A 
ATOM     11  C   LIG    1        5.262   4.172  -1.998  0.00  0.00    +0.220 A 
ATOM     12  C   LIG    1        4.038   3.686  -2.474  0.00  0.00    -0.170 A 
ATOM     13  C   LIG    1        3.737   3.779  -3.838  0.00  0.00    +0.220 A 
ATOM     14  C   LIG    1        4.646   4.361  -4.706  0.00  0.00    -0.190 A 
BRANCH   9  16
ATOM     15  C   LIG    1        6.369   5.471  -6.462  0.00  0.00    +0.250 C 
ATOM     16  O   LIG    1        6.747   5.405  -5.085  0.00  0.00    -0.310 OA
ENDBRANCH   9  16
BRANCH  13  17
ATOM     17  O   LIG    1        2.554   3.306  -4.309  0.00  0.00    -0.300 OA
ATOM     18  C   LIG    1        2.315   3.435  -5.711  0.00  0.00    +0.250 C 
ENDBRANCH  13  17
BRANCH  11  19
ATOM     19  O   LIG    1        5.564   4.080  -0.677  0.00  0.00    -0.300 OA
ATOM     20  C   LIG    1        6.830   4.597  -0.264  0.00  0.00    +0.240 C 
ENDBRANCH  11  19
ENDBRANCH   1  12
BRANCH   6  21
ATOM     21  C   LIG    1       -1.330   1.944   0.019  0.00  0.00    +0.360 C 
BRANCH  21  22
ATOM     22  N   LIG    1       -2.430   0.977   0.019  0.00  0.00    -0.560 N 
ATOM     23  C   LIG    1       -2.991   0.474   1.127  0.00  0.00    +0.710 C 
ATOM     24  N   LIG    1       -3.984  -0.395   0.850  0.00  0.00    -0.710 N 
ATOM     25  H   LIG    1       -4.529  -0.879   1.490  0.00  0.00    +0.440 HD
ATOM     26  C   LIG    1       -4.074  -0.460  -0.609  0.00  0.00    +0.170 C 
ATOM     27  C   LIG    1       -5.463  -0.033  -1.102  0.00  0.00    +0.080 C 
ATOM     28  C   LIG    1       -6.181  -1.391  -1.271  0.00  0.00    +0.100 C 
ATOM     29  C   LIG    1       -5.075  -2.399  -1.505  0.00  0.00    -0.070 A 
ATOM     30  C   LIG    1       -5.127  -3.685  -2.013  0.00  0.00    +0.020 A 
ATOM     31  C   LIG    1       -3.973  -4.433  -2.137  0.00  0.00    +0.030 A 
ATOM     32  C   LIG    1       -2.759  -3.896  -1.751  0.00  0.00    +0.010 A 
ATOM     33  C   LIG    1       -2.703  -2.612  -1.244  0.00  0.00    +0.050 A 
ATOM     34  C   LIG    1       -3.859  -1.859  -1.120  0.00  0.00    -0.110 A 
ATOM     35  O   LIG    1       -2.644   0.768   2.253  0.00  0.00    -0.530 OA
ATOM     36  C   LIG    1       -3.010   0.486  -1.098  0.00  0.00    +0.540 C 
ATOM     37  O   LIG    1       -2.731   0.749  -2.248  0.00  0.00    -0.450 OA
ENDBRANCH  21  22
ENDBRANCH   6  21
TORSDOF 6
