REMARK  Name = ZINCrH000004pNQ8.0
REMARK                            x       y       z     vdW  Elec       q    Type
REMARK                         _______ _______ _______ _____ _____    ______ ____
ROOT
ATOM      1  C   LIG    1       -0.904   3.095  -3.638  0.00  0.00    -0.100 A 
ATOM      2  C   LIG    1       -2.046   3.638  -3.075  0.00  0.00    +0.010 A 
ATOM      3  C   LIG    1       -2.223   5.006  -3.051  0.00  0.00    +0.040 A 
ATOM      4  C   LIG    1       -1.252   5.842  -3.604  0.00  0.00    -0.130 A 
ATOM      5  C   LIG    1       -0.106   5.288  -4.175  0.00  0.00    +0.080 A 
ATOM      6  C   LIG    1        0.062   3.918  -4.189  0.00  0.00    +0.010 A 
ENDROOT
BRANCH   4   7
ATOM      7  C   LIG    1       -1.438   7.309  -3.586  0.00  0.00    +0.560 C 
ATOM      8  N   LIG    1       -2.547   7.841  -3.034  0.00  0.00    -0.720 N 
ATOM      9  H   LIG    1       -3.223   7.261  -2.649  0.00  0.00    +0.400 HD
ATOM     10  O   LIG    1       -0.591   8.035  -4.069  0.00  0.00    -0.530 OA
BRANCH   8  11
ATOM     11  C   LIG    1       -2.731   9.294  -3.016  0.00  0.00    +0.230 C 
ATOM     12  C   LIG    1       -3.350   9.746  -4.340  0.00  0.00    +0.020 C 
ATOM     13  C   LIG    1       -3.543  11.264  -4.321  0.00  0.00    +0.040 C 
ATOM     14  C   LIG    1       -4.471  11.646  -3.166  0.00  0.00    -0.010 C 
ATOM     15  C   LIG    1       -3.851  11.194  -1.842  0.00  0.00    +0.040 C 
ATOM     16  C   LIG    1       -3.659   9.676  -1.861  0.00  0.00    +0.030 C 
BRANCH  14  17
ATOM     17  C   LIG    1       -4.663  13.164  -3.147  0.00  0.00    +0.450 C 
ATOM     18  F   LIG    1       -5.512  13.513  -2.091  0.00  0.00    -0.180 F 
ATOM     19  F   LIG    1       -5.230  13.577  -4.357  0.00  0.00    -0.180 F 
ATOM     20  F   LIG    1       -3.424  13.789  -2.975  0.00  0.00    -0.180 F 
ENDBRANCH  14  17
ENDBRANCH   8  11
ENDBRANCH   4   7
BRANCH   1  21
ATOM     21  C   LIG    1       -0.715   1.600  -3.657  0.00  0.00    +0.270 C 
BRANCH  21  25
ATOM     22  C   LIG    1       -0.731   1.580   1.266  0.00  0.00    +0.050 C 
ATOM     23  C   LIG    1       -0.013   1.086   0.008  0.00  0.00    +0.160 C 
ATOM     24  C   LIG    1       -0.748   1.594  -1.235  0.00  0.00    +0.160 C 
ATOM     25  N   LIG    1       -0.011   1.180  -2.438  0.00  0.00    -0.520 NA
ATOM     26  C   LIG    1        1.361   1.706  -2.414  0.00  0.00    +0.150 C 
ATOM     27  C   LIG    1        2.076   1.197  -1.159  0.00  0.00    +0.220 C 
ATOM     28  O   LIG    1        1.329   1.582  -0.002  0.00  0.00    -0.380 OA
ENDBRANCH  21  25
ENDBRANCH   1  21
TORSDOF 5
