REMARK  Name = ZINCpe000000Y6UM.0
REMARK                            x       y       z     vdW  Elec       q    Type
REMARK                         _______ _______ _______ _____ _____    ______ ____
ROOT
ATOM      1  C   LIG    1        1.786  -1.862  -0.079  0.00  0.00    +0.270 C 
ENDROOT
BRANCH   1   8
ATOM      2  C   LIG    1       -1.225  -0.878  -0.044  0.00  0.00    +0.160 C 
ATOM      3  C   LIG    1       -0.005   0.007  -0.021  0.00  0.00    +0.090 A 
ATOM      4  N   LIG    1       -0.009   1.315   0.017  0.00  0.00    -0.290 NA
ATOM      5  N   LIG    1        1.320   1.760   0.027  0.00  0.00    -0.390 N 
ATOM      6  C   LIG    1        2.123   0.672  -0.006  0.00  0.00    +0.260 A 
ATOM      7  C   LIG    1        1.761   3.156   0.067  0.00  0.00    +0.330 C 
ATOM      8  C   LIG    1        1.322  -0.429  -0.036  0.00  0.00    -0.200 A 
BRANCH   6   9
ATOM      9  N   LIG    1        3.515   0.678  -0.009  0.00  0.00    -0.450 N 
ATOM     10  C   LIG    1        4.042   1.390   1.163  0.00  0.00    +0.150 C 
ATOM     11  C   LIG    1        5.571   1.321   1.151  0.00  0.00    +0.240 C 
ATOM     12  O   LIG    1        6.059   1.866  -0.077  0.00  0.00    -0.380 OA
ATOM     13  C   LIG    1        5.566   1.195  -1.240  0.00  0.00    +0.240 C 
ATOM     14  C   LIG    1        4.037   1.264  -1.253  0.00  0.00    +0.170 C 
ENDBRANCH   6   9
ENDBRANCH   1   8
BRANCH   1  15
ATOM     15  N   LIG    1        1.933  -2.288  -1.477  0.00  0.00    -0.650 NA
ATOM     16  H   LIG    1        1.073  -2.156  -1.988  0.00  0.00    +0.350 HD
BRANCH  15  17
ATOM     17  C   LIG    1        2.385  -3.684  -1.557  0.00  0.00    +0.220 C 
BRANCH  17  18
ATOM     18  C   LIG    1        3.097  -3.907  -2.866  0.00  0.00    -0.070 A 
ATOM     19  C   LIG    1        2.608  -3.334  -4.026  0.00  0.00    +0.030 A 
ATOM     20  C   LIG    1        3.265  -3.535  -5.226  0.00  0.00    +0.000 A 
ATOM     21  C   LIG    1        4.404  -4.316  -5.268  0.00  0.00    +0.000 A 
ATOM     22  C   LIG    1        4.890  -4.893  -4.109  0.00  0.00    +0.000 A 
ATOM     23  C   LIG    1        4.237  -4.688  -2.909  0.00  0.00    +0.010 A 
ENDBRANCH  17  18
BRANCH  17  24
ATOM     24  C   LIG    1        1.193  -4.603  -1.471  0.00  0.00    +0.490 C 
ATOM     25  O   LIG    1        0.078  -4.140  -1.354  0.00  0.00    -0.540 OA
ATOM     26  N   LIG    1        1.367  -5.938  -1.524  0.00  0.00    -0.850 N 
ATOM     27  H   LIG    1        0.600  -6.530  -1.468  0.00  0.00    +0.400 HD
ATOM     28  H   LIG    1        2.259  -6.308  -1.617  0.00  0.00    +0.400 HD
ENDBRANCH  17  24
ENDBRANCH  15  17
ENDBRANCH   1  15
TORSDOF 6
