REMARK  Name = ZINCrH000004tmEj.0
REMARK                            x       y       z     vdW  Elec       q    Type
REMARK                         _______ _______ _______ _____ _____    ______ ____
ROOT
ATOM      1  C   LIG    1        5.166   3.879  -0.894  0.00  0.00    +0.010 C 
ATOM      2  C   LIG    1        5.354   3.297   0.526  0.00  0.00    +0.090 C 
ATOM      3  C   LIG    1        4.069   2.544   0.792  0.00  0.00    +0.520 C 
ATOM      4  N   LIG    1        3.407   2.339  -0.360  0.00  0.00    -0.580 N 
ATOM      5  O   LIG    1        3.692   2.177   1.885  0.00  0.00    -0.510 OA
ATOM      6  C   LIG    1        4.142   2.893  -1.503  0.00  0.00    +0.310 C 
ENDROOT
BRANCH   4   7
ATOM      7  C   LIG    1        2.181   1.679  -0.457  0.00  0.00    +0.150 A 
ATOM      8  C   LIG    1        1.002   2.386  -0.364  0.00  0.00    +0.030 A 
ATOM      9  C   LIG    1       -0.227   1.738  -0.460  0.00  0.00    +0.020 A 
ATOM     10  C   LIG    1       -0.298   0.392  -0.648  0.00  0.00    +0.040 A 
ATOM     11  C   LIG    1        0.881  -0.366  -0.749  0.00  0.00    -0.050 A 
ATOM     12  C   LIG    1        0.838  -1.757  -0.943  0.00  0.00    +0.030 A 
ATOM     13  C   LIG    1        2.000  -2.461  -1.037  0.00  0.00    +0.020 A 
ATOM     14  C   LIG    1        3.234  -1.822  -0.943  0.00  0.00    +0.010 A 
ATOM     15  C   LIG    1        3.314  -0.476  -0.754  0.00  0.00    +0.020 A 
ATOM     16  C   LIG    1        2.137   0.282  -0.652  0.00  0.00    -0.040 A 
ENDBRANCH   4   7
BRANCH   1  19
ATOM     17  N   LIG    1        7.526   4.546  -1.216  0.00  0.00    -0.670 N 
ATOM     18  H   LIG    1        7.438   5.123  -0.442  0.00  0.00    +0.420 HD
ATOM     19  C   LIG    1        6.461   3.852  -1.664  0.00  0.00    +0.530 C 
ATOM     20  O   LIG    1        6.545   3.205  -2.687  0.00  0.00    -0.500 OA
BRANCH  17  24
ATOM     21  C   LIG    1       11.197   4.210  -3.158  0.00  0.00    -0.040 A 
ATOM     22  C   LIG    1       10.824   5.422  -2.570  0.00  0.00    +0.090 A 
ATOM     23  C   LIG    1        9.610   5.529  -1.930  0.00  0.00    -0.010 A 
ATOM     24  C   LIG    1        8.756   4.433  -1.867  0.00  0.00    +0.180 A 
ATOM     25  C   LIG    1        9.126   3.224  -2.446  0.00  0.00    +0.020 A 
ATOM     26  C   LIG    1       10.336   3.111  -3.093  0.00  0.00    +0.090 A 
BRANCH  21  28
ATOM     27  N   LIG    1       13.461   4.003  -4.354  0.00  0.00    -0.410 NA
ATOM     28  C   LIG    1       12.460   4.095  -3.825  0.00  0.00    +0.250 C 
ENDBRANCH  21  28
ENDBRANCH  17  24
ENDBRANCH   1  19
TORSDOF 4
