REMARK  Name = ZINCb70000002gMA.0
REMARK                            x       y       z     vdW  Elec       q    Type
REMARK                         _______ _______ _______ _____ _____    ______ ____
ROOT
ATOM      1  C   LIG    1       -0.013   1.086   0.008  0.00  0.00    +0.280 C 
ATOM      2  C   LIG    1       -0.728   1.579   1.268  0.00  0.00    +0.100 C 
ATOM      3  C   LIG    1       -0.748   3.109   1.271  0.00  0.00    +0.070 C 
ATOM      4  C   LIG    1       -1.529   3.610   2.488  0.00  0.00    +0.220 C 
ATOM      5  O   LIG    1       -1.448   5.037   2.543  0.00  0.00    -0.370 OA
ATOM      6  C   LIG    1       -0.107   5.532   2.606  0.00  0.00    +0.200 C 
ATOM      7  C   LIG    1        0.671   5.033   1.385  0.00  0.00    +0.210 C 
ATOM      8  C   LIG    1       -1.421   3.607  -0.010  0.00  0.00    +0.050 C 
ATOM      9  C   LIG    1       -0.681   3.038  -1.223  0.00  0.00    +0.270 C 
ATOM     10  O   LIG    1        0.591   3.605   1.330  0.00  0.00    -0.370 OA
ATOM     11  N   LIG    1       -0.722   1.571  -1.182  0.00  0.00    -0.500 N 
ATOM     12  H   LIG    1       -1.682   1.264  -1.149  0.00  0.00    +0.430 HD
ATOM     13  H   LIG    1       -0.280   1.201  -2.010  0.00  0.00    +0.430 HD
ENDROOT
TORSDOF 0
