REMARK  Name = ZINCpk00000RkBOA.0
REMARK                            x       y       z     vdW  Elec       q    Type
REMARK                         _______ _______ _______ _____ _____    ______ ____
ROOT
ATOM      1  C   LIG    1       -4.781   1.963   6.639  0.00  0.00    -0.010 A 
ATOM      2  C   LIG    1       -3.537   1.443   6.696  0.00  0.00    +0.160 A 
ATOM      3  N   LIG    1       -2.683   1.508   5.627  0.00  0.00    -0.450 N 
ATOM      4  C   LIG    1       -1.425   0.775   5.750  0.00  0.00    +0.280 C 
ATOM      5  C   LIG    1       -0.328   1.308   4.851  0.00  0.00    +0.320 C 
ATOM      6  N   LIG    1       -0.853   1.667   3.540  0.00  0.00    -0.630 N 
ATOM      7  C   LIG    1       -2.044   2.493   3.410  0.00  0.00    +0.360 C 
ATOM      8  C   LIG    1       -0.222   1.232   2.431  0.00  0.00    +0.710 C 
ATOM      9  N   LIG    1       -0.698   1.558   1.213  0.00  0.00    -0.740 N 
ATOM     10  H   LIG    1       -1.495   2.106   1.135  0.00  0.00    +0.400 HD
ATOM     11  O   LIG    1        0.777   0.546   2.530  0.00  0.00    -0.580 OA
ATOM     12  C   LIG    1       -3.022   2.214   4.526  0.00  0.00    +0.170 A 
ATOM     13  C   LIG    1       -4.271   2.735   4.397  0.00  0.00    -0.140 A 
ATOM     14  C   LIG    1       -5.204   2.601   5.445  0.00  0.00    +0.400 A 
ATOM     15  O   LIG    1       -6.345   3.024   5.328  0.00  0.00    -0.500 OA
ENDROOT
BRANCH   1  17
ATOM     16  C   LIG    1       -5.113   1.217   8.874  0.00  0.00    +0.230 C 
ATOM     17  O   LIG    1       -5.616   1.876   7.710  0.00  0.00    -0.290 OA
ENDBRANCH   1  17
BRANCH   9  18
ATOM     18  C   LIG    1       -0.013   1.086   0.008  0.00  0.00    +0.310 C 
BRANCH  18  19
ATOM     19  C   LIG    1       -0.753   1.593  -1.232  0.00  0.00    +0.190 C 
BRANCH  19  20
ATOM     20  O   LIG    1       -0.672   3.018  -1.285  0.00  0.00    -0.310 OA
BRANCH  20  21
ATOM     21  C   LIG    1       -1.282   3.632  -2.332  0.00  0.00    +0.130 A 
ATOM     22  C   LIG    1       -1.941   2.877  -3.292  0.00  0.00    -0.080 A 
ATOM     23  C   LIG    1       -2.565   3.504  -4.353  0.00  0.00    +0.050 A 
ATOM     24  C   LIG    1       -2.525   4.882  -4.465  0.00  0.00    -0.040 A 
ATOM     25  C   LIG    1       -1.865   5.636  -3.512  0.00  0.00    +0.050 A 
ATOM     26  C   LIG    1       -1.243   5.014  -2.447  0.00  0.00    -0.020 A 
ENDBRANCH  20  21
ENDBRANCH  19  20
ENDBRANCH  18  19
ENDBRANCH   9  18
TORSDOF 5
