REMARK  Name = ZINCrH00000No51G.1
REMARK                            x       y       z     vdW  Elec       q    Type
REMARK                         _______ _______ _______ _____ _____    ______ ____
ROOT
ATOM      1  C   LIG    1        3.710  -0.707  -0.037  0.00  0.00    +0.170 C 
ATOM      2  N   LIG    1        3.615  -1.971   0.713  0.00  0.00    -0.710 N 
ATOM      3  H   LIG    1        3.031  -2.720   0.514  0.00  0.00    +0.450 HD
ATOM      4  C   LIG    1        4.493  -1.884   1.728  0.00  0.00    +0.720 C 
ATOM      5  N   LIG    1        5.151  -0.719   1.735  0.00  0.00    -0.430 N 
ATOM      6  O   LIG    1        4.669  -2.764   2.547  0.00  0.00    -0.500 OA
ATOM      7  C   LIG    1        4.156  -0.968  -1.477  0.00  0.00    +0.110 C 
ATOM      8  C   LIG    1        4.767   0.078   0.714  0.00  0.00    +0.510 C 
ATOM      9  O   LIG    1        5.178   1.189   0.453  0.00  0.00    -0.460 OA
ENDROOT
BRANCH   1  13
ATOM     10  C   LIG    1       -0.028   1.364   0.023  0.00  0.00    +0.140 A 
ATOM     11  C   LIG    1        1.162   2.078   0.017  0.00  0.00    -0.070 A 
ATOM     12  C   LIG    1        2.369   1.406  -0.002  0.00  0.00    +0.070 A 
ATOM     13  C   LIG    1        2.392   0.024  -0.016  0.00  0.00    -0.140 A 
ATOM     14  C   LIG    1        1.208  -0.690  -0.011  0.00  0.00    +0.080 A 
ATOM     15  C   LIG    1       -0.002  -0.023   0.009  0.00  0.00    -0.010 A 
BRANCH  10  17
ATOM     16  C   LIG    1       -1.167   3.450   0.050  0.00  0.00    +0.240 C 
ATOM     17  O   LIG    1       -1.217   2.022   0.036  0.00  0.00    -0.310 OA
ENDBRANCH  10  17
ENDBRANCH   1  13
BRANCH   5  18
ATOM     18  N   LIG    1        6.122  -0.370   2.683  0.00  0.00    -0.200 NA
ATOM     19  C   LIG    1        6.787   0.738   2.553  0.00  0.00    +0.290 C 
BRANCH  19  20
ATOM     20  C   LIG    1        7.884   1.052   3.485  0.00  0.00    -0.080 A 
ATOM     21  C   LIG    1        8.601   2.243   3.349  0.00  0.00    +0.130 A 
ATOM     22  C   LIG    1        9.627   2.531   4.226  0.00  0.00    -0.110 A 
ATOM     23  C   LIG    1        9.949   1.645   5.240  0.00  0.00    +0.130 A 
ATOM     24  C   LIG    1        9.247   0.463   5.385  0.00  0.00    -0.130 A 
ATOM     25 BR   LIG    1        9.697  -0.739   6.773  0.00  0.00    -0.010 Br
ATOM     26 BR   LIG    1       10.598   4.144   4.041  0.00  0.00    -0.020 Br
ATOM     27  C   LIG    1        8.210   0.160   4.516  0.00  0.00    +0.200 A 
BRANCH  27  28
ATOM     28  O   LIG    1        7.515  -0.998   4.661  0.00  0.00    -0.460 OA
ATOM     29  H   LIG    1        7.886  -1.743   4.168  0.00  0.00    +0.400 HD
ENDBRANCH  27  28
ENDBRANCH  19  20
ENDBRANCH   5  18
TORSDOF 5
