REMARK  Name = ZINCpk00000Fl0L8.0
REMARK                            x       y       z     vdW  Elec       q    Type
REMARK                         _______ _______ _______ _____ _____    ______ ____
ROOT
ATOM      1  C   LIG    1       -4.342   5.965   5.193  0.00  0.00    +0.540 A 
ATOM      2  C   LIG    1       -3.997   6.782   6.267  0.00  0.00    -0.340 A 
ATOM      3  C   LIG    1       -4.976   7.593   6.837  0.00  0.00    +0.560 A 
ATOM      4  N   LIG    1       -6.228   7.564   6.334  0.00  0.00    -0.440 N 
ATOM      5  C   LIG    1       -7.192   8.354   6.886  0.00  0.00    +0.310 A 
ATOM      6  C   LIG    1       -8.453   8.346   6.402  0.00  0.00    +0.000 A 
ATOM      7  C   LIG    1       -8.788   7.518   5.320  0.00  0.00    +0.160 A 
ATOM      8  C   LIG    1       -7.833   6.724   4.761  0.00  0.00    +0.030 A 
ATOM      9  C   LIG    1       -6.524   6.747   5.279  0.00  0.00    +0.450 A 
ATOM     10  O   LIG    1       -4.704   8.320   7.780  0.00  0.00    -0.470 OA
ATOM     11  N   LIG    1       -5.589   5.975   4.728  0.00  0.00    -0.580 NA
ENDROOT
BRANCH   2  12
ATOM     12  N   LIG    1       -2.613   6.788   6.793  0.00  0.00    +0.090 N 
ATOM     13  O   LIG    1       -2.346   7.427   7.796  0.00  0.00    -0.140 OA
ATOM     14  O   LIG    1       -1.742   6.156   6.224  0.00  0.00    -0.230 OA
ENDBRANCH   2  12
BRANCH   1  15
ATOM     15  N   LIG    1       -3.391   5.150   4.608  0.00  0.00    -0.650 N 
ATOM     16  H   LIG    1       -2.465   5.203   4.892  0.00  0.00    +0.440 HD
BRANCH  15  18
ATOM     17  C   LIG    1       -4.285   2.911   4.198  0.00  0.00    +0.070 C 
ATOM     18  C   LIG    1       -3.781   4.206   3.558  0.00  0.00    +0.250 C 
BRANCH  18  19
ATOM     19  C   LIG    1       -2.590   3.905   2.685  0.00  0.00    +0.510 C 
ATOM     20  N   LIG    1       -2.713   3.055   1.646  0.00  0.00    -0.720 N 
ATOM     21  H   LIG    1       -3.569   2.637   1.460  0.00  0.00    +0.400 HD
ATOM     22  O   LIG    1       -1.521   4.428   2.917  0.00  0.00    -0.520 OA
BRANCH  20  23
ATOM     23  C   LIG    1       -1.556   2.763   0.797  0.00  0.00    +0.240 C 
ATOM     24  C   LIG    1       -0.787   1.522   1.319  0.00  0.00    +0.000 C 
ATOM     25  C   LIG    1       -0.042   0.990   0.076  0.00  0.00    +0.020 C 
ATOM     26  C   LIG    1       -0.819   1.495  -1.152  0.00  0.00    +0.020 C 
ATOM     27  C   LIG    1       -2.009   2.316  -0.615  0.00  0.00    +0.010 C 
ENDBRANCH  20  23
ENDBRANCH  18  19
ENDBRANCH  15  18
ENDBRANCH   1  15
TORSDOF 5
