REMARK  Name = ZINCqH00000693rr.1
REMARK                            x       y       z     vdW  Elec       q    Type
REMARK                         _______ _______ _______ _____ _____    ______ ____
ROOT
ATOM      1  C   LIG    1        1.278  -0.099   2.031  0.00  0.00    +0.310 C 
ATOM      2  N   LIG    1        0.022  -0.501   1.384  0.00  0.00    -0.370 N 
ATOM      3  H   LIG    1       -0.758  -0.112   1.893  0.00  0.00    +0.430 HD
ENDROOT
BRANCH   2   4
ATOM      4  C   LIG    1       -0.079  -1.967   1.379  0.00  0.00    +0.330 C 
BRANCH   4   5
ATOM      5  C   LIG    1       -0.182  -2.468   2.796  0.00  0.00    -0.160 A 
ATOM      6  C   LIG    1        0.932  -2.979   3.431  0.00  0.00    +0.080 A 
ATOM      7  C   LIG    1        0.841  -3.436   4.734  0.00  0.00    -0.030 A 
ATOM      8  C   LIG    1       -0.371  -3.392   5.404  0.00  0.00    +0.130 A 
ATOM      9  C   LIG    1       -1.493  -2.886   4.775  0.00  0.00    +0.010 A 
ATOM     10  F   LIG    1       -0.455  -3.844   6.674  0.00  0.00    -0.130 F 
ATOM     11  C   LIG    1       -1.403  -2.421   3.465  0.00  0.00    +0.100 A 
BRANCH  11  12
ATOM     12  C   LIG    1       -2.606  -1.878   2.784  0.00  0.00    +0.060 A 
ATOM     13  N   LIG    1       -2.667  -1.397   1.547  0.00  0.00    -0.410 NA
ATOM     14  N   LIG    1       -3.884  -1.030   1.332  0.00  0.00    -0.160 NA
ATOM     15  N   LIG    1       -4.584  -1.254   2.389  0.00  0.00    -0.160 NA
ATOM     16  N   LIG    1       -3.827  -1.773   3.295  0.00  0.00    -0.340 NA
ENDBRANCH  11  12
ENDBRANCH   4   5
ENDBRANCH   2   4
BRANCH   2  17
ATOM     17  C   LIG    1        0.002  -0.004   0.002  0.00  0.00    +0.320 C 
BRANCH  17  18
ATOM     18  C   LIG    1       -0.018   1.503   0.010  0.00  0.00    -0.150 A 
ATOM     19  C   LIG    1       -1.212   2.157   0.020  0.00  0.00    +0.090 A 
ATOM     20  C   LIG    1       -1.234   3.562   0.032  0.00  0.00    -0.060 A 
ATOM     21  C   LIG    1       -2.447   4.272   0.046  0.00  0.00    +0.040 A 
ATOM     22  C   LIG    1       -2.430   5.633   0.051  0.00  0.00    +0.020 A 
ATOM     23  C   LIG    1       -1.227   6.336   0.043  0.00  0.00    +0.030 A 
ATOM     24  C   LIG    1       -0.033   5.682   0.029  0.00  0.00    +0.010 A 
ATOM     25  C   LIG    1       -0.010   4.277   0.024  0.00  0.00    -0.040 A 
ATOM     26  C   LIG    1        1.202   3.566   0.009  0.00  0.00    +0.030 A 
ATOM     27  C   LIG    1        1.185   2.206   0.003  0.00  0.00    +0.020 A 
ENDBRANCH  17  18
ENDBRANCH   2  17
TORSDOF 5
