REMARK  Name = ZINCqH00000693rr.0
REMARK                            x       y       z     vdW  Elec       q    Type
REMARK                         _______ _______ _______ _____ _____    ______ ____
ROOT
ATOM      1  C   LIG    1       -0.143   1.580   0.314  0.00  0.00    +0.310 C 
ATOM      2  N   LIG    1       -0.032   0.135   0.072  0.00  0.00    -0.370 N 
ATOM      3  H   LIG    1        0.387  -0.023  -0.833  0.00  0.00    +0.430 HD
ENDROOT
BRANCH   2   4
ATOM      4  C   LIG    1        0.807  -0.473   1.113  0.00  0.00    +0.330 C 
BRANCH   4   5
ATOM      5  C   LIG    1        2.218   0.041   0.985  0.00  0.00    -0.160 A 
ATOM      6  C   LIG    1        2.687   0.997   1.863  0.00  0.00    +0.080 A 
ATOM      7  C   LIG    1        3.983   1.466   1.752  0.00  0.00    -0.030 A 
ATOM      8  C   LIG    1        4.815   0.988   0.752  0.00  0.00    +0.130 A 
ATOM      9  C   LIG    1        4.354   0.035  -0.136  0.00  0.00    +0.010 A 
ATOM     10  F   LIG    1        6.078   1.455   0.645  0.00  0.00    -0.130 F 
ATOM     11  C   LIG    1        3.049  -0.445  -0.024  0.00  0.00    +0.100 A 
BRANCH  11  12
ATOM     12  C   LIG    1        2.549  -1.465  -0.972  0.00  0.00    +0.060 A 
ATOM     13  N   LIG    1        1.372  -2.091  -0.923  0.00  0.00    -0.410 NA
ATOM     14  N   LIG    1        1.320  -2.898  -1.927  0.00  0.00    -0.160 NA
ATOM     15  N   LIG    1        2.415  -2.812  -2.598  0.00  0.00    -0.160 NA
ATOM     16  N   LIG    1        3.188  -1.944  -2.040  0.00  0.00    -0.340 NA
ENDBRANCH  11  12
ENDBRANCH   4   5
ENDBRANCH   2   4
BRANCH   2  17
ATOM     17  C   LIG    1       -1.370  -0.471   0.104  0.00  0.00    +0.320 C 
BRANCH  17  18
ATOM     18  C   LIG    1       -2.191   0.064  -1.040  0.00  0.00    -0.150 A 
ATOM     19  C   LIG    1       -2.173  -0.583  -2.238  0.00  0.00    +0.090 A 
ATOM     20  C   LIG    1       -2.938  -0.087  -3.308  0.00  0.00    -0.060 A 
ATOM     21  C   LIG    1       -2.945  -0.727  -4.558  0.00  0.00    +0.040 A 
ATOM     22  C   LIG    1       -3.699  -0.218  -5.571  0.00  0.00    +0.020 A 
ATOM     23  C   LIG    1       -4.466   0.930  -5.388  0.00  0.00    +0.030 A 
ATOM     24  C   LIG    1       -4.484   1.577  -4.190  0.00  0.00    +0.010 A 
ATOM     25  C   LIG    1       -3.719   1.081  -3.121  0.00  0.00    -0.040 A 
ATOM     26  C   LIG    1       -3.712   1.721  -1.869  0.00  0.00    +0.030 A 
ATOM     27  C   LIG    1       -2.963   1.209  -0.855  0.00  0.00    +0.020 A 
ENDBRANCH  17  18
ENDBRANCH   2  17
TORSDOF 5
