REMARK  Name = ZINCvU0000000DYl.0
REMARK                            x       y       z     vdW  Elec       q    Type
REMARK                         _______ _______ _______ _____ _____    ______ ____
ROOT
ATOM      1  C   LIG    1       -4.436   2.131   4.495  0.00  0.00    +0.080 A 
ATOM      2  C   LIG    1       -4.944   1.322   3.492  0.00  0.00    -0.030 A 
ATOM      3  C   LIG    1       -4.146   0.967   2.415  0.00  0.00    +0.070 A 
ATOM      4  C   LIG    1       -2.829   1.415   2.347  0.00  0.00    +0.150 A 
ATOM      5  C   LIG    1       -2.320   2.223   3.350  0.00  0.00    -0.010 A 
ATOM      6  C   LIG    1       -3.120   2.583   4.425  0.00  0.00    +0.160 A 
ENDROOT
BRANCH   3   7
ATOM      7  N   LIG    1       -4.662   0.153   1.397  0.00  0.00    -0.480 N 
ATOM      8  C   LIG    1       -5.764   0.826   0.694  0.00  0.00    +0.150 C 
ATOM      9  C   LIG    1       -6.258  -0.070  -0.445  0.00  0.00    +0.220 C 
ATOM     10  O   LIG    1       -6.651  -1.338   0.089  0.00  0.00    -0.380 OA
ATOM     11  C   LIG    1       -5.602  -2.021   0.781  0.00  0.00    +0.220 C 
ATOM     12  C   LIG    1       -5.101  -1.144   1.932  0.00  0.00    +0.150 C 
ENDBRANCH   3   7
BRANCH   6  13
ATOM     13  N   LIG    1       -2.605   3.402   5.440  0.00  0.00    -0.650 N 
ATOM     14  H   LIG    1       -2.988   3.370   6.330  0.00  0.00    +0.410 HD
ATOM     15  C   LIG    1       -1.576   4.233   5.178  0.00  0.00    +0.590 C 
ATOM     16  O   LIG    1       -1.161   4.347   4.040  0.00  0.00    -0.490 OA
BRANCH  15  17
ATOM     17  C   LIG    1       -0.958   5.000   6.266  0.00  0.00    -0.240 A 
ATOM     18  C   LIG    1        0.065   5.850   6.112  0.00  0.00    +0.050 A 
ATOM     19  C   LIG    1        0.507   6.484   7.286  0.00  0.00    -0.090 A 
ATOM     20  C   LIG    1        1.554   7.422   7.447  0.00  0.00    +0.080 A 
ATOM     21  C   LIG    1        1.840   7.933   8.674  0.00  0.00    +0.020 A 
ATOM     22  C   LIG    1        1.111   7.544   9.791  0.00  0.00    +0.060 A 
ATOM     23  C   LIG    1        0.088   6.635   9.667  0.00  0.00    +0.050 A 
ATOM     24  C   LIG    1       -0.225   6.095   8.415  0.00  0.00    -0.120 A 
ATOM     25 CL   LIG    1        0.796   6.149   4.566  0.00  0.00    -0.000 Cl
ATOM     26  S   LIG    1       -1.462   4.936   7.945  0.00  0.00    +0.160 S 
ENDBRANCH  15  17
ENDBRANCH   6  13
BRANCH   1  27
ATOM     27  O   LIG    1       -5.221   2.484   5.549  0.00  0.00    -0.320 OA
BRANCH  27  29
ATOM     28  C   LIG    1       -7.283   2.483   6.809  0.00  0.00    +0.070 C 
ATOM     29  C   LIG    1       -6.559   1.985   5.556  0.00  0.00    +0.180 C 
ENDBRANCH  27  29
ENDBRANCH   1  27
BRANCH   4  30
ATOM     30  O   LIG    1       -2.044   1.062   1.293  0.00  0.00    -0.290 OA
BRANCH  30  31
ATOM     31  C   LIG    1       -0.705   1.562   1.285  0.00  0.00    +0.180 C 
ATOM     32  C   LIG    1        0.018   1.064   0.032  0.00  0.00    +0.070 C 
ENDBRANCH  30  31
ENDBRANCH   4  30
TORSDOF 7
