REMARK  Name = ZINCpk00000xI5Np.0
REMARK                            x       y       z     vdW  Elec       q    Type
REMARK                         _______ _______ _______ _____ _____    ______ ____
ROOT
ATOM      1  C   LIG    1        4.088  -0.997  -2.837  0.00  0.00    +0.120 C 
ATOM      2  C   LIG    1        2.735  -0.448  -2.389  0.00  0.00    +0.310 C 
ATOM      3  N   LIG    1        2.926   0.911  -1.862  0.00  0.00    -1.000 NA
ATOM      4  C   LIG    1        3.669   1.879  -2.684  0.00  0.00    +0.300 C 
ATOM      5  C   LIG    1        4.991   1.236  -3.118  0.00  0.00    +0.190 C 
ATOM      6  N   LIG    1        4.715  -0.051  -3.769  0.00  0.00    -0.530 NA
ENDROOT
BRANCH   3   7
ATOM      7  S   LIG    1        2.329   1.339  -0.378  0.00  0.00    +2.690 S 
ATOM      8  O   LIG    1        2.184   0.134   0.359  0.00  0.00    -0.960 OA
ATOM      9  O   LIG    1        3.114   2.436   0.070  0.00  0.00    -0.950 OA
BRANCH   7  10
ATOM     10  C   LIG    1        0.701   1.965  -0.632  0.00  0.00    -0.710 A 
ATOM     11  C   LIG    1        0.508   3.313  -0.871  0.00  0.00    +0.160 A 
ATOM     12  C   LIG    1       -0.768   3.802  -1.069  0.00  0.00    -0.030 A 
ATOM     13  C   LIG    1       -1.861   2.943  -1.028  0.00  0.00    +0.190 A 
ATOM     14  O   LIG    1       -3.102   3.463  -1.217  0.00  0.00    -0.310 OA
ATOM     15  C   LIG    1       -4.157   2.559  -1.560  0.00  0.00    +0.240 C 
ATOM     16  C   LIG    1       -4.128   1.392  -0.565  0.00  0.00    +0.010 C 
ATOM     17  C   LIG    1       -2.819   0.624  -0.763  0.00  0.00    +0.090 C 
ATOM     18  C   LIG    1       -1.663   1.592  -0.798  0.00  0.00    -0.180 A 
ATOM     19  C   LIG    1       -0.382   1.108  -0.594  0.00  0.00    +0.160 A 
ENDBRANCH   7  10
ENDBRANCH   3   7
BRANCH   1  21
ATOM     20  C   LIG    1        3.341  -3.361  -2.530  0.00  0.00    +0.020 C 
ATOM     21  C   LIG    1        3.890  -2.345  -3.533  0.00  0.00    +0.030 C 
ENDBRANCH   1  21
BRANCH   6  22
ATOM     22  C   LIG    1        5.939  -0.618  -4.352  0.00  0.00    +0.230 C 
BRANCH  22  23
ATOM     23  C   LIG    1        6.822  -1.181  -3.236  0.00  0.00    +0.120 C 
ATOM     24  C   LIG    1        8.030  -1.890  -3.850  0.00  0.00    +0.010 C 
BRANCH  23  25
ATOM     25  O   LIG    1        7.271  -0.112  -2.400  0.00  0.00    -0.560 OA
ATOM     26  H   LIG    1        7.837  -0.396  -1.669  0.00  0.00    +0.380 HD
ENDBRANCH  23  25
ENDBRANCH  22  23
ENDBRANCH   6  22
TORSDOF 6
