REMARK  Name = ZINCpe000000YUry.0
REMARK                            x       y       z     vdW  Elec       q    Type
REMARK                         _______ _______ _______ _____ _____    ______ ____
ROOT
ATOM      1  C   LIG    1        0.661   5.834   0.029  0.00  0.00    +0.220 C 
ENDROOT
BRANCH   1   2
ATOM      2  N   LIG    1        0.407   4.391   0.023  0.00  0.00    -0.480 NA
ATOM      3  C   LIG    1        1.405   3.555   0.009  0.00  0.00    +0.390 C 
ATOM      4  N   LIG    1        2.705   3.993  -0.001  0.00  0.00    -1.050 N 
ATOM      5  H   LIG    1        3.013   4.912   0.002  0.00  0.00    +0.450 HD
ATOM      6  S   LIG    1        3.646   2.612  -0.018  0.00  0.00    +2.670 S 
ATOM      7  C   LIG    1        2.380   1.373  -0.013  0.00  0.00    -0.630 A 
ATOM      8  C   LIG    1        2.395   0.004  -0.021  0.00  0.00    +0.150 A 
ATOM      9  C   LIG    1        1.199  -0.697  -0.014  0.00  0.00    +0.040 A 
ATOM     10  C   LIG    1        0.002  -0.004   0.002  0.00  0.00    +0.070 A 
ATOM     11  C   LIG    1       -0.017   1.372   0.010  0.00  0.00    +0.100 A 
ATOM     12  O   LIG    1        4.295   2.554  -1.280  0.00  0.00    -0.930 OA
ATOM     13  O   LIG    1        4.319   2.539   1.231  0.00  0.00    -0.930 OA
ATOM     14  C   LIG    1        1.185   2.099   0.002  0.00  0.00    -0.020 A 
ENDBRANCH   1   2
BRANCH   1  16
ATOM     15  O   LIG    1       -0.383   5.737  -2.085  0.00  0.00    -0.510 OA
ATOM     16  C   LIG    1        0.144   6.441  -1.250  0.00  0.00    +0.520 C 
ATOM     17  N   LIG    1        0.270   7.765  -1.466  0.00  0.00    -0.730 N 
ATOM     18  H   LIG    1        0.692   8.328  -0.799  0.00  0.00    +0.410 HD
BRANCH  17  19
ATOM     19  C   LIG    1       -0.232   8.354  -2.710  0.00  0.00    +0.440 C 
BRANCH  19  20
ATOM     20  C   LIG    1        0.023   9.804  -2.704  0.00  0.00    -0.180 C 
ATOM     21  C   LIG    1        0.226  10.960  -2.699  0.00  0.00    -0.100 C 
BRANCH  21  22
ATOM     22  C   LIG    1        0.474  12.371  -2.693  0.00  0.00    +0.000 A 
ATOM     23  C   LIG    1        1.103  12.967  -1.599  0.00  0.00    +0.040 A 
ATOM     24  C   LIG    1        1.343  14.325  -1.601  0.00  0.00    +0.010 A 
ATOM     25  C   LIG    1        0.953  15.098  -2.680  0.00  0.00    +0.020 A 
ATOM     26  C   LIG    1        0.325  14.514  -3.766  0.00  0.00    +0.010 A 
ATOM     27  C   LIG    1        0.084  13.156  -3.778  0.00  0.00    +0.040 A 
ENDBRANCH  21  22
ENDBRANCH  19  20
ENDBRANCH  17  19
ENDBRANCH   1  16
TORSDOF 5
