REMARK  Name = ZINCpk00000y6uoT.0
REMARK                            x       y       z     vdW  Elec       q    Type
REMARK                         _______ _______ _______ _____ _____    ______ ____
ROOT
ATOM      1  C   LIG    1        0.529   0.702   0.072  0.00  0.00    +0.300 C 
ATOM      2  N   LIG    1       -0.339   1.252   1.116  0.00  0.00    -0.590 N 
ATOM      3  C   LIG    1       -1.645   1.465   0.863  0.00  0.00    +0.570 C 
ATOM      4  O   LIG    1       -2.345   2.009   1.694  0.00  0.00    -0.520 OA
ENDROOT
BRANCH   3   5
ATOM      5  C   LIG    1       -2.228   1.037  -0.428  0.00  0.00    +0.110 A 
ATOM      6  C   LIG    1       -3.549   1.377  -0.732  0.00  0.00    +0.040 A 
ATOM      7  C   LIG    1       -4.092   0.982  -1.926  0.00  0.00    +0.130 A 
ATOM      8  C   LIG    1       -3.295   0.244  -2.807  0.00  0.00    +0.030 A 
ATOM      9  N   LIG    1       -3.501  -0.292  -4.033  0.00  0.00    -0.490 NA
ATOM     10  C   LIG    1       -2.419  -0.895  -4.434  0.00  0.00    +0.520 A 
ATOM     11  N   LIG    1       -1.445  -0.787  -3.491  0.00  0.00    -0.590 N 
ATOM     12  H   LIG    1       -0.547  -1.150  -3.548  0.00  0.00    +0.430 HD
ATOM     13  C   LIG    1       -1.968  -0.066  -2.438  0.00  0.00    +0.230 A 
ATOM     14  N   LIG    1       -1.486   0.341  -1.280  0.00  0.00    -0.440 NA
ENDBRANCH   3   5
BRANCH   2  15
ATOM     15  C   LIG    1        0.213   1.572   2.435  0.00  0.00    +0.270 C 
BRANCH  15  16
ATOM     16  C   LIG    1        0.582   3.056   2.488  0.00  0.00    +0.170 C 
ATOM     17  C   LIG    1        1.734   3.346   1.504  0.00  0.00    +0.020 C 
ATOM     18  C   LIG    1        2.601   4.376   2.275  0.00  0.00    +0.030 C 
ATOM     19  C   LIG    1        2.459   3.874   3.734  0.00  0.00    +0.200 C 
ATOM     20  N   LIG    1        1.061   3.406   3.837  0.00  0.00    -0.460 N 
BRANCH  20  21
ATOM     21  C   LIG    1        0.962   2.319   4.699  0.00  0.00    +0.240 A 
ATOM     22  C   LIG    1       -0.207   2.107   5.429  0.00  0.00    +0.060 A 
ATOM     23  C   LIG    1       -0.255   1.009   6.273  0.00  0.00    +0.040 A 
ATOM     24  C   LIG    1        0.862   0.189   6.340  0.00  0.00    +0.200 A 
ATOM     25  N   LIG    1        1.927   0.464   5.614  0.00  0.00    -0.230 NA
ATOM     26  N   LIG    1        1.976   1.476   4.826  0.00  0.00    -0.280 NA
ENDBRANCH  20  21
ENDBRANCH  15  16
ENDBRANCH   2  15
TORSDOF 4
