REMARK  Name = ZINCpk00000y6uoT.1
REMARK                            x       y       z     vdW  Elec       q    Type
REMARK                         _______ _______ _______ _____ _____    ______ ____
ROOT
ATOM      1  C   LIG    1       -1.868   3.601   0.035  0.00  0.00    +0.300 C 
ATOM      2  N   LIG    1       -1.573   2.168  -0.046  0.00  0.00    -0.590 N 
ATOM      3  C   LIG    1       -2.258   1.387  -0.904  0.00  0.00    +0.560 C 
ATOM      4  O   LIG    1       -1.945   0.221  -1.045  0.00  0.00    -0.510 OA
ENDROOT
BRANCH   3   5
ATOM      5  C   LIG    1       -3.391   1.948  -1.674  0.00  0.00    +0.110 A 
ATOM      6  C   LIG    1       -3.353   3.273  -2.055  0.00  0.00    +0.010 A 
ATOM      7  C   LIG    1       -4.397   3.835  -2.785  0.00  0.00    +0.190 A 
ATOM      8  C   LIG    1       -5.488   3.040  -3.115  0.00  0.00    +0.020 A 
ATOM      9  N   LIG    1       -6.641   3.223  -3.779  0.00  0.00    -0.530 NA
ATOM     10  C   LIG    1       -7.306   2.087  -3.780  0.00  0.00    +0.480 A 
ATOM     11  N   LIG    1       -6.642   1.134  -3.137  0.00  0.00    -0.560 NA
ATOM     12  C   LIG    1       -5.498   1.634  -2.688  0.00  0.00    +0.240 A 
ATOM     13  N   LIG    1       -4.443   1.146  -1.982  0.00  0.00    -0.450 N 
ATOM     14  H   LIG    1       -4.442   0.219  -1.697  0.00  0.00    +0.430 HD
ENDBRANCH   3   5
BRANCH   2  15
ATOM     15  C   LIG    1       -0.533   1.585   0.806  0.00  0.00    +0.290 C 
BRANCH  15  16
ATOM     16  C   LIG    1       -1.177   0.980   2.054  0.00  0.00    +0.170 C 
ATOM     17  C   LIG    1       -1.736   2.102   2.954  0.00  0.00    +0.020 C 
ATOM     18  C   LIG    1       -1.412   1.592   4.386  0.00  0.00    +0.030 C 
ATOM     19  C   LIG    1       -0.051   0.885   4.169  0.00  0.00    +0.210 C 
ATOM     20  N   LIG    1       -0.163   0.251   2.838  0.00  0.00    -0.460 N 
BRANCH  20  21
ATOM     21  C   LIG    1        1.064   0.245   2.184  0.00  0.00    +0.230 A 
ATOM     22  C   LIG    1        1.445  -0.856   1.419  0.00  0.00    +0.060 A 
ATOM     23  C   LIG    1        2.675  -0.809   0.782  0.00  0.00    +0.050 A 
ATOM     24  C   LIG    1        3.456   0.325   0.954  0.00  0.00    +0.210 A 
ATOM     25  N   LIG    1        3.019   1.319   1.700  0.00  0.00    -0.230 NA
ATOM     26  N   LIG    1        1.879   1.285   2.289  0.00  0.00    -0.280 NA
ENDBRANCH  20  21
ENDBRANCH  15  16
ENDBRANCH   2  15
TORSDOF 4
