REMARK  Name = ZINCvU00000007D9.0
REMARK                            x       y       z     vdW  Elec       q    Type
REMARK                         _______ _______ _______ _____ _____    ______ ____
ROOT
ATOM      1  C   LIG    1        0.181   1.968   2.355  0.00  0.00    +0.290 A 
ATOM      2  N   LIG    1        1.115   2.869   2.265  0.00  0.00    -0.480 NA
ATOM      3  C   LIG    1        1.791   2.945   3.441  0.00  0.00    +0.050 A 
ATOM      4  C   LIG    1        2.861   3.723   3.889  0.00  0.00    +0.070 A 
ATOM      5  C   LIG    1        3.332   3.564   5.162  0.00  0.00    +0.000 A 
ATOM      6  C   LIG    1        2.756   2.638   6.020  0.00  0.00    +0.030 A 
ATOM      7  C   LIG    1        1.698   1.860   5.599  0.00  0.00    +0.010 A 
ATOM      8  C   LIG    1        1.207   2.006   4.309  0.00  0.00    +0.050 A 
ATOM      9  N   LIG    1        0.188   1.408   3.594  0.00  0.00    -0.480 N 
ENDROOT
BRANCH   1  12
ATOM     10  N   LIG    1       -0.759   1.590  -1.151  0.00  0.00    -0.620 N 
ATOM     11  C   LIG    1       -0.013   1.086   0.008  0.00  0.00    +0.290 C 
ATOM     12  C   LIG    1       -0.775   1.603   1.248  0.00  0.00    +0.090 C 
ATOM     13  C   LIG    1       -1.477   2.861   0.683  0.00  0.00    +0.090 C 
ATOM     14  C   LIG    1       -1.585   2.591  -0.802  0.00  0.00    +0.520 C 
ATOM     15  O   LIG    1       -2.311   3.191  -1.566  0.00  0.00    -0.520 OA
BRANCH  10  16
ATOM     16  C   LIG    1       -0.621   1.069  -2.513  0.00  0.00    +0.290 C 
BRANCH  16  17
ATOM     17  C   LIG    1       -1.622  -0.068  -2.728  0.00  0.00    -0.010 C 
BRANCH  17  19
ATOM     18  C   LIG    1       -2.478  -1.750  -4.366  0.00  0.00    +0.010 C 
ATOM     19  C   LIG    1       -1.478  -0.612  -4.151  0.00  0.00    +0.010 C 
ENDBRANCH  17  19
ENDBRANCH  16  17
ENDBRANCH  10  16
ENDBRANCH   1  12
BRANCH   9  20
ATOM     20  C   LIG    1       -0.715   0.362   4.080  0.00  0.00    +0.310 C 
BRANCH  20  21
ATOM     21  C   LIG    1       -0.108  -1.012   3.787  0.00  0.00    +0.020 C 
BRANCH  21  22
ATOM     22  C   LIG    1       -1.052  -2.104   4.294  0.00  0.00    +0.040 C 
BRANCH  22  23
ATOM     23  C   LIG    1       -0.445  -3.478   4.001  0.00  0.00    +0.180 C 
BRANCH  23  24
ATOM     24  O   LIG    1       -1.327  -4.499   4.475  0.00  0.00    -0.320 OA
BRANCH  24  25
ATOM     25  C   LIG    1       -0.934  -5.787   4.292  0.00  0.00    +0.130 A 
ATOM     26  C   LIG    1        0.272  -6.063   3.664  0.00  0.00    -0.090 A 
ATOM     27  C   LIG    1        0.671  -7.373   3.483  0.00  0.00    +0.050 A 
ATOM     28  C   LIG    1       -0.135  -8.409   3.918  0.00  0.00    -0.040 A 
ATOM     29  C   LIG    1       -1.340  -8.136   4.540  0.00  0.00    -0.050 A 
ATOM     30  C   LIG    1       -2.216  -9.268   5.013  0.00  0.00    +0.090 C 
ATOM     31  C   LIG    1       -1.741  -6.828   4.727  0.00  0.00    -0.020 A 
ENDBRANCH  24  25
ENDBRANCH  23  24
ENDBRANCH  22  23
ENDBRANCH  21  22
ENDBRANCH  20  21
ENDBRANCH   9  20
TORSDOF 10
