REMARK  Name = ZINCpe000000Yv8h.0
REMARK                            x       y       z     vdW  Elec       q    Type
REMARK                         _______ _______ _______ _____ _____    ______ ____
ROOT
ATOM      1  N   LIG    1        3.624  -0.595  -0.434  0.00  0.00    -0.710 N 
ATOM      2  H   LIG    1        4.452  -0.091  -0.411  0.00  0.00    +0.410 HD
ENDROOT
BRANCH   1   4
ATOM      3  C   LIG    1        2.383   1.433   0.029  0.00  0.00    -0.190 A 
ATOM      4  C   LIG    1        2.411   0.051  -0.221  0.00  0.00    +0.350 A 
ATOM      5  C   LIG    1        1.224  -0.666  -0.253  0.00  0.00    -0.090 A 
ATOM      6  C   LIG    1        0.018  -0.027  -0.041  0.00  0.00    +0.220 A 
ATOM      7  C   LIG    1       -0.023   1.333   0.205  0.00  0.00    -0.170 A 
ATOM      8  C   LIG    1        1.151   2.072   0.242  0.00  0.00    +0.370 A 
BRANCH   7   9
ATOM      9  N   LIG    1       -1.324   2.004   0.423  0.00  0.00    +0.060 N 
ATOM     10  O   LIG    1       -1.373   3.217   0.527  0.00  0.00    -0.200 OA
ATOM     11  O   LIG    1       -2.345   1.344   0.500  0.00  0.00    -0.170 OA
ENDBRANCH   7   9
BRANCH   8  12
ATOM     12  N   LIG    1        1.107   3.439   0.490  0.00  0.00    -0.840 N 
ATOM     13  H   LIG    1        1.819   4.014   0.167  0.00  0.00    +0.410 HD
ATOM     14  H   LIG    1        0.365   3.818   0.987  0.00  0.00    +0.420 HD
ENDBRANCH   8  12
BRANCH   3  16
ATOM     15  N   LIG    1        4.568   2.781   0.092  0.00  0.00    -0.410 NA
ATOM     16  C   LIG    1        3.602   2.185   0.064  0.00  0.00    +0.260 C 
ENDBRANCH   3  16
ENDBRANCH   1   4
BRANCH   1  17
ATOM     17  C   LIG    1        3.650  -2.037  -0.695  0.00  0.00    +0.240 C 
ATOM     18  C   LIG    1        3.651  -2.796   0.635  0.00  0.00    +0.050 C 
ATOM     19  C   LIG    1        3.741  -4.299   0.358  0.00  0.00    +0.210 C 
ATOM     20  N   LIG    1        4.969  -4.588  -0.394  0.00  0.00    -0.460 N 
ATOM     21  C   LIG    1        4.967  -3.906  -1.695  0.00  0.00    +0.240 C 
ATOM     22  C   LIG    1        4.915  -2.392  -1.479  0.00  0.00    +0.040 C 
BRANCH  20  23
ATOM     23  C   LIG    1        5.146  -5.950  -0.549  0.00  0.00    +0.480 A 
ATOM     24  N   LIG    1        5.291  -6.587  -1.692  0.00  0.00    -0.590 NA
ATOM     25  C   LIG    1        5.443  -7.896  -1.461  0.00  0.00    +0.490 A 
ATOM     26  N   LIG    1        5.387  -8.110  -0.169  0.00  0.00    -0.370 NA
ATOM     27  N   LIG    1        5.195  -6.862   0.445  0.00  0.00    -0.490 N 
ATOM     28  H   LIG    1        5.114  -6.689   1.396  0.00  0.00    +0.440 HD
BRANCH  25  29
ATOM     29  N   LIG    1        5.624  -8.876  -2.438  0.00  0.00    -0.820 N 
ATOM     30  H   LIG    1        5.652  -8.627  -3.375  0.00  0.00    +0.420 HD
ATOM     31  H   LIG    1        5.722  -9.806  -2.180  0.00  0.00    +0.420 HD
ENDBRANCH  25  29
ENDBRANCH  20  23
ENDBRANCH   1  17
TORSDOF 7
