REMARK  Name = ZINCpk000000pNcO.0
REMARK                            x       y       z     vdW  Elec       q    Type
REMARK                         _______ _______ _______ _____ _____    ______ ____
ROOT
ATOM      1  N   LIG    1       -1.449  -0.497  -0.064  0.00  0.00    -0.740 N 
ATOM      2  H   LIG    1       -2.352  -0.145  -0.017  0.00  0.00    +0.400 HD
ATOM      3  C   LIG    1       -0.411   0.337  -0.269  0.00  0.00    +0.710 C 
ATOM      4  N   LIG    1       -0.614   1.669  -0.310  0.00  0.00    -0.630 N 
ATOM      5  C   LIG    1       -1.972   2.230  -0.248  0.00  0.00    +0.250 C 
ATOM      6  C   LIG    1       -2.138   3.224  -1.403  0.00  0.00    +0.150 C 
ATOM      7  O   LIG    1       -1.061   4.163  -1.375  0.00  0.00    -0.350 OA
ATOM      8  C   LIG    1        0.230   3.579  -1.565  0.00  0.00    +0.150 C 
ATOM      9  C   LIG    1       -3.468   3.966  -1.252  0.00  0.00    +0.070 C 
ATOM     10  C   LIG    1        0.518   2.604  -0.412  0.00  0.00    +0.300 C 
ATOM     11  O   LIG    1        0.709  -0.113  -0.417  0.00  0.00    -0.580 OA
ENDROOT
BRANCH   8  12
ATOM     12  C   LIG    1        1.276   4.664  -1.578  0.00  0.00    +0.530 C 
ATOM     13  O   LIG    1        0.962   5.812  -1.347  0.00  0.00    -0.510 OA
ATOM     14  N   LIG    1        2.561   4.358  -1.845  0.00  0.00    -0.850 N 
ATOM     15  H   LIG    1        3.234   5.056  -1.853  0.00  0.00    +0.410 HD
ATOM     16  H   LIG    1        2.812   3.439  -2.030  0.00  0.00    +0.400 HD
ENDBRANCH   8  12
BRANCH   1  17
ATOM     17  C   LIG    1       -1.215  -1.935   0.090  0.00  0.00    +0.310 C 
BRANCH  17  18
ATOM     18  C   LIG    1       -2.551  -2.649   0.310  0.00  0.00    +0.160 C 
BRANCH  18  20
ATOM     19  C   LIG    1       -3.648  -4.879   0.565  0.00  0.00    +0.020 C 
ATOM     20  C   LIG    1       -2.306  -4.151   0.470  0.00  0.00    +0.020 C 
ENDBRANCH  18  20
BRANCH  18  21
ATOM     21  O   LIG    1       -3.174  -2.139   1.490  0.00  0.00    -0.300 OA
BRANCH  21  22
ATOM     22  C   LIG    1       -4.531  -2.059   1.486  0.00  0.00    +0.130 A 
ATOM     23  C   LIG    1       -5.243  -2.401   0.346  0.00  0.00    -0.090 A 
ATOM     24  C   LIG    1       -6.622  -2.318   0.344  0.00  0.00    +0.040 A 
ATOM     25  C   LIG    1       -7.292  -1.896   1.478  0.00  0.00    -0.040 A 
ATOM     26  C   LIG    1       -6.584  -1.555   2.615  0.00  0.00    -0.040 A 
ATOM     27  C   LIG    1       -7.317  -1.094   3.849  0.00  0.00    +0.090 C 
ATOM     28  C   LIG    1       -5.206  -1.641   2.624  0.00  0.00    -0.030 A 
ENDBRANCH  21  22
ENDBRANCH  18  21
ENDBRANCH  17  18
ENDBRANCH   1  17
TORSDOF 6
