REMARK  Name = ZINCpe00000VVGnk.0
REMARK                            x       y       z     vdW  Elec       q    Type
REMARK                         _______ _______ _______ _____ _____    ______ ____
ROOT
ATOM      1  N   LIG    1       -1.570  -0.036  -0.277  0.00  0.00    -0.530 NA
ATOM      2  C   LIG    1       -2.417   0.249  -1.444  0.00  0.00    +0.200 C 
ATOM      3  C   LIG    1       -3.685  -0.604  -1.372  0.00  0.00    +0.200 C 
ATOM      4  N   LIG    1       -4.400  -0.310  -0.122  0.00  0.00    -0.520 NA
ATOM      5  C   LIG    1       -3.553  -0.595   1.045  0.00  0.00    +0.200 C 
ATOM      6  C   LIG    1       -2.285   0.258   0.973  0.00  0.00    +0.180 C 
ENDROOT
BRANCH   1   7
ATOM      7  C   LIG    1       -0.306   0.709  -0.349  0.00  0.00    +0.270 C 
ATOM      8  C   LIG    1        0.459   0.294  -1.607  0.00  0.00    +0.080 C 
BRANCH   7  13
ATOM      9  C   LIG    1        2.615   1.086   3.701  0.00  0.00    +0.210 C 
ATOM     10  C   LIG    1        1.761   0.547   2.582  0.00  0.00    +0.170 A 
ATOM     11  N   LIG    1        1.475  -0.701   2.365  0.00  0.00    -0.390 NA
ATOM     12  O   LIG    1        0.767  -0.806   1.386  0.00  0.00    +0.090 OA
ATOM     13  C   LIG    1        0.527   0.403   0.869  0.00  0.00    +0.190 A 
ATOM     14  N   LIG    1        1.160   1.271   1.620  0.00  0.00    -0.480 NA
ENDBRANCH   7  13
ENDBRANCH   1   7
BRANCH   4  15
ATOM     15  C   LIG    1       -5.664  -1.055  -0.051  0.00  0.00    +0.180 C 
ATOM     16  C   LIG    1       -5.375  -2.518   0.289  0.00  0.00    +0.040 C 
BRANCH  15  17
ATOM     17  C   LIG    1       -6.540  -0.455   1.019  0.00  0.00    +0.520 C 
ATOM     18  N   LIG    1       -7.852  -0.762   1.065  0.00  0.00    -0.640 N 
ATOM     19  H   LIG    1       -8.232  -1.369   0.411  0.00  0.00    +0.420 HD
ATOM     20  O   LIG    1       -6.066   0.304   1.837  0.00  0.00    -0.450 OA
BRANCH  18  21
ATOM     21  C   LIG    1       -8.660  -0.209   2.051  0.00  0.00    +0.540 A 
ATOM     22  N   LIG    1       -8.124   0.613   2.940  0.00  0.00    -0.500 NA
ATOM     23  C   LIG    1       -8.866   1.161   3.888  0.00  0.00    +0.350 A 
ATOM     24  C   LIG    1      -10.217   0.855   3.951  0.00  0.00    -0.110 A 
ATOM     25  C   LIG    1      -10.743  -0.013   3.008  0.00  0.00    +0.350 A 
ATOM     26  N   LIG    1       -9.946  -0.521   2.083  0.00  0.00    -0.550 NA
ENDBRANCH  18  21
ENDBRANCH  15  17
ENDBRANCH   4  15
TORSDOF 5
