REMARK  Name = ZINCqH0000003rkB.0
REMARK                            x       y       z     vdW  Elec       q    Type
REMARK                         _______ _______ _______ _____ _____    ______ ____
ROOT
ATOM      1  C   LIG    1       -7.314   6.919   4.102  0.00  0.00    -0.210 A 
ATOM      2  C   LIG    1       -6.181   6.209   4.132  0.00  0.00    +0.130 A 
ATOM      3  C   LIG    1       -5.931   5.420   2.998  0.00  0.00    -0.040 A 
ATOM      4  C   LIG    1       -4.830   4.569   2.736  0.00  0.00    -0.020 A 
ATOM      5  C   LIG    1       -4.760   3.868   1.555  0.00  0.00    +0.220 A 
ATOM      6  C   LIG    1       -5.769   3.992   0.600  0.00  0.00    -0.020 A 
ATOM      7  C   LIG    1       -6.847   4.809   0.837  0.00  0.00    +0.090 A 
ATOM      8  C   LIG    1       -6.939   5.531   2.032  0.00  0.00    -0.180 A 
ATOM      9  S   LIG    1       -8.180   6.642   2.601  0.00  0.00    +0.160 S 
ENDROOT
BRANCH   1  10
ATOM     10  C   LIG    1       -7.771   7.809   5.178  0.00  0.00    +0.540 C 
ATOM     11  O   LIG    1       -7.101   7.939   6.184  0.00  0.00    -0.490 OA
BRANCH  10  12
ATOM     12  O   LIG    1       -8.932   8.481   5.049  0.00  0.00    -0.350 OA
BRANCH  12  14
ATOM     13  C   LIG    1      -10.655  10.017   5.826  0.00  0.00    +0.070 C 
ATOM     14  C   LIG    1       -9.321   9.342   6.151  0.00  0.00    +0.200 C 
ENDBRANCH  12  14
ENDBRANCH  10  12
ENDBRANCH   1  10
BRANCH   5  15
ATOM     15  N   LIG    1       -3.667   3.030   1.307  0.00  0.00    -0.740 N 
ATOM     16  H   LIG    1       -2.961   2.945   1.968  0.00  0.00    +0.410 HD
BRANCH  15  17
ATOM     17  C   LIG    1       -3.587   2.281   0.050  0.00  0.00    +0.360 C 
BRANCH  17  18
ATOM     18  C   LIG    1       -2.323   1.461   0.033  0.00  0.00    +0.190 A 
ATOM     19  C   LIG    1       -2.385   0.084   0.026  0.00  0.00    -0.110 A 
ATOM     20  C   LIG    1       -1.199  -0.653   0.010  0.00  0.00    +0.530 A 
ATOM     21  N   LIG    1        0.002  -0.004   0.002  0.00  0.00    -0.470 N 
ATOM     22  C   LIG    1        1.250  -0.576  -0.013  0.00  0.00    +0.240 A 
ATOM     23  C   LIG    1        2.314   0.208  -0.019  0.00  0.00    +0.020 A 
ATOM     24  S   LIG    1        1.682   1.864  -0.004  0.00  0.00    +0.190 S 
ATOM     25  C   LIG    1       -0.016   1.357   0.009  0.00  0.00    +0.310 A 
ATOM     26  O   LIG    1       -1.236  -1.873   0.004  0.00  0.00    -0.520 OA
ATOM     27  N   LIG    1       -1.136   2.056   0.029  0.00  0.00    -0.500 NA
ENDBRANCH  17  18
ENDBRANCH  15  17
ENDBRANCH   5  15
TORSDOF 6
