REMARK  Name = ZINCrH000004r1C7.0
REMARK                            x       y       z     vdW  Elec       q    Type
REMARK                         _______ _______ _______ _____ _____    ______ ____
ROOT
ATOM      1  N   LIG    1        2.238   3.853  -0.229  0.00  0.00    -0.310 N 
ATOM      2  N   LIG    1        3.421   3.322   0.297  0.00  0.00    -0.290 NA
ATOM      3  C   LIG    1        4.393   4.167   0.089  0.00  0.00    +0.290 A 
ATOM      4  C   LIG    1        3.860   5.292  -0.581  0.00  0.00    -0.280 A 
ATOM      5  C   LIG    1        2.512   5.058  -0.761  0.00  0.00    +0.190 A 
ENDROOT
BRANCH   1  10
ATOM      6  C   LIG    1       -2.861   1.361  -0.125  0.00  0.00    +0.120 C 
ATOM      7  C   LIG    1       -1.506   2.021  -0.150  0.00  0.00    -0.070 A 
ATOM      8  C   LIG    1       -1.391   3.368   0.140  0.00  0.00    +0.050 A 
ATOM      9  C   LIG    1       -0.151   3.978   0.113  0.00  0.00    +0.040 A 
ATOM     10  C   LIG    1        0.980   3.236  -0.200  0.00  0.00    +0.150 A 
ATOM     11  C   LIG    1        0.862   1.883  -0.486  0.00  0.00    +0.050 A 
ATOM     12  C   LIG    1       -0.380   1.278  -0.458  0.00  0.00    -0.030 A 
ATOM     13 CL   LIG    1       -0.529  -0.415  -0.815  0.00  0.00    -0.050 Cl
ENDBRANCH   1  10
BRANCH   4  14
ATOM     14  C   LIG    1        4.605   6.490  -1.007  0.00  0.00    +0.600 C 
ATOM     15  N   LIG    1        5.638   6.940  -0.268  0.00  0.00    -0.610 N 
ATOM     16  C   LIG    1        5.954   6.304   1.013  0.00  0.00    +0.280 C 
ATOM     17  O   LIG    1        4.287   7.073  -2.026  0.00  0.00    -0.530 OA
BRANCH  15  18
ATOM     18  C   LIG    1        6.446   8.066  -0.746  0.00  0.00    +0.370 C 
BRANCH  18  19
ATOM     19  C   LIG    1        5.853   9.357  -0.245  0.00  0.00    -0.260 A 
ATOM     20  C   LIG    1        6.160   9.976   0.919  0.00  0.00    +0.240 A 
ATOM     21  N   LIG    1        5.415  11.099   0.997  0.00  0.00    -0.380 N 
ATOM     22  N   LIG    1        4.625  11.173  -0.157  0.00  0.00    -0.300 NA
ATOM     23  C   LIG    1        5.432  12.070   2.094  0.00  0.00    +0.360 C 
ATOM     24  C   LIG    1        4.892  10.132  -0.903  0.00  0.00    +0.250 A 
ENDBRANCH  18  19
ENDBRANCH  15  18
ENDBRANCH   4  14
BRANCH   5  25
ATOM     25  C   LIG    1        1.527   5.982  -1.430  0.00  0.00    +0.010 C 
ATOM     26  C   LIG    1        0.576   5.373  -2.462  0.00  0.00    +0.010 C 
ATOM     27  C   LIG    1        1.729   6.271  -2.919  0.00  0.00    +0.080 C 
ENDBRANCH   5  25
TORSDOF 5
