REMARK  Name = ZINCb80000006kYP.0
REMARK                            x       y       z     vdW  Elec       q    Type
REMARK                         _______ _______ _______ _____ _____    ______ ____
ROOT
ATOM      1  O   LIG    1        3.375   0.573  -0.027  0.00  0.00    -0.480 OA
ATOM      2  C   LIG    1        2.160   0.608  -0.015  0.00  0.00    +0.580 A 
ATOM      3  N   LIG    1        1.327  -0.453  -0.013  0.00  0.00    -0.500 N 
ATOM      4  H   LIG    1        1.604  -1.383  -0.021  0.00  0.00    +0.450 HD
ATOM      5  N   LIG    1        0.002  -0.004   0.002  0.00  0.00    -0.490 N 
ATOM      6  H   LIG    1       -0.782  -0.575   0.006  0.00  0.00    +0.450 HD
ATOM      7  C   LIG    1       -0.017   1.374   0.010  0.00  0.00    +0.210 A 
ATOM      8  C   LIG    1       -1.028   2.332   0.029  0.00  0.00    +0.010 A 
ATOM      9  C   LIG    1       -0.650   3.664   0.029  0.00  0.00    +0.170 A 
ATOM     10  N   LIG    1        0.633   3.994   0.018  0.00  0.00    -0.260 NA
ATOM     11  N   LIG    1        1.574   3.120   0.004  0.00  0.00    -0.110 NA
ATOM     12 CL   LIG    1       -1.863   4.906   0.048  0.00  0.00    +0.020 Cl
ATOM     13  C   LIG    1        1.318   1.821  -0.001  0.00  0.00    -0.070 A 
ENDROOT
TORSDOF 0
