REMARK  Name = ZINCpk000005aRlc.0
REMARK                            x       y       z     vdW  Elec       q    Type
REMARK                         _______ _______ _______ _____ _____    ______ ____
ROOT
ATOM      1  S   LIG    1        1.068   5.895  -0.250  0.00  0.00    +2.690 S 
ATOM      2  O   LIG    1        1.779   5.270   0.809  0.00  0.00    -0.920 OA
ATOM      3  O   LIG    1        0.790   7.288  -0.285  0.00  0.00    -0.930 OA
ENDROOT
BRANCH   1   4
ATOM      4  C   LIG    1        1.953   5.528  -1.729  0.00  0.00    -0.690 A 
ATOM      5  C   LIG    1        2.280   6.541  -2.605  0.00  0.00    +0.180 A 
ATOM      6  C   LIG    1        2.986   6.249  -3.773  0.00  0.00    -0.140 A 
ATOM      7  C   LIG    1        3.349   4.930  -4.052  0.00  0.00    +0.170 A 
ATOM      8  C   LIG    1        3.012   3.924  -3.171  0.00  0.00    +0.030 A 
ATOM      9  C   LIG    1        2.316   4.221  -2.011  0.00  0.00    +0.080 A 
ATOM     10 CL   LIG    1        1.895   2.949  -0.907  0.00  0.00    -0.030 Cl
BRANCH   6  11
ATOM     11  C   LIG    1        3.344   7.331  -4.714  0.00  0.00    +0.560 C 
ATOM     12  N   LIG    1        3.639   8.560  -4.247  0.00  0.00    -0.610 N 
ATOM     13  C   LIG    1        3.722   8.794  -2.803  0.00  0.00    +0.300 C 
ATOM     14  C   LIG    1        3.877   9.662  -5.182  0.00  0.00    +0.300 C 
ATOM     15  O   LIG    1        3.372   7.113  -5.910  0.00  0.00    -0.520 OA
ENDBRANCH   6  11
ENDBRANCH   1   4
BRANCH   1  16
ATOM     16  N   LIG    1       -0.394   5.124  -0.351  0.00  0.00    -1.020 N 
ATOM     17  H   LIG    1       -0.631   4.446   0.301  0.00  0.00    +0.440 HD
BRANCH  16  22
ATOM     18  N   LIG    1       -3.332   5.088  -2.542  0.00  0.00    -0.510 N 
ATOM     19  C   LIG    1       -2.997   6.103  -3.366  0.00  0.00    +0.560 A 
ATOM     20  N   LIG    1       -1.883   6.767  -3.217  0.00  0.00    -0.500 NA
ATOM     21  C   LIG    1       -1.016   6.471  -2.244  0.00  0.00    +0.250 A 
ATOM     22  C   LIG    1       -1.290   5.451  -1.377  0.00  0.00    +0.010 A 
ATOM     23  C   LIG    1       -2.499   4.731  -1.540  0.00  0.00    +0.520 A 
ATOM     24  O   LIG    1       -2.785   3.813  -0.790  0.00  0.00    -0.520 OA
BRANCH  18  26
ATOM     25  C   LIG    1       -4.368   3.190  -3.683  0.00  0.00    +0.030 C 
ATOM     26  C   LIG    1       -4.594   4.371  -2.737  0.00  0.00    +0.300 C 
ENDBRANCH  18  26
ENDBRANCH  16  22
ENDBRANCH   1  16
TORSDOF 5
