REMARK  Name = ZINCqH0000001i96.0
REMARK                            x       y       z     vdW  Elec       q    Type
REMARK                         _______ _______ _______ _____ _____    ______ ____
ROOT
ATOM      1  N   LIG    1        3.769   1.842  -5.119  0.00  0.00    -0.670 N 
ATOM      2  H   LIG    1        4.402   1.437  -4.505  0.00  0.00    +0.410 HD
ATOM      3  C   LIG    1        2.654   2.433  -4.645  0.00  0.00    +0.520 C 
ATOM      4  O   LIG    1        1.902   3.006  -5.404  0.00  0.00    -0.510 OA
ENDROOT
BRANCH   3   5
ATOM      5  C   LIG    1        2.343   2.383  -3.171  0.00  0.00    +0.000 C 
ATOM      6  C   LIG    1        1.032   3.125  -2.901  0.00  0.00    +0.060 C 
ATOM      7  C   LIG    1        0.737   3.101  -1.398  0.00  0.00    +0.300 C 
ATOM      8  N   LIG    1        0.747   1.707  -0.936  0.00  0.00    -0.630 N 
ATOM      9  C   LIG    1        1.926   0.877  -1.219  0.00  0.00    +0.270 C 
ATOM     10  C   LIG    1       -0.303   1.199  -0.261  0.00  0.00    +0.710 C 
ATOM     11  N   LIG    1       -0.145   0.102   0.505  0.00  0.00    -0.640 N 
ATOM     12  C   LIG    1        1.191  -0.461   0.712  0.00  0.00    +0.280 C 
ATOM     13  C   LIG    1       -1.310  -0.528   1.131  0.00  0.00    +0.300 C 
ATOM     14  O   LIG    1       -1.394   1.729  -0.347  0.00  0.00    -0.580 OA
ATOM     15  C   LIG    1        2.206   0.924  -2.729  0.00  0.00    +0.030 C 
ENDBRANCH   3   5
BRANCH   1  19
ATOM     16  C   LIG    1        4.496   1.752  -9.225  0.00  0.00    +0.130 A 
ATOM     17  C   LIG    1        3.877   2.854  -8.654  0.00  0.00    -0.040 A 
ATOM     18  C   LIG    1        3.636   2.884  -7.294  0.00  0.00    +0.080 A 
ATOM     19  C   LIG    1        4.013   1.811  -6.498  0.00  0.00    +0.120 A 
ATOM     20  C   LIG    1        4.637   0.710  -7.069  0.00  0.00    +0.040 A 
ATOM     21  C   LIG    1        4.873   0.678  -8.430  0.00  0.00    -0.050 A 
ATOM     22 CL   LIG    1        5.648  -0.701  -9.145  0.00  0.00    -0.050 Cl
BRANCH  16  23
ATOM     23  O   LIG    1        4.733   1.723 -10.563  0.00  0.00    -0.300 OA
BRANCH  23  24
ATOM     24  C   LIG    1        4.319   2.862 -11.320  0.00  0.00    +0.190 C 
BRANCH  24  26
ATOM     25  C   LIG    1        3.852   1.477 -13.347  0.00  0.00    +0.020 C 
ATOM     26  C   LIG    1        4.667   2.649 -12.795  0.00  0.00    -0.010 C 
ATOM     27  C   LIG    1        4.337   3.917 -13.586  0.00  0.00    +0.040 C 
ENDBRANCH  24  26
ENDBRANCH  23  24
ENDBRANCH  16  23
ENDBRANCH   1  19
TORSDOF 5
