REMARK  Name = ZINCpk000000mQAa.0
REMARK                            x       y       z     vdW  Elec       q    Type
REMARK                         _______ _______ _______ _____ _____    ______ ____
ROOT
ATOM      1  C   LIG    1       -0.852  -0.144   1.228  0.00  0.00    +0.530 C 
ATOM      2  N   LIG    1       -0.117   0.332   0.203  0.00  0.00    -0.610 N 
ATOM      3  C   LIG    1       -0.112   1.768  -0.110  0.00  0.00    +0.280 C 
ATOM      4  C   LIG    1        1.338   2.259  -0.146  0.00  0.00    +0.010 C 
ATOM      5  C   LIG    1        2.140   1.399  -1.125  0.00  0.00    +0.020 C 
ATOM      6  C   LIG    1        2.135  -0.056  -0.651  0.00  0.00    -0.000 C 
ATOM      7  C   LIG    1        0.693  -0.574  -0.621  0.00  0.00    +0.260 C 
ATOM      8  O   LIG    1       -1.517   0.614   1.902  0.00  0.00    -0.530 OA
ENDROOT
BRANCH   5   9
ATOM      9  C   LIG    1        3.581   1.909  -1.190  0.00  0.00    +0.240 C 
ATOM     10  C   LIG    1        4.345   1.156  -2.307  0.00  0.00    +0.020 C 
ATOM     11  C   LIG    1        5.787   1.429  -2.213  0.00  0.00    +0.000 C 
ATOM     12  C   LIG    1        6.165   2.893  -2.418  0.00  0.00    +0.000 C 
ATOM     13  C   LIG    1        6.035   3.631  -1.108  0.00  0.00    +0.020 C 
ATOM     14  C   LIG    1        4.627   4.241  -0.982  0.00  0.00    +0.260 C 
ATOM     15  N   LIG    1        3.578   3.326  -1.475  0.00  0.00    -0.600 N 
ATOM     16  C   LIG    1        2.577   3.833  -2.221  0.00  0.00    +0.510 C 
ATOM     17  O   LIG    1        1.672   3.114  -2.590  0.00  0.00    -0.530 OA
ATOM     18  C   LIG    1        2.581   5.292  -2.596  0.00  0.00    +0.080 C 
ENDBRANCH   5   9
BRANCH   1  23
ATOM     19  C   LIG    1       -2.990  -5.331   1.077  0.00  0.00    +0.100 C 
ATOM     20  C   LIG    1       -2.655  -4.380   2.198  0.00  0.00    +0.530 C 
ATOM     21  N   LIG    1       -2.160  -3.158   1.919  0.00  0.00    -0.650 N 
ATOM     22  C   LIG    1       -1.734  -2.005   2.735  0.00  0.00    +0.320 C 
ATOM     23  C   LIG    1       -0.847  -1.619   1.537  0.00  0.00    -0.020 C 
ATOM     24  C   LIG    1       -1.827  -2.436   0.676  0.00  0.00    +0.300 C 
ATOM     25  O   LIG    1       -2.832  -4.715   3.350  0.00  0.00    -0.540 OA
ENDBRANCH   1  23
TORSDOF 2
