REMARK  Name = ZINCpk00001AZiV2.0
REMARK                            x       y       z     vdW  Elec       q    Type
REMARK                         _______ _______ _______ _____ _____    ______ ____
ROOT
ATOM      1  O   LIG    1        3.567   3.443   0.066  0.00  0.00    -0.510 OA
ATOM      2  C   LIG    1        2.887   4.449  -0.001  0.00  0.00    +0.590 C 
ATOM      3  N   LIG    1        3.477   5.656  -0.102  0.00  0.00    -0.620 N 
ATOM      4  C   LIG    1        4.938   5.775  -0.226  0.00  0.00    +0.320 C 
ATOM      5  C   LIG    1        5.282   6.396  -1.585  0.00  0.00    +0.300 C 
ATOM      6  N   LIG    1        4.410   7.545  -1.821  0.00  0.00    -0.470 N 
ATOM      7  C   LIG    1        3.234   7.789  -1.171  0.00  0.00    +0.160 A 
ATOM      8  N   LIG    1        2.740   8.888  -1.652  0.00  0.00    -0.270 NA
ATOM      9  N   LIG    1        3.525   9.361  -2.558  0.00  0.00    -0.280 NA
ATOM     10  C   LIG    1        4.571   8.572  -2.700  0.00  0.00    +0.260 A 
ATOM     11  C   LIG    1        2.675   6.894  -0.097  0.00  0.00    +0.420 C 
ENDROOT
BRANCH   2  12
ATOM     12  C   LIG    1        1.419   4.347   0.028  0.00  0.00    -0.180 A 
ATOM     13  C   LIG    1        0.663   5.127   0.890  0.00  0.00    +0.330 A 
ATOM     14  N   LIG    1       -0.657   5.050   0.932  0.00  0.00    -0.520 NA
ATOM     15  C   LIG    1       -1.377   4.251   0.184  0.00  0.00    +0.430 A 
ATOM     16  C   LIG    1       -0.768   3.391  -0.747  0.00  0.00    -0.280 A 
ATOM     17  C   LIG    1       -1.205   2.455  -1.667  0.00  0.00    +0.340 A 
ATOM     18  N   LIG    1       -0.128   1.945  -2.275  0.00  0.00    -0.420 N 
ATOM     19  H   LIG    1       -0.149   1.264  -2.966  0.00  0.00    +0.450 HD
ATOM     20  N   LIG    1        1.035   2.543  -1.773  0.00  0.00    -0.290 NA
ATOM     21  C   LIG    1        0.703   3.417  -0.854  0.00  0.00    +0.150 A 
ENDBRANCH   2  12
BRANCH  10  22
ATOM     22  C   LIG    1        5.701   8.765  -3.635  0.00  0.00    -0.120 A 
ATOM     23  C   LIG    1        6.909   8.140  -3.602  0.00  0.00    +0.190 A 
ATOM     24  O   LIG    1        7.648   8.593  -4.625  0.00  0.00    -0.170 OA
ATOM     25  C   LIG    1        6.970   9.510  -5.332  0.00  0.00    +0.180 A 
ATOM     26  C   LIG    1        5.755   9.675  -4.786  0.00  0.00    -0.010 A 
ENDBRANCH  10  22
TORSDOF 2
