REMARK  Name = ZINCrH000004vB3R.0
REMARK                            x       y       z     vdW  Elec       q    Type
REMARK                         _______ _______ _______ _____ _____    ______ ____
ROOT
ATOM      1  O   LIG    1       -2.349   1.502  -0.085  0.00  0.00    -0.520 OA
ATOM      2  C   LIG    1       -1.305   2.116   0.020  0.00  0.00    +0.560 C 
ATOM      3  N   LIG    1       -1.322   3.460   0.129  0.00  0.00    -0.610 N 
ATOM      4  C   LIG    1       -0.070   4.233   0.129  0.00  0.00    +0.220 C 
ATOM      5  C   LIG    1       -0.189   5.351  -0.912  0.00  0.00    +0.220 C 
ATOM      6  N   LIG    1       -1.403   6.135  -0.648  0.00  0.00    -0.670 NA
ATOM      7  H   LIG    1       -1.366   6.563   0.264  0.00  0.00    +0.340 HD
ATOM      8  C   LIG    1       -2.611   5.311  -0.795  0.00  0.00    +0.220 C 
ATOM      9  C   LIG    1       -2.592   4.192   0.245  0.00  0.00    +0.250 C 
ENDROOT
BRANCH   8  10
ATOM     10  C   LIG    1       -3.832   6.170  -0.591  0.00  0.00    -0.090 A 
ATOM     11  C   LIG    1       -3.841   7.133   0.401  0.00  0.00    +0.030 A 
ATOM     12  C   LIG    1       -4.957   7.925   0.587  0.00  0.00    -0.010 A 
ATOM     13  C   LIG    1       -6.075   7.746  -0.216  0.00  0.00    +0.110 A 
ATOM     14  C   LIG    1       -6.065   6.776  -1.207  0.00  0.00    -0.010 A 
ATOM     15  C   LIG    1       -4.944   5.990  -1.392  0.00  0.00    +0.040 A 
BRANCH  13  16
ATOM     16  O   LIG    1       -7.176   8.521  -0.032  0.00  0.00    -0.500 OA
ATOM     17  H   LIG    1       -7.814   8.155   0.596  0.00  0.00    +0.390 HD
ENDBRANCH  13  16
ENDBRANCH   8  10
BRANCH   2  18
ATOM     18  C   LIG    1       -0.018   1.390   0.027  0.00  0.00    -0.110 A 
ATOM     19  C   LIG    1        0.175   0.296  -0.818  0.00  0.00    +0.080 A 
ATOM     20  C   LIG    1        1.377  -0.380  -0.803  0.00  0.00    +0.050 A 
ATOM     21  C   LIG    1        2.390   0.023   0.049  0.00  0.00    -0.130 A 
ATOM     22  C   LIG    1        2.206   1.106   0.890  0.00  0.00    +0.050 A 
ATOM     23  C   LIG    1        1.008   1.791   0.884  0.00  0.00    +0.050 A 
BRANCH  21  24
ATOM     24  C   LIG    1        3.701  -0.721   0.061  0.00  0.00    +0.250 C 
ATOM     25  F   LIG    1        3.464  -2.080   0.297  0.00  0.00    -0.170 F 
BRANCH  24  26
ATOM     26  C   LIG    1        4.396  -0.552  -1.292  0.00  0.00    +0.440 C 
ATOM     27  F   LIG    1        3.577  -1.065  -2.303  0.00  0.00    -0.170 F 
ATOM     28  F   LIG    1        5.612  -1.243  -1.280  0.00  0.00    -0.170 F 
ATOM     29  F   LIG    1        4.633   0.806  -1.527  0.00  0.00    -0.170 F 
ENDBRANCH  24  26
ENDBRANCH  21  24
ENDBRANCH   2  18
TORSDOF 5
