REMARK  Name = ZINCrD000000gSh9.0
REMARK                            x       y       z     vdW  Elec       q    Type
REMARK                         _______ _______ _______ _____ _____    ______ ____
ROOT
ATOM      1  C   LIG    1       -0.176  10.353  -3.937  0.00  0.00    +0.570 C 
ATOM      2  N   LIG    1       -0.156   9.614  -2.810  0.00  0.00    -0.720 N 
ATOM      3  H   LIG    1       -0.153  10.050  -1.944  0.00  0.00    +0.410 HD
ATOM      4  O   LIG    1       -0.179   9.807  -5.022  0.00  0.00    -0.530 OA
ENDROOT
BRANCH   1   8
ATOM      5  C   LIG    1       -0.233  14.594  -3.694  0.00  0.00    -0.040 A 
ATOM      6  C   LIG    1       -0.236  13.975  -4.931  0.00  0.00    +0.010 A 
ATOM      7  C   LIG    1       -0.217  12.598  -5.017  0.00  0.00    +0.090 A 
ATOM      8  C   LIG    1       -0.196  11.829  -3.852  0.00  0.00    -0.140 A 
ATOM      9  C   LIG    1       -0.198  12.460  -2.607  0.00  0.00    +0.050 A 
ATOM     10  C   LIG    1       -0.212  13.838  -2.535  0.00  0.00    +0.000 A 
BRANCH   5  12
ATOM     11  C   LIG    1       -1.518  16.630  -4.287  0.00  0.00    +0.040 C 
ATOM     12  C   LIG    1       -0.254  16.098  -3.607  0.00  0.00    -0.040 C 
ATOM     13  C   LIG    1        0.980  16.667  -4.310  0.00  0.00    +0.040 C 
ATOM     14  C   LIG    1       -0.247  16.525  -2.138  0.00  0.00    +0.030 C 
ENDBRANCH   5  12
ENDBRANCH   1   8
BRANCH   2  15
ATOM     15  C   LIG    1       -0.137   8.152  -2.894  0.00  0.00    +0.370 C 
BRANCH  15  16
ATOM     16  C   LIG    1       -0.115   7.569  -1.504  0.00  0.00    +0.460 C 
ATOM     17  O   LIG    1       -0.116   8.300  -0.542  0.00  0.00    -0.500 OA
BRANCH  16  18
ATOM     18  O   LIG    1       -0.096   6.238  -1.335  0.00  0.00    -0.340 OA
BRANCH  18  19
ATOM     19  C   LIG    1       -0.076   5.747   0.032  0.00  0.00    +0.280 C 
BRANCH  19  20
ATOM     20  C   LIG    1       -0.056   4.240   0.025  0.00  0.00    -0.050 A 
ATOM     21  C   LIG    1        1.151   3.566   0.010  0.00  0.00    +0.060 A 
ATOM     22  C   LIG    1        1.170   2.183   0.003  0.00  0.00    +0.100 A 
ATOM     23  C   LIG    1       -0.018   1.476   0.010  0.00  0.00    -0.030 A 
ATOM     24  C   LIG    1       -1.224   2.151   0.019  0.00  0.00    +0.100 A 
ATOM     25  C   LIG    1       -1.243   3.533   0.032  0.00  0.00    +0.060 A 
BRANCH  23  26
ATOM     26  N   LIG    1        0.002  -0.004   0.002  0.00  0.00    +0.020 N 
ATOM     27  O   LIG    1       -1.044  -0.627   0.009  0.00  0.00    -0.150 OA
ATOM     28  O   LIG    1        1.065  -0.599  -0.011  0.00  0.00    -0.150 OA
ENDBRANCH  23  26
ENDBRANCH  19  20
ENDBRANCH  18  19
ENDBRANCH  16  18
ENDBRANCH  15  16
ENDBRANCH   2  15
TORSDOF 8
