REMARK  Name = ZINCqH0000038VQF.0
REMARK                            x       y       z     vdW  Elec       q    Type
REMARK                         _______ _______ _______ _____ _____    ______ ____
ROOT
ATOM      1  C   LIG    1        1.726   3.240  -0.001  0.00  0.00    +0.420 C 
ENDROOT
BRANCH   1   2
ATOM      2  C   LIG    1        2.214   3.628  -1.373  0.00  0.00    -0.130 A 
ATOM      3  C   LIG    1        3.561   3.558  -1.673  0.00  0.00    +0.060 A 
ATOM      4  C   LIG    1        4.008   3.910  -2.933  0.00  0.00    +0.020 A 
ATOM      5  C   LIG    1        3.110   4.341  -3.891  0.00  0.00    +0.060 A 
ATOM      6  C   LIG    1        1.763   4.418  -3.592  0.00  0.00    -0.010 A 
ATOM      7  C   LIG    1        1.313   4.061  -2.332  0.00  0.00    +0.110 A 
ATOM      8  F   LIG    1       -0.003   4.136  -2.038  0.00  0.00    -0.140 F 
ENDBRANCH   1   2
BRANCH   1  14
ATOM      9  C   LIG    1       -1.203   2.229   0.008  0.00  0.00    +0.320 C 
ATOM     10  N   LIG    1       -0.009   1.380  -0.011  0.00  0.00    -0.440 N 
ATOM     11  C   LIG    1        0.015   0.012  -0.031  0.00  0.00    +0.130 A 
ATOM     12  C   LIG    1        1.310  -0.355  -0.049  0.00  0.00    +0.140 A 
ATOM     13  N   LIG    1        2.058   0.758  -0.040  0.00  0.00    -0.470 NA
ATOM     14  C   LIG    1        1.274   1.802  -0.018  0.00  0.00    +0.190 A 
ENDBRANCH   1  14
BRANCH   1  15
ATOM     15  N   LIG    1        2.814   3.398   0.967  0.00  0.00    -0.720 N 
ATOM     16  H   LIG    1        3.737   3.353   0.671  0.00  0.00    +0.410 HD
ATOM     17  C   LIG    1        2.533   3.607   2.268  0.00  0.00    +0.720 C 
ATOM     18  N   LIG    1        3.533   3.753   3.159  0.00  0.00    -0.680 N 
ATOM     19  H   LIG    1        4.454   3.627   2.880  0.00  0.00    +0.410 HD
ATOM     20  O   LIG    1        1.376   3.664   2.639  0.00  0.00    -0.570 OA
BRANCH  18  21
ATOM     21  C   LIG    1        3.244   4.088   4.490  0.00  0.00    +0.130 A 
ATOM     22  C   LIG    1        2.068   4.755   4.798  0.00  0.00    +0.090 A 
ATOM     23  C   LIG    1        1.782   5.079   6.111  0.00  0.00    +0.010 A 
ATOM     24  C   LIG    1        2.673   4.748   7.117  0.00  0.00    +0.110 A 
ATOM     25  C   LIG    1        3.851   4.087   6.812  0.00  0.00    -0.020 A 
ATOM     26  F   LIG    1        2.393   5.071   8.399  0.00  0.00    -0.130 F 
ATOM     27  C   LIG    1        4.138   3.755   5.501  0.00  0.00    +0.100 A 
ATOM     28  F   LIG    1        5.287   3.110   5.203  0.00  0.00    -0.130 F 
ENDBRANCH  18  21
ENDBRANCH   1  15
TORSDOF 4
