REMARK  Name = ZINCrH000004u8NY.0
REMARK                            x       y       z     vdW  Elec       q    Type
REMARK                         _______ _______ _______ _____ _____    ______ ____
ROOT
ATOM      1  C   LIG    1       -1.193  -2.272   0.426  0.00  0.00    +0.200 A 
ATOM      2  C   LIG    1       -0.427  -1.179   0.823  0.00  0.00    +0.040 A 
ATOM      3  C   LIG    1       -1.012   0.037   1.036  0.00  0.00    +0.100 A 
ATOM      4  C   LIG    1       -2.388   0.189   0.856  0.00  0.00    +0.010 A 
ATOM      5  N   LIG    1       -3.244   1.240   0.985  0.00  0.00    -0.470 NA
ATOM      6  C   LIG    1       -4.445   0.841   0.694  0.00  0.00    +0.250 A 
ATOM      7  O   LIG    1       -4.435  -0.461   0.362  0.00  0.00    -0.210 OA
ATOM      8  C   LIG    1       -3.165  -0.910   0.456  0.00  0.00    +0.030 A 
ATOM      9  C   LIG    1       -2.560  -2.139   0.243  0.00  0.00    +0.010 A 
ENDROOT
BRANCH   1  12
ATOM     10  O   LIG    1        1.262  -2.543  -0.567  0.00  0.00    -0.570 OA
ATOM     11  C   LIG    1        0.650  -3.569  -0.340  0.00  0.00    +0.710 C 
ATOM     12  N   LIG    1       -0.579  -3.512   0.211  0.00  0.00    -0.680 N 
ATOM     13  H   LIG    1       -1.038  -4.330   0.459  0.00  0.00    +0.410 HD
ATOM     14  N   LIG    1        1.200  -4.763  -0.637  0.00  0.00    -0.740 N 
ATOM     15  H   LIG    1        0.712  -5.581  -0.456  0.00  0.00    +0.400 HD
BRANCH  14  16
ATOM     16  C   LIG    1        2.536  -4.825  -1.236  0.00  0.00    +0.320 C 
BRANCH  16  17
ATOM     17  C   LIG    1        2.868  -6.275  -1.592  0.00  0.00    -0.150 C 
ATOM     18  C   LIG    1        3.390  -6.554  -3.003  0.00  0.00    +0.040 C 
ATOM     19  C   LIG    1        1.971  -6.974  -2.616  0.00  0.00    +0.040 C 
BRANCH  17  20
ATOM     20  C   LIG    1        3.431  -7.123  -0.450  0.00  0.00    +0.070 C 
BRANCH  20  21
ATOM     21  C   LIG    1        4.736  -6.502   0.051  0.00  0.00    +0.170 C 
BRANCH  21  22
ATOM     22  O   LIG    1        5.321  -7.354   1.037  0.00  0.00    -0.580 OA
ATOM     23  H   LIG    1        6.154  -7.022   1.400  0.00  0.00    +0.380 HD
ENDBRANCH  21  22
ENDBRANCH  20  21
ENDBRANCH  17  20
ENDBRANCH  16  17
ENDBRANCH  14  16
ENDBRANCH   1  12
BRANCH   6  24
ATOM     24  C   LIG    1       -5.673   1.714   0.719  0.00  0.00    +0.240 C 
BRANCH  24  25
ATOM     25  C   LIG    1       -5.866   2.347  -0.635  0.00  0.00    -0.100 A 
ATOM     26  C   LIG    1       -5.290   3.573  -0.913  0.00  0.00    +0.030 A 
ATOM     27  C   LIG    1       -5.464   4.151  -2.157  0.00  0.00    +0.010 A 
ATOM     28  C   LIG    1       -6.222   3.510  -3.118  0.00  0.00    +0.010 A 
ATOM     29  C   LIG    1       -6.803   2.287  -2.837  0.00  0.00    +0.000 A 
ATOM     30  C   LIG    1       -6.625   1.706  -1.596  0.00  0.00    +0.010 A 
ENDBRANCH  24  25
ENDBRANCH   6  24
TORSDOF 8
