REMARK  Name = ZINCkj00000dD2Oq.1
REMARK                            x       y       z     vdW  Elec       q    Type
REMARK                         _______ _______ _______ _____ _____    ______ ____
ROOT
ATOM      1  S   LIG    1        4.951   0.814   0.350  0.00  0.00    +2.620 S 
ATOM      2  O   LIG    1        5.245   1.630   1.476  0.00  0.00    -0.930 OA
ATOM      3  O   LIG    1        5.395   1.174  -0.951  0.00  0.00    -0.930 OA
ENDROOT
BRANCH   1   6
ATOM      4  C   LIG    1        1.367   1.513  -0.003  0.00  0.00    +0.150 C 
ATOM      5  C   LIG    1        2.331   0.672  -0.858  0.00  0.00    +0.350 C 
ATOM      6  N   LIG    1        3.299   0.846   0.242  0.00  0.00    -1.030 NA
ATOM      7  C   LIG    1        2.204   1.060   1.207  0.00  0.00    +0.350 C 
BRANCH   4   8
ATOM      8  N   LIG    1       -0.012   1.005   0.008  0.00  0.00    -0.380 N 
ATOM      9  C   LIG    1       -0.699   1.479   1.216  0.00  0.00    +0.330 C 
ATOM     10  H   LIG    1        0.002  -0.004   0.002  0.00  0.00    +0.420 HD
BRANCH   8  12
ATOM     11  C   LIG    1       -2.116   0.863  -1.237  0.00  0.00    +0.080 C 
ATOM     12  C   LIG    1       -0.722   1.492  -1.183  0.00  0.00    +0.250 C 
ENDBRANCH   8  12
ENDBRANCH   4   8
ENDBRANCH   1   6
BRANCH   1  13
ATOM     13  C   LIG    1        5.348  -0.921   0.701  0.00  0.00    -0.340 C 
BRANCH  13  14
ATOM     14  C   LIG    1        6.865  -1.082   0.825  0.00  0.00    +0.130 C 
BRANCH  14  15
ATOM     15  C   LIG    1        7.195  -2.523   1.116  0.00  0.00    -0.120 A 
ATOM     16  C   LIG    1        7.620  -3.355   0.097  0.00  0.00    +0.050 A 
ATOM     17  C   LIG    1        7.922  -4.677   0.364  0.00  0.00    +0.020 A 
ATOM     18  C   LIG    1        7.799  -5.170   1.650  0.00  0.00    +0.050 A 
ATOM     19  C   LIG    1        7.375  -4.340   2.671  0.00  0.00    -0.010 A 
ATOM     20  C   LIG    1        7.077  -3.014   2.406  0.00  0.00    +0.100 A 
ATOM     21  F   LIG    1        6.668  -2.200   3.404  0.00  0.00    -0.140 F 
ENDBRANCH  14  15
ENDBRANCH  13  14
ENDBRANCH   1  13
TORSDOF 6
