REMARK  Name = ZINCkj00000dD2Oq.2
REMARK                            x       y       z     vdW  Elec       q    Type
REMARK                         _______ _______ _______ _____ _____    ______ ____
ROOT
ATOM      1  S   LIG    1        5.534   3.586  -1.451  0.00  0.00    +2.630 S 
ATOM      2  O   LIG    1        6.631   2.719  -1.197  0.00  0.00    -0.930 OA
ATOM      3  O   LIG    1        5.391   4.811  -0.746  0.00  0.00    -0.930 OA
ENDROOT
BRANCH   1   6
ATOM      4  C   LIG    1        6.570   4.908  -4.737  0.00  0.00    +0.160 C 
ATOM      5  C   LIG    1        5.349   5.201  -3.853  0.00  0.00    +0.340 C 
ATOM      6  N   LIG    1        5.734   4.044  -3.030  0.00  0.00    -1.030 NA
ATOM      7  C   LIG    1        6.378   3.477  -4.224  0.00  0.00    +0.350 C 
BRANCH   4   8
ATOM      8  N   LIG    1        6.325   5.073  -6.176  0.00  0.00    -0.380 N 
ATOM      9  C   LIG    1        7.554   4.769  -6.920  0.00  0.00    +0.330 C 
ATOM     10  H   LIG    1        5.591   4.444  -6.467  0.00  0.00    +0.420 HD
BRANCH   8  12
ATOM     11  C   LIG    1        5.543   6.599  -7.925  0.00  0.00    +0.080 C 
ATOM     12  C   LIG    1        5.918   6.458  -6.448  0.00  0.00    +0.250 C 
ENDBRANCH   8  12
ENDBRANCH   4   8
ENDBRANCH   1   6
BRANCH   1  13
ATOM     13  C   LIG    1        3.974   2.660  -1.442  0.00  0.00    -0.340 C 
BRANCH  13  14
ATOM     14  C   LIG    1        3.676   2.177  -0.021  0.00  0.00    +0.130 C 
BRANCH  14  15
ATOM     15  C   LIG    1        2.381   1.408  -0.013  0.00  0.00    -0.120 A 
ATOM     16  C   LIG    1        2.397   0.027  -0.020  0.00  0.00    +0.050 A 
ATOM     17  C   LIG    1        1.208  -0.679  -0.013  0.00  0.00    +0.020 A 
ATOM     18  C   LIG    1        0.002  -0.004   0.002  0.00  0.00    +0.050 A 
ATOM     19  C   LIG    1       -0.017   1.378   0.010  0.00  0.00    -0.010 A 
ATOM     20  C   LIG    1        1.173   2.086   0.002  0.00  0.00    +0.100 A 
ATOM     21  F   LIG    1        1.156   3.437   0.009  0.00  0.00    -0.140 F 
ENDBRANCH  14  15
ENDBRANCH  13  14
ENDBRANCH   1  13
TORSDOF 6
