REMARK  Name = ZINCrD0000075IuZ.0
REMARK                            x       y       z     vdW  Elec       q    Type
REMARK                         _______ _______ _______ _____ _____    ______ ____
ROOT
ATOM      1  O   LIG    1        2.065  -0.098   1.256  0.00  0.00    -0.530 OA
ATOM      2  C   LIG    1        2.331   0.926   0.654  0.00  0.00    +0.600 C 
ATOM      3  N   LIG    1        1.362   1.593  -0.002  0.00  0.00    -0.700 N 
ATOM      4  H   LIG    1        1.574   2.409  -0.482  0.00  0.00    +0.410 HD
ENDROOT
BRANCH   2   5
ATOM      5  C   LIG    1        3.714   1.436   0.644  0.00  0.00    +0.000 A 
ATOM      6  C   LIG    1        4.735   0.803   1.290  0.00  0.00    -0.010 A 
ATOM      7  S   LIG    1        6.178   1.688   1.051  0.00  0.00    +0.280 S 
ATOM      8  C   LIG    1        5.312   2.874   0.082  0.00  0.00    +0.080 A 
ATOM      9  N   LIG    1        4.061   2.540   0.002  0.00  0.00    -0.390 NA
BRANCH   8  10
ATOM     10  C   LIG    1        5.918   4.066  -0.551  0.00  0.00    +0.380 A 
ATOM     11  N   LIG    1        5.152   4.882  -1.264  0.00  0.00    -0.480 NA
ATOM     12  C   LIG    1        5.661   5.958  -1.837  0.00  0.00    +0.330 A 
ATOM     13  C   LIG    1        7.016   6.224  -1.695  0.00  0.00    -0.060 A 
ATOM     14  C   LIG    1        7.789   5.348  -0.948  0.00  0.00    +0.340 A 
ATOM     15  N   LIG    1        7.217   4.292  -0.396  0.00  0.00    -0.510 NA
ENDBRANCH   8  10
ENDBRANCH   2   5
BRANCH   3  16
ATOM     16  C   LIG    1       -0.013   1.086   0.008  0.00  0.00    +0.300 C 
BRANCH  16  17
ATOM     17  C   LIG    1       -0.742   1.585  -1.213  0.00  0.00    -0.100 A 
ATOM     18  C   LIG    1       -0.551   2.883  -1.648  0.00  0.00    +0.080 A 
ATOM     19  C   LIG    1       -1.215   3.341  -2.771  0.00  0.00    -0.010 A 
ATOM     20  C   LIG    1       -2.080   2.501  -3.453  0.00  0.00    +0.100 A 
ATOM     21  C   LIG    1       -2.274   1.203  -3.013  0.00  0.00    -0.010 A 
ATOM     22  F   LIG    1       -2.733   2.949  -4.547  0.00  0.00    -0.140 F 
ATOM     23  C   LIG    1       -1.605   0.746  -1.893  0.00  0.00    +0.060 A 
ENDBRANCH  16  17
BRANCH  16  24
ATOM     24  C   LIG    1       -0.729   1.579   1.267  0.00  0.00    +0.150 C 
ATOM     25  C   LIG    1        0.108   1.246   2.527  0.00  0.00    +0.030 C 
ATOM     26  C   LIG    1       -0.404   2.329   3.516  0.00  0.00    +0.000 C 
ATOM     27  C   LIG    1       -0.671   3.527   2.580  0.00  0.00    +0.190 C 
ATOM     28  O   LIG    1       -0.832   3.012   1.253  0.00  0.00    -0.370 OA
ENDBRANCH  16  24
ENDBRANCH   3  16
TORSDOF 5
