REMARK  Name = ZINCvU0000000E37.0
REMARK                            x       y       z     vdW  Elec       q    Type
REMARK                         _______ _______ _______ _____ _____    ______ ____
ROOT
ATOM      1  C   LIG    1        0.102  -0.003  -0.250  0.00  0.00    -0.660 A 
ATOM      2  C   LIG    1        0.248  -0.502  -1.530  0.00  0.00    +0.140 A 
ATOM      3  C   LIG    1        0.365  -1.865  -1.736  0.00  0.00    +0.040 A 
ATOM      4  C   LIG    1        0.324  -2.732  -0.661  0.00  0.00    -0.010 A 
ATOM      5  C   LIG    1        0.171  -2.233   0.627  0.00  0.00    +0.140 A 
ATOM      6 CL   LIG    1        0.463  -4.443  -0.920  0.00  0.00    -0.050 Cl
ATOM      7  C   LIG    1        0.060  -0.865   0.829  0.00  0.00    +0.160 A 
ENDROOT
BRANCH   5   8
ATOM      8  N   LIG    1        0.130  -3.109   1.718  0.00  0.00    -0.670 N 
ATOM      9  H   LIG    1        0.658  -3.923   1.707  0.00  0.00    +0.420 HD
ATOM     10  C   LIG    1       -0.644  -2.822   2.784  0.00  0.00    +0.520 C 
ATOM     11  O   LIG    1       -1.234  -1.764   2.837  0.00  0.00    -0.510 OA
BRANCH  10  12
ATOM     12  C   LIG    1       -0.775  -3.816   3.909  0.00  0.00    +0.100 C 
BRANCH  12  13
ATOM     13  C   LIG    1       -1.703  -3.248   4.985  0.00  0.00    +0.100 C 
BRANCH  13  14
ATOM     14  S   LIG    1       -1.862  -4.444   6.340  0.00  0.00    -0.110 S 
BRANCH  14  15
ATOM     15  C   LIG    1       -2.947  -3.629   7.463  0.00  0.00    -0.080 A 
ATOM     16  C   LIG    1       -3.435  -2.363   7.165  0.00  0.00    +0.000 A 
ATOM     17  C   LIG    1       -4.291  -1.730   8.045  0.00  0.00    +0.030 A 
ATOM     18  C   LIG    1       -4.653  -2.350   9.227  0.00  0.00    +0.010 A 
ATOM     19  C   LIG    1       -4.165  -3.608   9.529  0.00  0.00    +0.030 A 
ATOM     20  C   LIG    1       -3.313  -4.250   8.652  0.00  0.00    +0.030 A 
ENDBRANCH  14  15
ENDBRANCH  13  14
ENDBRANCH  12  13
ENDBRANCH  10  12
ENDBRANCH   5   8
BRANCH   1  21
ATOM     21  S   LIG    1       -0.039   1.735   0.007  0.00  0.00    +2.690 S 
ATOM     22  O   LIG    1       -0.809   1.905   1.189  0.00  0.00    -0.940 OA
ATOM     23  O   LIG    1       -0.404   2.297  -1.246  0.00  0.00    -0.950 OA
BRANCH  21  24
ATOM     24  N   LIG    1        1.478   2.304   0.350  0.00  0.00    -1.050 N 
ATOM     25  H   LIG    1        1.896   2.954  -0.236  0.00  0.00    +0.430 HD
BRANCH  24  29
ATOM     26  C   LIG    1        3.497   0.945   3.734  0.00  0.00    +0.120 A 
ATOM     27  C   LIG    1        4.155   1.013   2.515  0.00  0.00    +0.000 A 
ATOM     28  C   LIG    1        3.487   1.463   1.394  0.00  0.00    +0.060 A 
ATOM     29  C   LIG    1        2.155   1.848   1.486  0.00  0.00    +0.100 A 
ATOM     30  C   LIG    1        1.499   1.785   2.708  0.00  0.00    +0.050 A 
ATOM     31  C   LIG    1        2.167   1.329   3.828  0.00  0.00    -0.050 A 
BRANCH  26  33
ATOM     32  C   LIG    1        3.416   0.457   6.061  0.00  0.00    +0.240 C 
ATOM     33  O   LIG    1        4.155   0.501   4.838  0.00  0.00    -0.320 OA
ENDBRANCH  26  33
ENDBRANCH  24  29
ENDBRANCH  21  24
ENDBRANCH   1  21
TORSDOF 9
