REMARK  Name = ZINCnE000001DAoW.0
REMARK                            x       y       z     vdW  Elec       q    Type
REMARK                         _______ _______ _______ _____ _____    ______ ____
ROOT
ATOM      1  S   LIG    1       -1.545  -0.884  -0.037  0.00  0.00    +2.590 S 
ATOM      2  O   LIG    1       -2.288  -0.688  -1.232  0.00  0.00    -1.020 OA
ATOM      3  O   LIG    1       -2.065  -0.605   1.256  0.00  0.00    -1.020 OA
ENDROOT
BRANCH   1   4
ATOM      4  C   LIG    1       -1.062  -2.579  -0.023  0.00  0.00    -0.590 A 
ATOM      5  C   LIG    1       -1.282  -3.351   1.102  0.00  0.00    +0.120 A 
ATOM      6  C   LIG    1       -0.908  -4.682   1.111  0.00  0.00    +0.010 A 
ATOM      7  C   LIG    1       -0.304  -5.237  -0.002  0.00  0.00    +0.050 A 
ATOM      8  C   LIG    1       -0.079  -4.463  -1.125  0.00  0.00    +0.020 A 
ATOM      9  C   LIG    1       -0.458  -3.134  -1.136  0.00  0.00    -0.070 A 
BRANCH   9  10
ATOM     10  C   LIG    1       -0.213  -2.291  -2.360  0.00  0.00    +0.430 C 
ATOM     11  F   LIG    1       -1.029  -2.736  -3.405  0.00  0.00    -0.190 F 
ATOM     12  F   LIG    1        1.130  -2.398  -2.739  0.00  0.00    -0.190 F 
ENDBRANCH   9  10
ENDBRANCH   1   4
BRANCH   1  13
ATOM     13  N   LIG    1       -0.165   0.018  -0.191  0.00  0.00    -1.070 NA
BRANCH  13  17
ATOM     14  C   LIG    1       -0.391   4.083  -0.307  0.00  0.00    +0.200 A 
ATOM     15  N   LIG    1        0.790   3.506  -0.393  0.00  0.00    -0.480 NA
ATOM     16  C   LIG    1        0.907   2.188  -0.360  0.00  0.00    +0.240 A 
ATOM     17  C   LIG    1       -0.242   1.412  -0.231  0.00  0.00    +0.180 A 
ATOM     18  C   LIG    1       -1.471   2.062  -0.148  0.00  0.00    +0.140 A 
ATOM     19  N   LIG    1       -1.501   3.384  -0.184  0.00  0.00    -0.470 NA
BRANCH  14  20
ATOM     20  C   LIG    1       -0.474   5.587  -0.350  0.00  0.00    +0.120 C 
BRANCH  20  22
ATOM     21  C   LIG    1       -0.842   7.563  -1.835  0.00  0.00    +0.010 C 
ATOM     22  C   LIG    1       -0.632   6.048  -1.801  0.00  0.00    -0.020 C 
ATOM     23  C   LIG    1        0.629   5.689  -2.589  0.00  0.00    +0.010 C 
ENDBRANCH  20  22
ENDBRANCH  14  20
ENDBRANCH  13  17
ENDBRANCH   1  13
TORSDOF 6
