REMARK  Name = ZINCvU0000000Jj7.0
REMARK                            x       y       z     vdW  Elec       q    Type
REMARK                         _______ _______ _______ _____ _____    ______ ____
ROOT
ATOM      1  C   LIG    1       -1.216   3.541   0.014  0.00  0.00    -0.220 A 
ATOM      2  C   LIG    1       -0.121   4.384   0.003  0.00  0.00    +0.290 A 
ATOM      3  N   LIG    1       -0.577   5.650   0.007  0.00  0.00    -0.310 N 
ATOM      4  N   LIG    1       -1.974   5.647   0.021  0.00  0.00    -0.270 NA
ATOM      5  C   LIG    1       -2.403   4.404   0.020  0.00  0.00    +0.160 A 
ENDROOT
BRANCH   5   6
ATOM      6  C   LIG    1       -3.817   3.960   0.026  0.00  0.00    -0.040 A 
ATOM      7  C   LIG    1       -4.192   2.810  -0.668  0.00  0.00    +0.080 A 
ATOM      8  C   LIG    1       -5.508   2.398  -0.655  0.00  0.00    -0.010 A 
ATOM      9  C   LIG    1       -6.459   3.130   0.038  0.00  0.00    +0.120 A 
ATOM     10  C   LIG    1       -6.092   4.275   0.726  0.00  0.00    -0.010 A 
ATOM     11  F   LIG    1       -7.748   2.724   0.044  0.00  0.00    -0.130 F 
ATOM     12  C   LIG    1       -4.777   4.693   0.723  0.00  0.00    +0.080 A 
ENDBRANCH   5   6
BRANCH   3  13
ATOM     13  C   LIG    1        0.227   6.797  -0.003  0.00  0.00    +0.150 A 
ATOM     14  C   LIG    1        1.611   6.677  -0.012  0.00  0.00    -0.010 A 
ATOM     15  C   LIG    1        2.401   7.810  -0.027  0.00  0.00    +0.050 A 
ATOM     16  C   LIG    1        1.815   9.063  -0.021  0.00  0.00    +0.010 A 
ATOM     17  C   LIG    1        0.438   9.186  -0.007  0.00  0.00    +0.050 A 
ATOM     18  C   LIG    1       -0.357   8.057   0.003  0.00  0.00    +0.030 A 
ENDBRANCH   3  13
BRANCH   1  20
ATOM     19  C   LIG    1       -0.017   1.413   0.004  0.00  0.00    -0.130 C 
ATOM     20  C   LIG    1       -1.197   2.073   0.015  0.00  0.00    +0.200 C 
BRANCH  19  22
ATOM     21  O   LIG    1       -1.044  -0.627   0.020  0.00  0.00    -0.530 OA
ATOM     22  C   LIG    1        0.002  -0.004   0.004  0.00  0.00    +0.560 C 
ATOM     23  N   LIG    1        1.178  -0.662  -0.013  0.00  0.00    -0.670 N 
ATOM     24  H   LIG    1        2.009  -0.168  -0.093  0.00  0.00    +0.420 HD
BRANCH  23  25
ATOM     25  C   LIG    1        1.200  -2.058   0.085  0.00  0.00    +0.170 A 
ATOM     26  C   LIG    1        2.234  -2.690   0.763  0.00  0.00    +0.010 A 
ATOM     27  C   LIG    1        2.252  -4.068   0.864  0.00  0.00    +0.050 A 
ATOM     28  C   LIG    1        1.247  -4.820   0.280  0.00  0.00    +0.050 A 
ATOM     29  C   LIG    1        0.217  -4.191  -0.403  0.00  0.00    +0.090 A 
ATOM     30  F   LIG    1       -0.763  -4.926  -0.973  0.00  0.00    -0.120 F 
ATOM     31  F   LIG    1        1.270  -6.167   0.375  0.00  0.00    -0.130 F 
ATOM     32  C   LIG    1        0.192  -2.812  -0.501  0.00  0.00    +0.030 A 
ENDBRANCH  23  25
ENDBRANCH  19  22
ENDBRANCH   1  20
TORSDOF 5
