REMARK  Name = ZINCvU0000000JDb.0
REMARK                            x       y       z     vdW  Elec       q    Type
REMARK                         _______ _______ _______ _____ _____    ______ ____
ROOT
ATOM      1  O   LIG    1       -8.919  -0.182   8.332  0.00  0.00    -0.320 OA
ENDROOT
BRANCH   1   2
ATOM      2  C   LIG    1       -7.936   0.485   7.705  0.00  0.00    +0.470 C 
ATOM      3  O   LIG    1       -7.562   1.551   8.131  0.00  0.00    -0.500 OA
BRANCH   2   4
ATOM      4  C   LIG    1       -7.301  -0.098   6.469  0.00  0.00    +0.110 C 
BRANCH   4   5
ATOM      5  C   LIG    1       -6.218   0.853   5.956  0.00  0.00    +0.050 C 
BRANCH   5   6
ATOM      6  C   LIG    1       -5.572   0.262   4.701  0.00  0.00    +0.020 C 
BRANCH   6   7
ATOM      7  C   LIG    1       -4.490   1.213   4.188  0.00  0.00    +0.020 C 
BRANCH   7   8
ATOM      8  C   LIG    1       -3.844   0.622   2.933  0.00  0.00    +0.160 C 
BRANCH   8   9
ATOM      9  O   LIG    1       -2.833   1.510   2.453  0.00  0.00    -0.380 OA
BRANCH   9  10
ATOM     10  C   LIG    1       -2.164   1.050   1.278  0.00  0.00    +0.150 C 
ATOM     11  C   LIG    1       -2.904   1.556   0.038  0.00  0.00    -0.010 C 
ATOM     12  C   LIG    1       -2.188   1.063  -1.221  0.00  0.00    +0.010 C 
ATOM     13  C   LIG    1       -0.753   1.593  -1.232  0.00  0.00    +0.000 C 
ATOM     14  C   LIG    1       -0.013   1.086   0.008  0.00  0.00    -0.020 C 
ATOM     15  C   LIG    1        1.423   1.615  -0.003  0.00  0.00    +0.030 C 
ATOM     16  C   LIG    1       -0.729   1.579   1.267  0.00  0.00    +0.030 C 
ENDBRANCH   9  10
ENDBRANCH   8   9
ENDBRANCH   7   8
ENDBRANCH   6   7
ENDBRANCH   5   6
ENDBRANCH   4   5
ENDBRANCH   2   4
ENDBRANCH   1   2
BRANCH   1  17
ATOM     17  C   LIG    1       -9.485   0.440   9.516  0.00  0.00    +0.280 C 
BRANCH  17  18
ATOM     18  C   LIG    1       -9.965  -0.630  10.463  0.00  0.00    -0.070 A 
ATOM     19  C   LIG    1      -10.512  -1.798   9.967  0.00  0.00    +0.060 A 
ATOM     20  C   LIG    1      -10.948  -2.781  10.836  0.00  0.00    +0.070 A 
ATOM     21  C   LIG    1      -10.846  -2.591  12.201  0.00  0.00    -0.170 A 
ATOM     22  C   LIG    1      -10.303  -1.421  12.698  0.00  0.00    +0.080 A 
ATOM     23  C   LIG    1       -9.863  -0.440  11.829  0.00  0.00    +0.060 A 
BRANCH  21  24
ATOM     24  C   LIG    1      -11.326  -3.660  13.149  0.00  0.00    +0.510 C 
ATOM     25  F   LIG    1      -10.568  -3.617  14.324  0.00  0.00    -0.170 F 
ATOM     26  F   LIG    1      -11.183  -4.915  12.547  0.00  0.00    -0.170 F 
ATOM     27  F   LIG    1      -12.674  -3.441  13.455  0.00  0.00    -0.170 F 
ENDBRANCH  21  24
ENDBRANCH  17  18
BRANCH  17  28
ATOM     28  C   LIG    1      -10.645   1.315   9.118  0.00  0.00    +0.450 C 
ATOM     29  O   LIG    1      -11.019   1.337   7.970  0.00  0.00    -0.480 OA
BRANCH  28  31
ATOM     30  C   LIG    1      -12.371   2.891   9.585  0.00  0.00    +0.290 C 
ATOM     31  O   LIG    1      -11.262   2.071  10.040  0.00  0.00    -0.350 OA
ENDBRANCH  28  31
ENDBRANCH  17  28
ENDBRANCH   1  17
TORSDOF 13
