REMARK  Name = ZINCrD0000070VHj.0
REMARK                            x       y       z     vdW  Elec       q    Type
REMARK                         _______ _______ _______ _____ _____    ______ ____
ROOT
ATOM      1  C   LIG    1       -0.773   3.123  -1.223  0.00  0.00    +0.180 C 
ATOM      2  C   LIG    1       -1.490   3.616   0.036  0.00  0.00    +0.020 C 
ATOM      3  C   LIG    1       -0.750   3.109   1.275  0.00  0.00    +0.000 C 
ATOM      4  C   LIG    1       -0.729   1.579   1.267  0.00  0.00    +0.030 C 
ATOM      5  C   LIG    1       -0.013   1.086   0.008  0.00  0.00    +0.000 C 
ATOM      6  C   LIG    1        1.423   1.615  -0.003  0.00  0.00    +0.050 C 
ATOM      7  C   LIG    1        1.402   3.145   0.006  0.00  0.00    -0.030 C 
ATOM      8  C   LIG    1        0.686   3.639   1.264  0.00  0.00    +0.050 C 
ATOM      9  C   LIG    1        0.662   3.652  -1.234  0.00  0.00    +0.060 C 
ATOM     10  C   LIG    1       -0.753   1.593  -1.232  0.00  0.00    +0.020 C 
ENDROOT
BRANCH   1  13
ATOM     11  C   LIG    1       -3.499   3.765  -3.834  0.00  0.00    +0.080 C 
ATOM     12  C   LIG    1       -2.770   3.266  -2.613  0.00  0.00    +0.510 C 
ATOM     13  N   LIG    1       -1.482   3.608  -2.410  0.00  0.00    -0.730 N 
ATOM     14  H   LIG    1       -1.024   4.175  -3.050  0.00  0.00    +0.400 HD
ATOM     15  O   LIG    1       -3.342   2.556  -1.813  0.00  0.00    -0.540 OA
ENDBRANCH   1  13
BRANCH   7  16
ATOM     16  C   LIG    1        2.816   3.667  -0.005  0.00  0.00    +0.470 C 
ATOM     17  O   LIG    1        3.193   4.372  -0.911  0.00  0.00    -0.510 OA
BRANCH  16  18
ATOM     18  O   LIG    1        3.656   3.349   0.992  0.00  0.00    -0.340 OA
BRANCH  18  19
ATOM     19  C   LIG    1        5.003   3.886   0.916  0.00  0.00    +0.240 C 
BRANCH  19  20
ATOM     20  C   LIG    1        5.808   3.419   2.130  0.00  0.00    +0.230 C 
BRANCH  20  21
ATOM     21  O   LIG    1        5.964   2.000   2.080  0.00  0.00    -0.310 OA
BRANCH  21  22
ATOM     22  C   LIG    1        6.661   1.419   3.093  0.00  0.00    +0.120 A 
ATOM     23  C   LIG    1        7.187   2.201   4.111  0.00  0.00    -0.080 A 
ATOM     24  C   LIG    1        7.890   1.609   5.143  0.00  0.00    +0.040 A 
ATOM     25  C   LIG    1        8.078   0.239   5.155  0.00  0.00    -0.120 A 
ATOM     26  C   LIG    1        7.559  -0.542   4.138  0.00  0.00    +0.050 A 
ATOM     27  C   LIG    1        8.850  -0.404   6.278  0.00  0.00    +0.100 C 
ATOM     28  C   LIG    1        6.851   0.045   3.108  0.00  0.00    -0.020 A 
ENDBRANCH  21  22
ENDBRANCH  20  21
ENDBRANCH  19  20
ENDBRANCH  18  19
ENDBRANCH  16  18
ENDBRANCH   7  16
TORSDOF 7
