REMARK  Name = ZINCvU0000000AIZ.0
REMARK                            x       y       z     vdW  Elec       q    Type
REMARK                         _______ _______ _______ _____ _____    ______ ____
ROOT
ATOM      1  C   LIG    1       -0.580  -0.230  -0.144  0.00  0.00    +0.290 A 
ATOM      2  N   LIG    1        0.485  -0.951   0.054  0.00  0.00    -0.480 NA
ATOM      3  C   LIG    1        1.572  -0.143   0.150  0.00  0.00    +0.050 A 
ATOM      4  C   LIG    1        2.933  -0.380   0.356  0.00  0.00    +0.070 A 
ATOM      5  C   LIG    1        3.807   0.669   0.406  0.00  0.00    +0.000 A 
ATOM      6  C   LIG    1        3.357   1.972   0.254  0.00  0.00    +0.030 A 
ATOM      7  C   LIG    1        2.018   2.230   0.049  0.00  0.00    +0.010 A 
ATOM      8  C   LIG    1        1.116   1.177  -0.005  0.00  0.00    +0.060 A 
ATOM      9  N   LIG    1       -0.250   1.089  -0.189  0.00  0.00    -0.480 N 
ENDROOT
BRANCH   1  12
ATOM     10  N   LIG    1       -2.988  -2.811  -1.068  0.00  0.00    -0.570 N 
ATOM     11  C   LIG    1       -2.053  -1.761  -1.490  0.00  0.00    +0.300 C 
ATOM     12  C   LIG    1       -1.975  -0.776  -0.302  0.00  0.00    +0.090 C 
ATOM     13  C   LIG    1       -2.350  -1.689   0.889  0.00  0.00    +0.090 C 
ATOM     14  C   LIG    1       -3.169  -2.797   0.264  0.00  0.00    +0.530 C 
ATOM     15  O   LIG    1       -3.885  -3.561   0.875  0.00  0.00    -0.510 OA
BRANCH  10  20
ATOM     16  C   LIG    1       -5.514  -6.458  -4.604  0.00  0.00    +0.090 C 
ATOM     17  C   LIG    1       -4.843  -5.489  -3.665  0.00  0.00    -0.070 A 
ATOM     18  C   LIG    1       -5.451  -4.283  -3.367  0.00  0.00    +0.010 A 
ATOM     19  C   LIG    1       -4.838  -3.393  -2.507  0.00  0.00    +0.020 A 
ATOM     20  C   LIG    1       -3.611  -3.710  -1.940  0.00  0.00    +0.130 A 
ATOM     21  C   LIG    1       -3.000  -4.920  -2.246  0.00  0.00    -0.070 A 
ATOM     22  C   LIG    1       -1.665  -5.265  -1.639  0.00  0.00    +0.090 C 
ATOM     23  C   LIG    1       -3.620  -5.808  -3.102  0.00  0.00    +0.010 A 
ENDBRANCH  10  20
ENDBRANCH   1  12
BRANCH   9  24
ATOM     24  C   LIG    1       -1.171   2.208  -0.401  0.00  0.00    +0.370 C 
BRANCH  24  25
ATOM     25  C   LIG    1       -1.410   2.390  -1.877  0.00  0.00    -0.110 A 
ATOM     26  C   LIG    1       -2.445   1.716  -2.498  0.00  0.00    +0.040 A 
ATOM     27  C   LIG    1       -2.664   1.882  -3.853  0.00  0.00    +0.020 A 
ATOM     28  C   LIG    1       -1.849   2.722  -4.588  0.00  0.00    +0.050 A 
ATOM     29  C   LIG    1       -0.814   3.397  -3.968  0.00  0.00    +0.030 A 
ATOM     30  C   LIG    1       -0.598   3.236  -2.611  0.00  0.00    -0.020 A 
ATOM     31 CL   LIG    1        0.697   4.089  -1.831  0.00  0.00    -0.060 Cl
ENDBRANCH  24  25
ENDBRANCH   9  24
TORSDOF 4
