REMARK  Name = ZINCqH0000036gj3.0
REMARK                            x       y       z     vdW  Elec       q    Type
REMARK                         _______ _______ _______ _____ _____    ______ ____
ROOT
ATOM      1  C   LIG    1       -4.199   0.627   1.451  0.00  0.00    +0.210 C 
ATOM      2  C   LIG    1       -5.375   1.600   1.349  0.00  0.00    +0.010 C 
ENDROOT
BRANCH   1   3
ATOM      3  C   LIG    1       -4.287  -0.135   2.748  0.00  0.00    -0.020 A 
ATOM      4  C   LIG    1       -3.859   0.452   3.924  0.00  0.00    +0.000 A 
ATOM      5  C   LIG    1       -3.939  -0.243   5.117  0.00  0.00    +0.040 A 
ATOM      6  C   LIG    1       -4.447  -1.527   5.137  0.00  0.00    -0.040 A 
ATOM      7  C   LIG    1       -4.878  -2.120   3.957  0.00  0.00    +0.210 A 
ATOM      8  C   LIG    1       -4.802  -1.417   2.761  0.00  0.00    -0.050 A 
BRANCH   7   9
ATOM      9  N   LIG    1       -5.393  -3.418   3.973  0.00  0.00    -0.930 N 
ATOM     10  C   LIG    1       -6.017  -4.093   5.121  0.00  0.00    +0.260 C 
ATOM     11  C   LIG    1       -5.798  -5.615   5.024  0.00  0.00    +0.090 C 
ATOM     12  C   LIG    1       -6.121  -5.955   3.540  0.00  0.00    -0.300 C 
ATOM     13  S   LIG    1       -5.419  -4.488   2.691  0.00  0.00    +2.560 S 
ATOM     14  O   LIG    1       -4.054  -4.694   2.352  0.00  0.00    -0.940 OA
ATOM     15  O   LIG    1       -6.344  -3.935   1.765  0.00  0.00    -0.940 OA
ENDBRANCH   7   9
ENDBRANCH   1   3
BRANCH   1  16
ATOM     16  N   LIG    1       -2.937   1.378   1.409  0.00  0.00    -0.670 NA
ATOM     17  H   LIG    1       -3.011   2.239   1.930  0.00  0.00    +0.340 HD
BRANCH  16  18
ATOM     18  C   LIG    1       -2.523   1.636   0.023  0.00  0.00    +0.240 C 
BRANCH  18  25
ATOM     19  C   LIG    1       -1.246   3.793   0.033  0.00  0.00    +0.150 A 
ATOM     20  C   LIG    1       -0.052   4.500   0.025  0.00  0.00    -0.080 A 
ATOM     21  C   LIG    1        1.152   3.822   0.011  0.00  0.00    +0.060 A 
ATOM     22  C   LIG    1        1.168   2.440   0.004  0.00  0.00    -0.010 A 
ATOM     23  C   LIG    1       -0.021   1.732   0.012  0.00  0.00    +0.020 A 
ATOM     24 CL   LIG    1        0.002  -0.004   0.002  0.00  0.00    -0.050 Cl
ATOM     25  C   LIG    1       -1.228   2.406   0.021  0.00  0.00    -0.110 A 
BRANCH  19  27
ATOM     26  C   LIG    1       -2.372   5.887   0.054  0.00  0.00    +0.250 C 
ATOM     27  O   LIG    1       -2.430   4.459   0.047  0.00  0.00    -0.310 OA
ENDBRANCH  19  27
ENDBRANCH  18  25
ENDBRANCH  16  18
ENDBRANCH   1  16
TORSDOF 6
