REMARK  Name = ZINCrD000000Cs9I.0
REMARK                            x       y       z     vdW  Elec       q    Type
REMARK                         _______ _______ _______ _____ _____    ______ ____
ROOT
ATOM      1  C   LIG    1        1.281  -0.434  -0.013  0.00  0.00    -0.060 A 
ATOM      2  C   LIG    1        2.096   0.662  -0.014  0.00  0.00    +0.070 A 
ATOM      3  C   LIG    1        1.258   1.788  -0.000  0.00  0.00    -0.020 A 
ATOM      4  C   LIG    1       -0.016   1.335   0.009  0.00  0.00    +0.030 A 
ATOM      5  O   LIG    1        0.002  -0.004   0.002  0.00  0.00    -0.140 OA
ENDROOT
BRANCH   1   7
ATOM      6  O   LIG    1        2.905  -2.098  -0.038  0.00  0.00    -0.470 OA
ATOM      7  C   LIG    1        1.719  -1.832  -0.025  0.00  0.00    +0.550 C 
BRANCH   7   8
ATOM      8  O   LIG    1        0.805  -2.825  -0.021  0.00  0.00    -0.320 OA
BRANCH   8   9
ATOM      9  C   LIG    1        1.311  -4.186  -0.034  0.00  0.00    +0.210 C 
ATOM     10  C   LIG    1        0.321  -5.123   0.679  0.00  0.00    +0.100 C 
ATOM     11  C   LIG    1        0.702  -6.582   0.358  0.00  0.00    -0.290 C 
ATOM     12  S   LIG    1        1.519  -6.512  -1.277  0.00  0.00    +2.400 S 
ATOM     13  O   LIG    1        0.692  -7.145  -2.244  0.00  0.00    -0.920 OA
ATOM     14  O   LIG    1        2.878  -6.905  -1.142  0.00  0.00    -0.920 OA
ATOM     15  C   LIG    1        1.433  -4.694  -1.494  0.00  0.00    -0.320 C 
ENDBRANCH   8   9
ENDBRANCH   7   8
ENDBRANCH   1   7
BRANCH   4  16
ATOM     16  C   LIG    1       -1.253   2.196   0.020  0.00  0.00    +0.330 C 
BRANCH  16  17
ATOM     17  O   LIG    1       -1.651   2.474  -1.324  0.00  0.00    -0.310 OA
BRANCH  17  18
ATOM     18  C   LIG    1       -2.758   3.245  -1.492  0.00  0.00    +0.130 A 
ATOM     19  C   LIG    1       -3.185   3.544  -2.754  0.00  0.00    -0.010 A 
ATOM     20  C   LIG    1       -4.329   4.340  -2.930  0.00  0.00    -0.010 A 
ATOM     21  C   LIG    1       -4.799   4.668  -4.213  0.00  0.00    +0.010 A 
ATOM     22  C   LIG    1       -5.911   5.442  -4.346  0.00  0.00    +0.030 A 
ATOM     23  C   LIG    1       -6.593   5.915  -3.227  0.00  0.00    -0.010 A 
ATOM     24  C   LIG    1       -6.167   5.618  -1.968  0.00  0.00    +0.040 A 
ATOM     25  C   LIG    1       -5.023   4.822  -1.791  0.00  0.00    -0.080 A 
ATOM     26  C   LIG    1       -4.555   4.494  -0.507  0.00  0.00    +0.070 A 
ATOM     27  C   LIG    1       -3.448   3.716  -0.370  0.00  0.00    -0.060 A 
ENDBRANCH  17  18
ENDBRANCH  16  17
ENDBRANCH   4  16
TORSDOF 6
