REMARK  Name = ZINCbw0000000Hbv.0
REMARK                            x       y       z     vdW  Elec       q    Type
REMARK                         _______ _______ _______ _____ _____    ______ ____
ROOT
ATOM      1  C   LIG    1        2.405   0.038  -0.021  0.00  0.00    -0.170 A 
ATOM      2  C   LIG    1        2.379   1.437  -0.013  0.00  0.00    +0.110 A 
ATOM      3  C   LIG    1        1.171   2.100   0.002  0.00  0.00    +0.000 A 
ATOM      4  C   LIG    1       -0.017   1.384   0.010  0.00  0.00    +0.140 A 
ATOM      5  C   LIG    1        0.002  -0.004   0.002  0.00  0.00    -0.090 A 
ATOM      6 CL   LIG    1       -1.490  -0.891   0.011  0.00  0.00    -0.040 Cl
ATOM      7  F   LIG    1       -1.197   2.041   0.019  0.00  0.00    -0.120 F 
ATOM      8  C   LIG    1        1.204  -0.679  -0.013  0.00  0.00    +0.130 A 
ENDROOT
BRANCH   1  10
ATOM      9  C   LIG    1        4.983   0.099  -0.045  0.00  0.00    +0.090 C 
ATOM     10  C   LIG    1        3.691  -0.676  -0.037  0.00  0.00    +0.400 C 
ATOM     11  O   LIG    1        3.711  -1.889  -0.044  0.00  0.00    -0.450 OA
ENDBRANCH   1  10
TORSDOF 1
