REMARK  Name = ZINCqH0000036PGe.0
REMARK                            x       y       z     vdW  Elec       q    Type
REMARK                         _______ _______ _______ _____ _____    ______ ____
ROOT
ATOM      1  C   LIG    1        4.587   2.623   1.596  0.00  0.00    -0.700 A 
ATOM      2  C   LIG    1        5.614   1.845   2.099  0.00  0.00    +0.140 A 
ATOM      3  C   LIG    1        6.902   2.012   1.631  0.00  0.00    -0.030 A 
ATOM      4  C   LIG    1        7.168   2.969   0.660  0.00  0.00    +0.200 A 
ATOM      5  C   LIG    1        6.136   3.752   0.160  0.00  0.00    +0.000 A 
ATOM      6  C   LIG    1        4.849   3.577   0.630  0.00  0.00    +0.140 A 
ENDROOT
BRANCH   4   7
ATOM      7  N   LIG    1        8.473   3.143   0.186  0.00  0.00    -0.680 N 
ATOM      8  H   LIG    1        9.071   2.382   0.122  0.00  0.00    +0.420 HD
ATOM      9  C   LIG    1        8.899   4.368  -0.181  0.00  0.00    +0.520 C 
ATOM     10  O   LIG    1        8.185   5.334  -0.011  0.00  0.00    -0.510 OA
BRANCH   9  11
ATOM     11  C   LIG    1       10.261   4.537  -0.802  0.00  0.00    +0.080 C 
BRANCH  11  12
ATOM     12  C   LIG    1       10.495   6.015  -1.123  0.00  0.00    +0.140 C 
BRANCH  12  13
ATOM     13  C   LIG    1       11.858   6.185  -1.744  0.00  0.00    -0.180 A 
ATOM     14  C   LIG    1       12.120   6.125  -3.050  0.00  0.00    +0.010 A 
ATOM     15  C   LIG    1       13.450   6.312  -3.387  0.00  0.00    +0.000 A 
ATOM     16  C   LIG    1       14.267   6.523  -2.354  0.00  0.00    -0.050 A 
ATOM     17  S   LIG    1       13.344   6.499  -0.857  0.00  0.00    +0.100 S 
ENDBRANCH  12  13
ENDBRANCH  11  12
ENDBRANCH   9  11
ENDBRANCH   4   7
BRANCH   1  18
ATOM     18  S   LIG    1        2.944   2.403   2.192  0.00  0.00    +2.690 S 
ATOM     19  O   LIG    1        3.060   1.817   3.482  0.00  0.00    -0.950 OA
ATOM     20  O   LIG    1        2.263   3.627   1.953  0.00  0.00    -0.950 OA
BRANCH  18  26
ATOM     21  C   LIG    1        0.941  -2.246   1.817  0.00  0.00    +0.030 C 
ATOM     22  C   LIG    1        0.875  -0.733   1.601  0.00  0.00    -0.030 C 
ATOM     23  C   LIG    1        0.174  -0.436   0.274  0.00  0.00    +0.020 C 
ATOM     24  C   LIG    1        0.078   1.078   0.073  0.00  0.00    +0.020 C 
ATOM     25  C   LIG    1        1.489   1.672   0.018  0.00  0.00    +0.280 C 
ATOM     26  N   LIG    1        2.220   1.269   1.227  0.00  0.00    -1.000 NA
ATOM     27  C   LIG    1        2.295  -0.159   1.563  0.00  0.00    +0.280 C 
ENDBRANCH  18  26
ENDBRANCH   1  18
TORSDOF 6
