REMARK  Name = ZINCqH0000001FuB.0
REMARK                            x       y       z     vdW  Elec       q    Type
REMARK                         _______ _______ _______ _____ _____    ______ ____
ROOT
ATOM      1  C   LIG    1       -3.956  -4.641   0.016  0.00  0.00    +0.300 C 
ENDROOT
BRANCH   1   2
ATOM      2  C   LIG    1       -3.902  -6.025   0.609  0.00  0.00    -0.080 A 
ATOM      3  C   LIG    1       -2.853  -6.868   0.295  0.00  0.00    +0.020 A 
ATOM      4  C   LIG    1       -2.793  -8.139   0.840  0.00  0.00    +0.030 A 
ATOM      5  C   LIG    1       -3.796  -8.567   1.693  0.00  0.00    +0.070 A 
ATOM      6  O   LIG    1       -3.752  -9.820   2.233  0.00  0.00    -0.320 OA
ATOM      7  C   LIG    1       -3.529  -9.885   3.643  0.00  0.00    +0.230 C 
ATOM      8  C   LIG    1       -4.835  -9.723   4.404  0.00  0.00    -0.010 C 
ATOM      9  C   LIG    1       -5.454  -8.348   4.207  0.00  0.00    +0.230 C 
ATOM     10  O   LIG    1       -5.837  -8.155   2.844  0.00  0.00    -0.320 OA
ATOM     11  C   LIG    1       -4.853  -7.723   2.003  0.00  0.00    +0.070 A 
ATOM     12  C   LIG    1       -4.906  -6.451   1.461  0.00  0.00    +0.040 A 
ENDBRANCH   1   2
BRANCH   1  13
ATOM     13  N   LIG    1       -2.610  -4.061   0.006  0.00  0.00    -0.720 N 
ATOM     14  H   LIG    1       -1.833  -4.641  -0.005  0.00  0.00    +0.400 HD
ATOM     15  C   LIG    1       -2.453  -2.723   0.012  0.00  0.00    +0.520 C 
ATOM     16  O   LIG    1       -3.426  -1.998   0.025  0.00  0.00    -0.500 OA
BRANCH  15  17
ATOM     17  C   LIG    1       -1.069  -2.126   0.001  0.00  0.00    +0.220 C 
BRANCH  17  18
ATOM     18  O   LIG    1       -1.165  -0.701   0.010  0.00  0.00    -0.290 OA
BRANCH  18  19
ATOM     19  C   LIG    1        0.002  -0.004   0.002  0.00  0.00    +0.130 A 
ATOM     20  C   LIG    1       -0.017   1.383   0.010  0.00  0.00    -0.020 A 
ATOM     21  C   LIG    1        1.171   2.089   0.002  0.00  0.00    +0.050 A 
ATOM     22  C   LIG    1        2.377   1.414  -0.013  0.00  0.00    -0.030 A 
ATOM     23  C   LIG    1        2.399   0.031  -0.021  0.00  0.00    +0.050 A 
ATOM     24  C   LIG    1        1.214  -0.679  -0.013  0.00  0.00    -0.080 A 
ENDBRANCH  18  19
ENDBRANCH  17  18
ENDBRANCH  15  17
ENDBRANCH   1  13
BRANCH   1  26
ATOM     25  C   LIG    1       -4.543  -3.314  -2.017  0.00  0.00    +0.020 C 
ATOM     26  C   LIG    1       -4.488  -4.720  -1.416  0.00  0.00    -0.020 C 
ATOM     27  C   LIG    1       -3.561  -5.598  -2.257  0.00  0.00    +0.020 C 
ENDBRANCH   1  26
TORSDOF 6
