REMARK  Name = ZINCkj000005f7AW.1
REMARK                            x       y       z     vdW  Elec       q    Type
REMARK                         _______ _______ _______ _____ _____    ______ ____
ROOT
ATOM      1  C   LIG    1        0.002  -0.004   0.002  0.00  0.00    +0.520 C 
ATOM      2  N   LIG    1       -1.150  -0.694   0.111  0.00  0.00    -0.700 N 
ATOM      3  H   LIG    1       -1.993  -0.221   0.195  0.00  0.00    +0.410 HD
ATOM      4  O   LIG    1        1.056  -0.596  -0.103  0.00  0.00    -0.520 OA
ENDROOT
BRANCH   1  10
ATOM      5  N   LIG    1        1.345   2.011  -0.180  0.00  0.00    -0.360 N 
ATOM      6  C   LIG    1        1.905   1.480  -1.429  0.00  0.00    +0.250 C 
ATOM      7  C   LIG    1        1.081   1.983  -2.616  0.00  0.00    +0.060 C 
ATOM      8  C   LIG    1       -0.368   1.509  -2.462  0.00  0.00    +0.040 C 
ATOM      9  C   LIG    1       -0.917   2.006  -1.121  0.00  0.00    +0.070 C 
ATOM     10  C   LIG    1       -0.018   1.503   0.010  0.00  0.00    +0.160 C 
ATOM     11  H   LIG    1        1.325   3.019  -0.223  0.00  0.00    +0.420 HD
BRANCH   5  13
ATOM     12  C   LIG    1        3.607   2.119   0.752  0.00  0.00    +0.080 C 
ATOM     13  C   LIG    1        2.185   1.590   0.949  0.00  0.00    +0.160 C 
ATOM     14  C   LIG    1        1.609   2.150   2.251  0.00  0.00    +0.080 C 
ENDBRANCH   5  13
ENDBRANCH   1  10
BRANCH   2  15
ATOM     15  C   LIG    1       -1.131  -2.159   0.103  0.00  0.00    +0.290 C 
BRANCH  15  16
ATOM     16  C   LIG    1       -2.559  -2.689   0.239  0.00  0.00    +0.160 C 
BRANCH  16  17
ATOM     17  C   LIG    1       -2.539  -4.196   0.231  0.00  0.00    +0.190 A 
ATOM     18  N   LIG    1       -2.637  -4.952  -0.828  0.00  0.00    -0.480 NA
ATOM     19  C   LIG    1       -2.578  -6.240  -0.459  0.00  0.00    +0.160 A 
ATOM     20  C   LIG    1       -2.447  -6.284   0.881  0.00  0.00    +0.140 A 
ATOM     21  N   LIG    1       -2.422  -4.988   1.319  0.00  0.00    -0.460 N 
ATOM     22  C   LIG    1       -2.293  -4.542   2.709  0.00  0.00    +0.320 C 
ENDBRANCH  16  17
ENDBRANCH  15  16
ENDBRANCH   2  15
TORSDOF 5
