REMARK  Name = ZINCkj000005f7AW.0
REMARK                            x       y       z     vdW  Elec       q    Type
REMARK                         _______ _______ _______ _____ _____    ______ ____
ROOT
ATOM      1  C   LIG    1       -2.038   3.528  -2.369  0.00  0.00    +0.510 C 
ATOM      2  N   LIG    1       -1.760   3.360  -3.677  0.00  0.00    -0.700 N 
ATOM      3  H   LIG    1       -0.933   2.929  -3.946  0.00  0.00    +0.410 HD
ATOM      4  O   LIG    1       -3.072   4.067  -2.034  0.00  0.00    -0.520 OA
ENDROOT
BRANCH   1  10
ATOM      5  N   LIG    1       -1.201   3.867  -0.115  0.00  0.00    -0.370 N 
ATOM      6  C   LIG    1       -0.206   3.454   0.881  0.00  0.00    +0.250 C 
ATOM      7  C   LIG    1       -0.468   2.006   1.303  0.00  0.00    +0.060 C 
ATOM      8  C   LIG    1       -0.373   1.097   0.075  0.00  0.00    +0.060 C 
ATOM      9  C   LIG    1       -1.364   1.583  -0.988  0.00  0.00    +0.090 C 
ATOM     10  C   LIG    1       -1.066   3.046  -1.324  0.00  0.00    +0.170 C 
ATOM     11  H   LIG    1       -2.127   3.750   0.268  0.00  0.00    +0.430 HD
BRANCH   5  13
ATOM     12  C   LIG    1       -1.234   6.147   0.778  0.00  0.00    +0.090 C 
ATOM     13  C   LIG    1       -0.989   5.279  -0.458  0.00  0.00    +0.150 C 
ATOM     14  C   LIG    1        0.449   5.476  -0.942  0.00  0.00    +0.090 C 
ENDBRANCH   5  13
ENDBRANCH   1  10
BRANCH   2  15
ATOM     15  C   LIG    1       -2.705   3.829  -4.694  0.00  0.00    +0.290 C 
BRANCH  15  16
ATOM     16  C   LIG    1       -2.153   3.518  -6.086  0.00  0.00    +0.160 C 
BRANCH  16  17
ATOM     17  C   LIG    1       -3.125   4.001  -7.131  0.00  0.00    +0.190 A 
ATOM     18  N   LIG    1       -3.130   5.186  -7.677  0.00  0.00    -0.480 NA
ATOM     19  C   LIG    1       -4.133   5.262  -8.563  0.00  0.00    +0.160 A 
ATOM     20  C   LIG    1       -4.776   4.078  -8.567  0.00  0.00    +0.130 A 
ATOM     21  N   LIG    1       -4.133   3.276  -7.663  0.00  0.00    -0.460 N 
ATOM     22  C   LIG    1       -4.476   1.891  -7.332  0.00  0.00    +0.330 C 
ENDBRANCH  16  17
ENDBRANCH  15  16
ENDBRANCH   2  15
TORSDOF 5
