REMARK  Name = ZINCrg00000JVKnx.0
REMARK                            x       y       z     vdW  Elec       q    Type
REMARK                         _______ _______ _______ _____ _____    ______ ____
ROOT
ATOM      1  C   LIG    1       -0.336   7.366  -1.049  0.00  0.00    -0.020 A 
ATOM      2  C   LIG    1        0.342   8.162  -1.909  0.00  0.00    +0.150 A 
ATOM      3  N   LIG    1        0.061   9.435  -1.546  0.00  0.00    -0.290 N 
ATOM      4  N   LIG    1       -0.727   9.400  -0.529  0.00  0.00    -0.070 NA
ATOM      5  N   LIG    1       -0.983   8.181  -0.207  0.00  0.00    -0.260 NA
ENDROOT
BRANCH   1   6
ATOM      6  C   LIG    1       -0.353   5.859  -1.037  0.00  0.00    +0.110 C 
BRANCH   6   7
ATOM      7  C   LIG    1        0.068   5.355   0.344  0.00  0.00    +0.320 C 
BRANCH   7  12
ATOM      8  O   LIG    1        0.027  -0.032  -0.131  0.00  0.00    -0.500 OA
ATOM      9  C   LIG    1        0.005   1.180  -0.110  0.00  0.00    +0.520 C 
ATOM     10  C   LIG    1       -1.314   1.911  -0.102  0.00  0.00    +0.090 C 
ATOM     11  C   LIG    1       -1.174   3.186   0.739  0.00  0.00    +0.300 C 
ATOM     12  N   LIG    1        0.051   3.890   0.356  0.00  0.00    -0.620 N 
ATOM     13  C   LIG    1        1.159   3.212   0.015  0.00  0.00    +0.710 C 
ATOM     14  O   LIG    1        2.187   3.825  -0.197  0.00  0.00    -0.550 OA
ATOM     15  N   LIG    1        1.158   1.874  -0.098  0.00  0.00    -0.680 N 
ATOM     16  H   LIG    1        2.002   1.400  -0.172  0.00  0.00    +0.430 HD
ENDBRANCH   7  12
ENDBRANCH   6   7
ENDBRANCH   1   6
BRANCH   3  17
ATOM     17  C   LIG    1        0.571  10.645  -2.195  0.00  0.00    +0.390 C 
BRANCH  17  18
ATOM     18  C   LIG    1       -0.584  11.525  -2.597  0.00  0.00    -0.110 A 
ATOM     19  C   LIG    1       -1.159  11.383  -3.846  0.00  0.00    +0.040 A 
ATOM     20  C   LIG    1       -2.222  12.187  -4.213  0.00  0.00    +0.030 A 
ATOM     21  C   LIG    1       -2.704  13.140  -3.334  0.00  0.00    -0.100 A 
ATOM     22  C   LIG    1       -2.125  13.285  -2.087  0.00  0.00    +0.030 A 
ATOM     23  C   LIG    1       -1.065  12.478  -1.719  0.00  0.00    +0.050 A 
BRANCH  21  24
ATOM     24  C   LIG    1       -3.859  14.020  -3.736  0.00  0.00    +0.090 C 
ATOM     25  C   LIG    1       -4.293  15.014  -2.643  0.00  0.00    +0.240 C 
ATOM     26  O   LIG    1       -5.642  14.643  -3.003  0.00  0.00    -0.370 OA
ATOM     27  F   LIG    1       -3.688  14.605  -4.996  0.00  0.00    -0.170 F 
ATOM     28  C   LIG    1       -5.239  13.365  -3.536  0.00  0.00    +0.240 C 
ENDBRANCH  21  24
ENDBRANCH  17  18
ENDBRANCH   3  17
TORSDOF 6
