REMARK  Name = ZINCnE00000nHDNQ.0
REMARK                            x       y       z     vdW  Elec       q    Type
REMARK                         _______ _______ _______ _____ _____    ______ ____
ROOT
ATOM      1  N   LIG    1       -0.235   0.255  -0.257  0.00  0.00    -0.260 N 
ATOM      2  C   LIG    1        1.082   0.011  -0.502  0.00  0.00    +0.130 A 
ATOM      3  C   LIG    1        1.683   1.223  -0.556  0.00  0.00    +0.010 A 
ATOM      4  N   LIG    1        0.725   2.133  -0.345  0.00  0.00    -0.200 NA
ATOM      5  N   LIG    1       -0.397   1.529  -0.172  0.00  0.00    -0.080 NA
ENDROOT
BRANCH   1  13
ATOM      6  C   LIG    1       -2.017   0.465   1.953  0.00  0.00    +0.110 C 
ATOM      7  C   LIG    1       -2.130  -0.648   0.943  0.00  0.00    -0.050 A 
ATOM      8  C   LIG    1       -3.122  -1.600   1.073  0.00  0.00    +0.050 A 
ATOM      9  C   LIG    1       -3.224  -2.625   0.150  0.00  0.00    +0.040 A 
ATOM     10  C   LIG    1       -2.335  -2.697  -0.908  0.00  0.00    -0.030 A 
ATOM     11  C   LIG    1       -1.343  -1.744  -1.045  0.00  0.00    +0.040 A 
ATOM     12 CL   LIG    1       -2.465  -3.986  -2.064  0.00  0.00    -0.060 Cl
ATOM     13  C   LIG    1       -1.240  -0.714  -0.120  0.00  0.00    +0.140 A 
ENDBRANCH   1  13
BRANCH   3  14
ATOM     14  C   LIG    1        3.144   1.494  -0.804  0.00  0.00    +0.150 C 
BRANCH  14  15
ATOM     15  C   LIG    1        3.292   2.449  -1.990  0.00  0.00    -0.100 C 
BRANCH  15  16
ATOM     16  C   LIG    1        2.693   3.786  -1.635  0.00  0.00    +0.520 C 
ATOM     17  O   LIG    1        1.770   4.235  -2.293  0.00  0.00    -0.680 OA
ATOM     18  O   LIG    1        3.132   4.419  -0.690  0.00  0.00    -0.690 OA
ENDBRANCH  15  16
BRANCH  15  19
ATOM     19  C   LIG    1        4.775   2.626  -2.321  0.00  0.00    +0.060 C 
BRANCH  19  20
ATOM     20  C   LIG    1        4.918   3.481  -3.581  0.00  0.00    +0.450 C 
ATOM     21  F   LIG    1        4.274   2.848  -4.650  0.00  0.00    -0.190 F 
ATOM     22  F   LIG    1        6.274   3.643  -3.884  0.00  0.00    -0.200 F 
ATOM     23  F   LIG    1        4.336   4.735  -3.364  0.00  0.00    -0.160 F 
ENDBRANCH  19  20
ENDBRANCH  15  19
ENDBRANCH  14  15
ENDBRANCH   3  14
TORSDOF 6
