REMARK  Name = ZINCrH000004shtI.0
REMARK                            x       y       z     vdW  Elec       q    Type
REMARK                         _______ _______ _______ _____ _____    ______ ____
ROOT
ATOM      1  C   LIG    1       -0.009  -0.013   0.024  0.00  0.00    +0.110 C 
ENDROOT
BRANCH   1   2
ATOM      2  C   LIG    1       -0.024   1.493   0.036  0.00  0.00    -0.160 A 
ATOM      3  C   LIG    1       -1.111   2.281   0.035  0.00  0.00    +0.240 A 
ATOM      4  N   LIG    1       -0.734   3.596   0.050  0.00  0.00    -0.590 N 
ATOM      5  H   LIG    1       -1.344   4.351   0.054  0.00  0.00    +0.420 HD
ATOM      6  C   LIG    1        0.640   3.690   0.052  0.00  0.00    +0.100 A 
ATOM      7  C   LIG    1        1.527   4.761   0.060  0.00  0.00    -0.010 A 
ATOM      8  C   LIG    1        2.885   4.525   0.060  0.00  0.00    +0.030 A 
ATOM      9  C   LIG    1        3.378   3.228   0.051  0.00  0.00    -0.020 A 
ATOM     10  C   LIG    1        2.524   2.160   0.043  0.00  0.00    +0.050 A 
ATOM     11  C   LIG    1        1.145   2.376   0.043  0.00  0.00    -0.100 A 
ENDBRANCH   1   2
BRANCH   1  12
ATOM     12  C   LIG    1       -0.715  -0.532   1.251  0.00  0.00    -0.070 A 
ATOM     13  C   LIG    1       -2.040  -0.208   1.474  0.00  0.00    +0.010 A 
ATOM     14  C   LIG    1       -2.689  -0.687   2.597  0.00  0.00    +0.000 A 
ATOM     15  C   LIG    1       -2.010  -1.483   3.501  0.00  0.00    +0.000 A 
ATOM     16  C   LIG    1       -0.683  -1.803   3.280  0.00  0.00    +0.010 A 
ATOM     17  C   LIG    1       -0.036  -1.327   2.155  0.00  0.00    +0.000 A 
ENDBRANCH   1  12
BRANCH   1  18
ATOM     18  C   LIG    1       -0.725  -0.521  -1.229  0.00  0.00    +0.280 C 
BRANCH  18  20
ATOM     19  C   LIG    1       -1.165  -2.651  -2.329  0.00  0.00    +0.600 C 
ATOM     20  N   LIG    1       -0.607  -1.980  -1.302  0.00  0.00    -0.710 N 
ATOM     21  H   LIG    1       -0.127  -2.462  -0.611  0.00  0.00    +0.400 HD
ATOM     22  O   LIG    1       -1.845  -2.058  -3.144  0.00  0.00    -0.520 OA
BRANCH  19  25
ATOM     23  C   LIG    1       -3.174  -4.950  -1.438  0.00  0.00    +0.120 C 
ATOM     24  C   LIG    1       -1.819  -5.107  -2.079  0.00  0.00    -0.150 A 
ATOM     25  C   LIG    1       -0.951  -4.100  -2.463  0.00  0.00    -0.040 A 
ATOM     26  N   LIG    1        0.146  -4.722  -2.988  0.00  0.00    -0.270 N 
ATOM     27  N   LIG    1       -0.017  -5.995  -2.943  0.00  0.00    -0.280 NA
ATOM     28  C   LIG    1        1.328  -4.041  -3.521  0.00  0.00    +0.370 C 
ATOM     29  C   LIG    1       -1.174  -6.300  -2.413  0.00  0.00    +0.200 A 
ENDBRANCH  19  25
ENDBRANCH  18  20
ENDBRANCH   1  18
TORSDOF 5
