REMARK  Name = ZINCvU00000006DO.0
REMARK                            x       y       z     vdW  Elec       q    Type
REMARK                         _______ _______ _______ _____ _____    ______ ____
ROOT
ATOM      1  C   LIG    1        1.712   8.428  -2.793  0.00  0.00    +0.460 A 
ATOM      2  N   LIG    1        0.757   8.014  -3.579  0.00  0.00    -0.570 NA
ATOM      3  C   LIG    1       -0.004   8.879  -4.270  0.00  0.00    +0.540 A 
ATOM      4  C   LIG    1        0.255  10.324  -4.129  0.00  0.00    -0.210 A 
ATOM      5  C   LIG    1        1.280  10.705  -3.281  0.00  0.00    +0.050 A 
ATOM      6  S   LIG    1        1.420  12.457  -3.256  0.00  0.00    +0.200 S 
ATOM      7  C   LIG    1        0.095  12.649  -4.388  0.00  0.00    -0.040 A 
ATOM      8  C   LIG    1       -0.403  11.466  -4.747  0.00  0.00    +0.010 A 
ATOM      9  O   LIG    1       -0.894   8.476  -5.002  0.00  0.00    -0.460 OA
ATOM     10  N   LIG    1        1.992   9.729  -2.619  0.00  0.00    -0.580 N 
ATOM     11  H   LIG    1        2.710   9.986  -2.019  0.00  0.00    +0.430 HD
ENDROOT
BRANCH   8  12
ATOM     12  C   LIG    1       -1.532  11.325  -5.697  0.00  0.00    -0.040 A 
ATOM     13  C   LIG    1       -1.430  10.454  -6.781  0.00  0.00    +0.060 A 
ATOM     14  C   LIG    1       -2.487  10.323  -7.659  0.00  0.00    +0.000 A 
ATOM     15  C   LIG    1       -3.641  11.061  -7.472  0.00  0.00    +0.010 A 
ATOM     16  C   LIG    1       -3.746  11.931  -6.401  0.00  0.00    -0.010 A 
ATOM     17  C   LIG    1       -2.699  12.066  -5.513  0.00  0.00    +0.020 A 
ENDBRANCH   8  12
BRANCH   1  19
ATOM     18  C   LIG    1        3.665   6.907  -2.940  0.00  0.00    +0.110 C 
ATOM     19  C   LIG    1        2.528   7.405  -2.045  0.00  0.00    +0.080 C 
BRANCH  19  20
ATOM     20  S   LIG    1        1.471   6.011  -1.581  0.00  0.00    +0.150 S 
BRANCH  20  21
ATOM     21  C   LIG    1        2.609   5.071  -0.620  0.00  0.00    +0.200 A 
ATOM     22  N   LIG    1        3.861   5.382  -0.364  0.00  0.00    -0.330 NA
ATOM     23  N   LIG    1        4.411   4.477   0.363  0.00  0.00    -0.020 NA
ATOM     24  N   LIG    1        3.567   3.539   0.626  0.00  0.00    -0.060 NA
ATOM     25  N   LIG    1        2.359   3.889  -0.001  0.00  0.00    -0.310 N 
BRANCH  25  26
ATOM     26  C   LIG    1        1.155   3.170   0.008  0.00  0.00    +0.120 A 
ATOM     27  C   LIG    1        1.174   1.782   0.000  0.00  0.00    +0.070 A 
ATOM     28  C   LIG    1       -0.013   1.076   0.008  0.00  0.00    +0.060 A 
ATOM     29  C   LIG    1       -1.221   1.751   0.017  0.00  0.00    -0.020 A 
ATOM     30  C   LIG    1       -1.242   3.135   0.030  0.00  0.00    +0.070 A 
ATOM     31 CL   LIG    1       -2.711   0.860   0.020  0.00  0.00    -0.050 Cl
ATOM     32  C   LIG    1       -0.058   3.845   0.022  0.00  0.00    +0.050 A 
ENDBRANCH  25  26
ENDBRANCH  20  21
ENDBRANCH  19  20
ENDBRANCH   1  19
TORSDOF 5
