REMARK  Name = ZINCvU0000000A0j.0
REMARK                            x       y       z     vdW  Elec       q    Type
REMARK                         _______ _______ _______ _____ _____    ______ ____
ROOT
ATOM      1  N   LIG    1        1.171   2.426   0.004  0.00  0.00    -0.490 N 
ATOM      2  C   LIG    1        1.149   3.683   0.505  0.00  0.00    +0.560 A 
ATOM      3  C   LIG    1       -0.135   4.396   0.498  0.00  0.00    -0.200 A 
ATOM      4  C   LIG    1       -0.258   5.694   0.992  0.00  0.00    +0.100 A 
ATOM      5  C   LIG    1       -1.484   6.319   0.962  0.00  0.00    +0.000 A 
ATOM      6  C   LIG    1       -2.597   5.668   0.445  0.00  0.00    +0.070 A 
ATOM      7  C   LIG    1       -2.499   4.387  -0.048  0.00  0.00    +0.030 A 
ATOM      8  C   LIG    1       -1.265   3.730  -0.029  0.00  0.00    +0.160 A 
ATOM      9  N   LIG    1       -1.125   2.472  -0.510  0.00  0.00    -0.530 NA
ATOM     10  O   LIG    1        2.158   4.204   0.946  0.00  0.00    -0.490 OA
ATOM     11  C   LIG    1        0.030   1.855  -0.488  0.00  0.00    +0.370 A 
ENDROOT
BRANCH   1  17
ATOM     12  C   LIG    1        5.322   1.165  -2.312  0.00  0.00    +0.100 C 
ATOM     13  C   LIG    1        4.402   1.076  -1.121  0.00  0.00    -0.080 A 
ATOM     14  C   LIG    1        4.744   0.280  -0.043  0.00  0.00    +0.030 A 
ATOM     15  C   LIG    1        3.902   0.195   1.051  0.00  0.00    +0.040 A 
ATOM     16  C   LIG    1        2.718   0.905   1.069  0.00  0.00    +0.040 A 
ATOM     17  C   LIG    1        2.372   1.705  -0.012  0.00  0.00    +0.090 A 
ATOM     18  C   LIG    1        3.216   1.784  -1.111  0.00  0.00    +0.040 A 
ENDBRANCH   1  17
BRANCH  11  19
ATOM     19  S   LIG    1        0.119   0.216  -1.128  0.00  0.00    +0.030 S 
BRANCH  19  20
ATOM     20  C   LIG    1       -1.606  -0.024  -1.619  0.00  0.00    +0.240 C 
BRANCH  20  21
ATOM     21  C   LIG    1       -1.773  -1.400  -2.212  0.00  0.00    -0.050 A 
ATOM     22  C   LIG    1       -2.082  -2.525  -1.542  0.00  0.00    +0.200 A 
ATOM     23  N   LIG    1       -2.138  -3.529  -2.429  0.00  0.00    -0.470 NA
ATOM     24  C   LIG    1       -1.865  -3.052  -3.620  0.00  0.00    +0.250 A 
ATOM     25  O   LIG    1       -1.635  -1.732  -3.510  0.00  0.00    -0.190 OA
BRANCH  24  26
ATOM     26  C   LIG    1       -1.819  -3.835  -4.874  0.00  0.00    -0.030 A 
ATOM     27  C   LIG    1       -1.522  -3.205  -6.083  0.00  0.00    +0.040 A 
ATOM     28  C   LIG    1       -1.476  -3.942  -7.248  0.00  0.00    +0.010 A 
ATOM     29  C   LIG    1       -1.734  -5.301  -7.221  0.00  0.00    +0.030 A 
ATOM     30  C   LIG    1       -2.035  -5.931  -6.027  0.00  0.00    +0.010 A 
ATOM     31  C   LIG    1       -2.079  -5.206  -4.854  0.00  0.00    +0.070 A 
ENDBRANCH  24  26
ENDBRANCH  20  21
ENDBRANCH  19  20
ENDBRANCH  11  19
TORSDOF 5
