REMARK  Name = ZINCqH00000519kF.0
REMARK                            x       y       z     vdW  Elec       q    Type
REMARK                         _______ _______ _______ _____ _____    ______ ____
ROOT
ATOM      1  O   LIG    1        7.418   1.660  -0.448  0.00  0.00    -0.500 OA
ATOM      2  C   LIG    1        6.811   1.770  -1.493  0.00  0.00    +0.520 C 
ATOM      3  N   LIG    1        7.465   1.659  -2.667  0.00  0.00    -0.620 N 
ATOM      4  H   LIG    1        6.979   1.747  -3.502  0.00  0.00    +0.420 HD
ENDROOT
BRANCH   3   5
ATOM      5  C   LIG    1        8.838   1.419  -2.680  0.00  0.00    +0.040 A 
ATOM      6  C   LIG    1        9.634   1.278  -3.769  0.00  0.00    -0.090 A 
ATOM      7  C   LIG    1       10.971   1.049  -3.480  0.00  0.00    +0.180 A 
ATOM      8  N   LIG    1       11.293   0.988  -2.213  0.00  0.00    -0.490 NA
ATOM      9  S   LIG    1        9.873   1.233  -1.319  0.00  0.00    +0.360 S 
BRANCH   7  10
ATOM     10  C   LIG    1       11.983   0.876  -4.551  0.00  0.00    -0.040 A 
ATOM     11  C   LIG    1       11.601   0.942  -5.890  0.00  0.00    +0.040 A 
ATOM     12  C   LIG    1       12.547   0.785  -6.883  0.00  0.00    +0.010 A 
ATOM     13  C   LIG    1       13.870   0.552  -6.551  0.00  0.00    +0.020 A 
ATOM     14  C   LIG    1       14.253   0.481  -5.224  0.00  0.00    +0.010 A 
ATOM     15  C   LIG    1       13.316   0.642  -4.223  0.00  0.00    +0.050 A 
ENDBRANCH   7  10
ENDBRANCH   3   5
BRANCH   2  16
ATOM     16  C   LIG    1        5.327   2.029  -1.478  0.00  0.00    +0.060 C 
BRANCH  16  17
ATOM     17  C   LIG    1        4.837   2.110  -0.031  0.00  0.00    +0.370 C 
BRANCH  17  18
ATOM     18  N   LIG    1        3.394   2.362  -0.017  0.00  0.00    -0.550 N 
ATOM     19  C   LIG    1        2.796   3.570  -0.005  0.00  0.00    +0.640 A 
ATOM     20  O   LIG    1        1.464   3.409   0.006  0.00  0.00    -0.230 OA
ATOM     21  C   LIG    1        1.175   2.085   0.002  0.00  0.00    +0.040 A 
ATOM     22  C   LIG    1       -0.017   1.377   0.010  0.00  0.00    +0.060 A 
ATOM     23  C   LIG    1        0.002  -0.004   0.002  0.00  0.00    +0.030 A 
ATOM     24  C   LIG    1        1.206  -0.686  -0.013  0.00  0.00    +0.040 A 
ATOM     25  C   LIG    1        2.399   0.011  -0.020  0.00  0.00    +0.040 A 
ATOM     26  O   LIG    1        3.375   4.640  -0.005  0.00  0.00    -0.480 OA
ATOM     27  C   LIG    1        2.388   1.396  -0.013  0.00  0.00    +0.070 A 
ENDBRANCH  17  18
ENDBRANCH  16  17
ENDBRANCH   2  16
TORSDOF 5
