REMARK  Name = ZINCtj00000s2iwT.0
REMARK                            x       y       z     vdW  Elec       q    Type
REMARK                         _______ _______ _______ _____ _____    ______ ____
ROOT
ATOM      1  C   LIG    1       -0.308   1.119  -2.453  0.00  0.00    +0.740 C 
ENDROOT
BRANCH   1   2
ATOM      2  N   LIG    1       -0.840   1.560  -3.642  0.00  0.00    -0.610 NA
ATOM      3  C   LIG    1       -0.334   1.056  -4.928  0.00  0.00    +0.320 C 
ATOM      4  C   LIG    1       -1.532   0.576  -5.763  0.00  0.00    +0.210 C 
ATOM      5  N   LIG    1       -2.517   1.661  -5.865  0.00  0.00    -0.470 N 
ATOM      6  C   LIG    1       -3.057   2.017  -4.546  0.00  0.00    +0.220 C 
ATOM      7  C   LIG    1       -1.926   2.551  -3.662  0.00  0.00    +0.320 C 
BRANCH   5   8
ATOM      8  C   LIG    1       -3.537   1.326  -6.748  0.00  0.00    +0.300 A 
ATOM      9  C   LIG    1       -3.227   0.958  -8.053  0.00  0.00    -0.040 A 
ATOM     10  C   LIG    1       -4.252   0.627  -8.920  0.00  0.00    +0.090 A 
ATOM     11  C   LIG    1       -5.558   0.675  -8.452  0.00  0.00    -0.050 A 
ATOM     12  C   LIG    1       -5.794   1.049  -7.144  0.00  0.00    +0.290 A 
ATOM     13  N   LIG    1       -4.796   1.355  -6.337  0.00  0.00    -0.520 NA
ENDBRANCH   5   8
ENDBRANCH   1   2
BRANCH   1  14
ATOM     14  N   LIG    1        0.973   0.899  -2.354  0.00  0.00    -0.630 NA
ATOM     15  H   LIG    1        1.541   0.981  -3.136  0.00  0.00    +0.440 HD
BRANCH  14  16
ATOM     16  C   LIG    1        1.554   0.528  -1.062  0.00  0.00    +0.230 C 
ATOM     17  C   LIG    1        1.477  -0.990  -0.885  0.00  0.00    +0.070 C 
BRANCH  16  18
ATOM     18  C   LIG    1        3.017   0.974  -1.014  0.00  0.00    +0.210 C 
BRANCH  18  20
ATOM     19  C   LIG    1        5.155   0.590  -2.027  0.00  0.00    +0.230 C 
ATOM     20  O   LIG    1        3.768   0.248  -1.989  0.00  0.00    -0.390 OA
ENDBRANCH  18  20
ENDBRANCH  16  18
ENDBRANCH  14  16
ENDBRANCH   1  14
BRANCH   1  21
ATOM     21  N   LIG    1       -1.127   0.911  -1.369  0.00  0.00    -0.710 NA
ATOM     22  H   LIG    1       -0.805   1.099  -0.474  0.00  0.00    +0.430 HD
BRANCH  21  23
ATOM     23  C   LIG    1       -2.488   0.404  -1.566  0.00  0.00    +0.340 C 
BRANCH  23  24
ATOM     24  C   LIG    1       -2.504  -1.111  -1.355  0.00  0.00    +0.120 C 
ATOM     25  O   LIG    1       -2.191  -1.408   0.009  0.00  0.00    -0.370 OA
ATOM     26  C   LIG    1       -2.229  -2.805   0.314  0.00  0.00    +0.200 C 
ATOM     27  C   LIG    1       -3.622  -3.353  -0.012  0.00  0.00    +0.200 C 
ATOM     28  O   LIG    1       -3.935  -3.056  -1.377  0.00  0.00    -0.360 OA
ATOM     29  C   LIG    1       -3.896  -1.659  -1.682  0.00  0.00    +0.090 C 
ATOM     30  C   LIG    1       -4.192  -1.450  -3.168  0.00  0.00    +0.070 C 
ATOM     31  C   LIG    1       -4.944  -0.923  -0.844  0.00  0.00    +0.040 C 
ENDBRANCH  23  24
ENDBRANCH  21  23
ENDBRANCH   1  21
TORSDOF 9
