REMARK  Name = ZINCrH00000No4t7.0
REMARK                            x       y       z     vdW  Elec       q    Type
REMARK                         _______ _______ _______ _____ _____    ______ ____
ROOT
ATOM      1  C   LIG    1        2.491   1.264  -0.118  0.00  0.00    +0.160 A 
ATOM      2  C   LIG    1        1.198   1.774  -0.155  0.00  0.00    +0.000 A 
ATOM      3  C   LIG    1        0.121   0.919  -0.251  0.00  0.00    +0.090 A 
ATOM      4  C   LIG    1        0.330  -0.460  -0.310  0.00  0.00    -0.030 A 
ATOM      5  C   LIG    1        1.629  -0.969  -0.273  0.00  0.00    +0.040 A 
ATOM      6  C   LIG    1        2.702  -0.109  -0.177  0.00  0.00    +0.020 A 
ENDROOT
BRANCH   4   7
ATOM      7  C   LIG    1       -0.823  -1.380  -0.413  0.00  0.00    +0.220 A 
ATOM      8  N   LIG    1       -2.073  -1.110  -0.100  0.00  0.00    -0.280 NA
ATOM      9  N   LIG    1       -2.810  -2.141  -0.323  0.00  0.00    -0.290 NA
ATOM     10  C   LIG    1       -2.080  -3.118  -0.782  0.00  0.00    +0.190 A 
ATOM     11  C   LIG    1       -2.548  -4.493  -1.187  0.00  0.00    +0.150 C 
ATOM     12  C   LIG    1       -1.609  -5.539  -0.579  0.00  0.00    +0.020 C 
ATOM     13  C   LIG    1       -0.442  -5.794  -1.527  0.00  0.00    +0.020 C 
ATOM     14  C   LIG    1       -0.070  -4.515  -2.277  0.00  0.00    +0.030 C 
ATOM     15  C   LIG    1        0.371  -3.441  -1.278  0.00  0.00    +0.290 C 
ATOM     16  N   LIG    1       -0.796  -2.674  -0.845  0.00  0.00    -0.470 N 
ENDBRANCH   4   7
BRANCH   1  19
ATOM     17  O   LIG    1        4.802   0.864  -1.375  0.00  0.00    -0.520 OA
ATOM     18  C   LIG    1        4.737   1.836  -0.645  0.00  0.00    +0.550 C 
ATOM     19  N   LIG    1        3.580   2.133  -0.020  0.00  0.00    -0.670 N 
ATOM     20  H   LIG    1        3.504   2.949   0.497  0.00  0.00    +0.420 HD
BRANCH  18  21
ATOM     21  C   LIG    1        5.914   2.683  -0.447  0.00  0.00    -0.080 C 
ATOM     22  C   LIG    1        7.071   2.387  -1.073  0.00  0.00    +0.140 C 
BRANCH  22  23
ATOM     23  C   LIG    1        8.255   3.239  -0.873  0.00  0.00    -0.130 A 
ATOM     24  C   LIG    1        9.464   2.942  -1.517  0.00  0.00    +0.090 A 
ATOM     25  C   LIG    1       10.546   3.774  -1.296  0.00  0.00    -0.030 A 
ATOM     26  C   LIG    1       10.402   4.863  -0.454  0.00  0.00    +0.270 A 
ATOM     27  N   LIG    1        9.252   5.119   0.140  0.00  0.00    -0.480 NA
ATOM     28  C   LIG    1        8.191   4.362  -0.043  0.00  0.00    +0.280 A 
ENDBRANCH  22  23
ENDBRANCH  18  21
ENDBRANCH   1  19
TORSDOF 4
