REMARK  Name = ZINCtj00001UqOw3.0
REMARK                            x       y       z     vdW  Elec       q    Type
REMARK                         _______ _______ _______ _____ _____    ______ ____
ROOT
ATOM      1  C   LIG    1       -2.724   4.639   0.287  0.00  0.00    +0.550 C 
ATOM      2  N   LIG    1       -1.829   3.668   0.016  0.00  0.00    -0.750 N 
ATOM      3  H   LIG    1       -1.418   3.619  -0.861  0.00  0.00    +0.390 HD
ATOM      4  O   LIG    1       -3.240   4.701   1.388  0.00  0.00    -0.530 OA
ENDROOT
BRANCH   1   6
ATOM      5  C   LIG    1       -3.963   6.560  -0.437  0.00  0.00    +0.190 C 
ATOM      6  C   LIG    1       -3.065   5.586  -0.709  0.00  0.00    -0.110 C 
BRANCH   5  10
ATOM      7  C   LIG    1       -6.527  10.473  -1.953  0.00  0.00    +0.350 C 
ATOM      8  N   LIG    1       -5.652   9.335  -2.246  0.00  0.00    -0.520 N 
ATOM      9  C   LIG    1       -5.248   8.528  -1.229  0.00  0.00    +0.410 A 
ATOM     10  C   LIG    1       -4.422   7.453  -1.505  0.00  0.00    -0.270 A 
ATOM     11  C   LIG    1       -4.011   7.237  -2.903  0.00  0.00    +0.560 A 
ATOM     12  N   LIG    1       -4.466   8.087  -3.848  0.00  0.00    -0.550 N 
ATOM     13  C   LIG    1       -4.080   7.893  -5.247  0.00  0.00    +0.360 C 
ATOM     14  O   LIG    1       -3.281   6.309  -3.201  0.00  0.00    -0.510 OA
ATOM     15  C   LIG    1       -5.268   9.112  -3.513  0.00  0.00    +0.690 A 
ATOM     16  O   LIG    1       -5.657   9.863  -4.386  0.00  0.00    -0.520 OA
ENDBRANCH   5  10
ENDBRANCH   1   6
BRANCH   2  17
ATOM     17  C   LIG    1       -1.476   2.689   1.047  0.00  0.00    +0.320 C 
BRANCH  17  18
ATOM     18  C   LIG    1       -0.487   1.701   0.483  0.00  0.00    -0.090 A 
ATOM     19  C   LIG    1       -0.924   0.477   0.013  0.00  0.00    +0.050 A 
ATOM     20  C   LIG    1       -0.017  -0.426  -0.509  0.00  0.00    +0.060 A 
ATOM     21  C   LIG    1        1.326  -0.106  -0.561  0.00  0.00    +0.040 A 
ATOM     22  C   LIG    1        1.764   1.119  -0.090  0.00  0.00    +0.050 A 
ATOM     23  C   LIG    1        0.857   2.022   0.432  0.00  0.00    -0.140 A 
BRANCH  23  24
ATOM     24  C   LIG    1        1.333   3.356   0.945  0.00  0.00    +0.320 C 
BRANCH  24  25
ATOM     25  N   LIG    1        1.125   4.380  -0.087  0.00  0.00    -0.380 N 
ATOM     26  C   LIG    1        1.981   4.090  -1.244  0.00  0.00    +0.250 C 
ATOM     27  C   LIG    1        1.707   5.106  -2.354  0.00  0.00    +0.050 C 
ATOM     28  C   LIG    1        2.011   6.514  -1.835  0.00  0.00    +0.030 C 
ATOM     29  C   LIG    1        1.168   6.779  -0.585  0.00  0.00    +0.050 C 
ATOM     30  C   LIG    1        1.461   5.700   0.460  0.00  0.00    +0.250 C 
ATOM     31  H   LIG    1        0.158   4.373  -0.376  0.00  0.00    +0.410 HD
ENDBRANCH  24  25
ENDBRANCH  23  24
ENDBRANCH  17  18
ENDBRANCH   2  17
TORSDOF 6
