REMARK  Name = ZINCzw0000000dBP.0
REMARK                            x       y       z     vdW  Elec       q    Type
REMARK                         _______ _______ _______ _____ _____    ______ ____
ROOT
ATOM      1  C   LIG    1        4.839   3.923  -0.117  0.00  0.00    -0.070 A 
ATOM      2  C   LIG    1        3.983   3.647   0.939  0.00  0.00    +0.020 A 
ATOM      3  C   LIG    1        2.764   4.337   1.036  0.00  0.00    +0.210 A 
ATOM      4  N   LIG    1        2.394   5.240   0.153  0.00  0.00    -0.450 NA
ATOM      5  C   LIG    1        3.157   5.571  -0.890  0.00  0.00    +0.140 A 
ATOM      6  C   LIG    1        2.738   6.545  -1.815  0.00  0.00    +0.050 A 
ATOM      7  C   LIG    1        3.536   6.858  -2.873  0.00  0.00    +0.040 A 
ATOM      8  C   LIG    1        4.765   6.230  -3.058  0.00  0.00    +0.030 A 
ATOM      9  C   LIG    1        5.204   5.282  -2.181  0.00  0.00    +0.030 A 
ATOM     10  C   LIG    1        4.409   4.935  -1.083  0.00  0.00    -0.070 A 
ENDROOT
BRANCH   3  11
ATOM     11  C   LIG    1        1.859   4.032   2.169  0.00  0.00    -0.060 A 
ATOM     12  C   LIG    1        2.266   3.153   3.172  0.00  0.00    +0.040 A 
ATOM     13  C   LIG    1        1.421   2.870   4.225  0.00  0.00    +0.020 A 
ATOM     14  C   LIG    1        0.163   3.454   4.289  0.00  0.00    +0.070 A 
ATOM     15  O   LIG    1       -0.658   3.153   5.332  0.00  0.00    -0.300 OA
ATOM     16  C   LIG    1       -1.756   4.042   5.564  0.00  0.00    +0.230 C 
ATOM     17  C   LIG    1       -2.438   4.324   4.218  0.00  0.00    +0.230 C 
ATOM     18  O   LIG    1       -1.470   4.930   3.349  0.00  0.00    -0.300 OA
ATOM     19  C   LIG    1       -0.245   4.338   3.295  0.00  0.00    +0.050 A 
ATOM     20  C   LIG    1        0.598   4.624   2.235  0.00  0.00    +0.080 A 
ENDBRANCH   3  11
BRANCH   1  26
ATOM     21  C   LIG    1        6.243  -0.736  -1.351  0.00  0.00    +0.170 C 
ATOM     22  C   LIG    1        7.465   0.179  -1.455  0.00  0.00    +0.040 C 
ATOM     23  C   LIG    1        7.460   1.166  -0.283  0.00  0.00    +0.330 C 
ATOM     24  N   LIG    1        6.174   1.876  -0.268  0.00  0.00    -0.620 N 
ATOM     25  C   LIG    1        4.933   1.090  -0.255  0.00  0.00    +0.300 C 
ATOM     26  C   LIG    1        6.134   3.223  -0.261  0.00  0.00    +0.570 C 
ATOM     27  O   LIG    1        7.161   3.862  -0.373  0.00  0.00    -0.500 OA
ATOM     28  C   LIG    1        4.966   0.104  -1.433  0.00  0.00    +0.040 C 
BRANCH  21  31
ATOM     29  C   LIG    1        6.557  -3.727  -2.896  0.00  0.00    +0.000 C 
ATOM     30  C   LIG    1        7.461  -2.565  -2.459  0.00  0.00    +0.330 C 
ATOM     31  N   LIG    1        6.263  -1.705  -2.455  0.00  0.00    -0.410 N 
ATOM     32  H   LIG    1        6.067  -1.284  -3.351  0.00  0.00    +0.440 HD
ATOM     33  C   LIG    1        5.463  -2.915  -2.187  0.00  0.00    +0.330 C 
BRANCH  29  37
ATOM     34  N   LIG    1        6.156  -6.140  -2.530  0.00  0.00    -0.840 N 
ATOM     35  H   LIG    1        6.362  -6.986  -2.103  0.00  0.00    +0.420 HD
ATOM     36  H   LIG    1        5.431  -6.085  -3.171  0.00  0.00    +0.410 HD
ATOM     37  C   LIG    1        6.877  -5.041  -2.232  0.00  0.00    +0.530 C 
ATOM     38  O   LIG    1        7.785  -5.110  -1.430  0.00  0.00    -0.520 OA
ENDBRANCH  29  37
ENDBRANCH  21  31
ENDBRANCH   1  26
TORSDOF 4
