REMARK  Name = ZINCrg00000bj2DF.0
REMARK                            x       y       z     vdW  Elec       q    Type
REMARK                         _______ _______ _______ _____ _____    ______ ____
ROOT
ATOM      1  C   LIG    1        1.165   3.163  -0.014  0.00  0.00    -0.090 A 
ATOM      2  C   LIG    1        1.162   1.827  -0.414  0.00  0.00    +0.040 A 
ATOM      3  C   LIG    1       -0.015   1.110  -0.428  0.00  0.00    +0.100 A 
ATOM      4  C   LIG    1       -1.210   1.722  -0.046  0.00  0.00    -0.130 A 
ATOM      5  C   LIG    1       -2.597   1.220   0.046  0.00  0.00    +0.560 C 
ATOM      6  N   LIG    1       -3.417   2.194   0.478  0.00  0.00    -0.600 N 
ATOM      7  C   LIG    1       -2.627   3.409   0.708  0.00  0.00    +0.360 C 
ATOM      8  O   LIG    1       -2.947   0.090  -0.233  0.00  0.00    -0.510 OA
ATOM      9  C   LIG    1       -1.202   3.059   0.360  0.00  0.00    -0.080 A 
ATOM     10  C   LIG    1       -0.029   3.776   0.374  0.00  0.00    +0.090 A 
ENDROOT
BRANCH   1  17
ATOM     11  C   LIG    1        7.146   4.350   0.110  0.00  0.00    +0.090 C 
ATOM     12  C   LIG    1        5.853   3.544  -0.024  0.00  0.00    +0.020 C 
ATOM     13  C   LIG    1        4.727   4.249   0.730  0.00  0.00    +0.310 C 
ATOM     14  N   LIG    1        3.504   3.449   0.656  0.00  0.00    -0.610 N 
ATOM     15  C   LIG    1        3.437   2.127   1.282  0.00  0.00    +0.290 C 
ATOM     16  C   LIG    1        4.419   1.180   0.584  0.00  0.00    +0.100 C 
ATOM     17  C   LIG    1        2.430   3.931  -0.001  0.00  0.00    +0.560 C 
ATOM     18  O   LIG    1        2.501   4.996  -0.581  0.00  0.00    -0.520 OA
ATOM     19  S   LIG    1        6.089   1.889   0.688  0.00  0.00    -0.240 S 
ENDBRANCH   1  17
BRANCH   6  20
ATOM     20  C   LIG    1       -4.861   2.063   0.686  0.00  0.00    +0.290 C 
ATOM     21  C   LIG    1       -5.535   1.674  -0.635  0.00  0.00    +0.060 C 
ATOM     22  C   LIG    1       -7.025   1.433  -0.370  0.00  0.00    +0.100 C 
ATOM     23  C   LIG    1       -7.174   0.398   0.713  0.00  0.00    +0.520 C 
ATOM     24  N   LIG    1       -6.242   0.247   1.666  0.00  0.00    -0.670 N 
ATOM     25  H   LIG    1       -6.380  -0.427   2.349  0.00  0.00    +0.420 HD
ATOM     26  O   LIG    1       -8.155  -0.315   0.723  0.00  0.00    -0.500 OA
ATOM     27  C   LIG    1       -5.128   0.992   1.710  0.00  0.00    +0.520 C 
ATOM     28  O   LIG    1       -4.319   0.800   2.593  0.00  0.00    -0.480 OA
ENDBRANCH   6  20
TORSDOF 2
