REMARK  Name = ZINCpe00000gN9LE.0
REMARK                            x       y       z     vdW  Elec       q    Type
REMARK                         _______ _______ _______ _____ _____    ______ ____
ROOT
ATOM      1  C   LIG    1        0.661   5.834   0.029  0.00  0.00    +0.210 C 
ENDROOT
BRANCH   1   2
ATOM      2  N   LIG    1        0.407   4.391   0.023  0.00  0.00    -0.510 NA
ATOM      3  C   LIG    1        1.405   3.555   0.009  0.00  0.00    +0.390 C 
ATOM      4  N   LIG    1        2.705   3.993  -0.001  0.00  0.00    -1.050 N 
ATOM      5  H   LIG    1        3.013   4.912   0.002  0.00  0.00    +0.450 HD
ATOM      6  S   LIG    1        3.646   2.612  -0.018  0.00  0.00    +2.670 S 
ATOM      7  C   LIG    1        2.380   1.373  -0.013  0.00  0.00    -0.630 A 
ATOM      8  C   LIG    1        2.395   0.004  -0.021  0.00  0.00    +0.150 A 
ATOM      9  C   LIG    1        1.199  -0.697  -0.014  0.00  0.00    +0.040 A 
ATOM     10  C   LIG    1        0.002  -0.004   0.002  0.00  0.00    +0.070 A 
ATOM     11  C   LIG    1       -0.017   1.372   0.010  0.00  0.00    +0.100 A 
ATOM     12  O   LIG    1        4.295   2.554  -1.280  0.00  0.00    -0.930 OA
ATOM     13  O   LIG    1        4.319   2.539   1.231  0.00  0.00    -0.930 OA
ATOM     14  C   LIG    1        1.185   2.099   0.002  0.00  0.00    -0.020 A 
ENDBRANCH   1   2
BRANCH   1  15
ATOM     15  C   LIG    1        0.137   6.450  -1.270  0.00  0.00    +0.120 C 
BRANCH  15  17
ATOM     16  O   LIG    1        0.947   8.447  -0.317  0.00  0.00    -0.500 OA
ATOM     17  C   LIG    1        0.398   7.934  -1.263  0.00  0.00    +0.470 C 
BRANCH  17  18
ATOM     18  O   LIG    1        0.021   8.686  -2.309  0.00  0.00    -0.340 OA
BRANCH  18  19
ATOM     19  C   LIG    1        0.304  10.108  -2.234  0.00  0.00    +0.250 C 
BRANCH  19  20
ATOM     20  C   LIG    1       -0.187  10.785  -3.488  0.00  0.00    +0.420 C 
ATOM     21  O   LIG    1       -0.724  10.132  -4.359  0.00  0.00    -0.450 OA
BRANCH  20  22
ATOM     22  C   LIG    1       -0.023  12.180  -3.649  0.00  0.00    -0.100 A 
ATOM     23  C   LIG    1        0.561  13.046  -2.741  0.00  0.00    +0.040 A 
ATOM     24  C   LIG    1        0.514  14.321  -3.308  0.00  0.00    -0.060 A 
ATOM     25  C   LIG    1       -0.091  14.218  -4.517  0.00  0.00    +0.220 A 
ATOM     26  N   LIG    1       -0.421  12.928  -4.736  0.00  0.00    -0.520 N 
ATOM     27  H   LIG    1       -0.865  12.585  -5.527  0.00  0.00    +0.430 HD
ENDBRANCH  20  22
ENDBRANCH  19  20
ENDBRANCH  18  19
ENDBRANCH  17  18
ENDBRANCH  15  17
ENDBRANCH   1  15
TORSDOF 7
