REMARK  Name = ZINCkj000005hvwA.0
REMARK                            x       y       z     vdW  Elec       q    Type
REMARK                         _______ _______ _______ _____ _____    ______ ____
ROOT
ATOM      1  N   LIG    1       -0.082   5.251   0.029  0.00  0.00    -0.640 N 
ATOM      2  H   LIG    1       -0.931   5.718  -0.027  0.00  0.00    +0.420 HD
ATOM      3  C   LIG    1        1.067   5.949   0.123  0.00  0.00    +0.500 C 
ATOM      4  O   LIG    1        2.132   5.369   0.111  0.00  0.00    -0.490 OA
ENDROOT
BRANCH   1   9
ATOM      5  C   LIG    1        1.023   1.795  -0.621  0.00  0.00    -0.120 A 
ATOM      6  C   LIG    1       -0.008   1.076  -0.013  0.00  0.00    +0.060 A 
ATOM      7  C   LIG    1       -1.051   1.745   0.595  0.00  0.00    +0.030 A 
ATOM      8  C   LIG    1       -1.073   3.127   0.614  0.00  0.00    -0.070 A 
ATOM      9  C   LIG    1       -0.052   3.852   0.012  0.00  0.00    +0.110 A 
ATOM     10  C   LIG    1       -2.212   3.850   1.286  0.00  0.00    +0.090 C 
ATOM     11  C   LIG    1        0.997   3.189  -0.606  0.00  0.00    +0.100 A 
BRANCH   5  15
ATOM     12  C   LIG    1        3.266  -0.975  -1.941  0.00  0.00    +0.280 C 
ATOM     13  N   LIG    1        2.161  -0.267  -1.290  0.00  0.00    -0.730 N 
ATOM     14  H   LIG    1        1.445  -0.768  -0.869  0.00  0.00    +0.400 HD
ATOM     15  C   LIG    1        2.138   1.080  -1.278  0.00  0.00    +0.560 C 
ATOM     16  O   LIG    1        3.034   1.708  -1.806  0.00  0.00    -0.530 OA
ENDBRANCH   5  15
ENDBRANCH   1   9
BRANCH   3  17
ATOM     17  C   LIG    1        1.028   7.451   0.244  0.00  0.00    +0.190 C 
BRANCH  17  18
ATOM     18  N   LIG    1        2.331   8.007  -0.144  0.00  0.00    -0.620 N 
ATOM     19  H   LIG    1        2.535   7.752  -1.099  0.00  0.00    +0.440 HD
ATOM     20  H   LIG    1        3.048   7.639   0.463  0.00  0.00    +0.450 HD
ATOM     21  H   LIG    1        2.306   9.012  -0.063  0.00  0.00    +0.440 HD
ENDBRANCH  17  18
BRANCH  17  22
ATOM     22  C   LIG    1        0.719   7.838   1.692  0.00  0.00    +0.110 C 
BRANCH  22  23
ATOM     23  C   LIG    1        0.557   9.357   1.790  0.00  0.00    +0.060 C 
BRANCH  23  24
ATOM     24  S   LIG    1        0.190   9.816   3.506  0.00  0.00    -0.220 S 
ATOM     25  C   LIG    1        0.035  11.621   3.421  0.00  0.00    +0.140 C 
ENDBRANCH  23  24
ENDBRANCH  22  23
ENDBRANCH  17  22
ENDBRANCH   3  17
TORSDOF 7
