REMARK  Name = ZINCpk00000y0DHn.0
REMARK                            x       y       z     vdW  Elec       q    Type
REMARK                         _______ _______ _______ _____ _____    ______ ____
ROOT
ATOM      1  C   LIG    1        3.528   2.740   0.563  0.00  0.00    +0.280 C 
ATOM      2  C   LIG    1        3.019   4.109   1.071  0.00  0.00    +0.060 C 
ATOM      3  C   LIG    1        1.545   3.887   1.329  0.00  0.00    +0.520 C 
ATOM      4  N   LIG    1        1.135   2.758   0.725  0.00  0.00    -0.590 N 
ATOM      5  O   LIG    1        0.837   4.619   1.987  0.00  0.00    -0.510 OA
ATOM      6  C   LIG    1        2.234   2.114  -0.004  0.00  0.00    +0.290 C 
ENDROOT
BRANCH   6   7
ATOM      7  C   LIG    1        2.120   2.401  -1.479  0.00  0.00    -0.160 A 
ATOM      8  C   LIG    1        2.423   1.419  -2.410  0.00  0.00    +0.080 A 
ATOM      9  C   LIG    1        2.303   1.728  -3.757  0.00  0.00    -0.030 A 
ATOM     10  C   LIG    1        1.887   2.994  -4.123  0.00  0.00    +0.270 A 
ATOM     11  N   LIG    1        1.608   3.903  -3.210  0.00  0.00    -0.480 NA
ATOM     12  C   LIG    1        1.705   3.643  -1.921  0.00  0.00    +0.270 A 
ENDBRANCH   6   7
BRANCH   1  14
ATOM     13  C   LIG    1        5.372   1.986   1.965  0.00  0.00    +0.570 C 
ATOM     14  N   LIG    1        4.059   1.937   1.667  0.00  0.00    -0.720 N 
ATOM     15  H   LIG    1        3.465   1.369   2.183  0.00  0.00    +0.400 HD
ATOM     16  O   LIG    1        6.116   2.696   1.318  0.00  0.00    -0.500 OA
BRANCH  13  23
ATOM     17  C   LIG    1        8.248   1.878   2.468  0.00  0.00    +0.160 C 
ATOM     18  C   LIG    1        7.283   1.111   3.334  0.00  0.00    +0.130 A 
ATOM     19  N   LIG    1        7.729   0.378   4.336  0.00  0.00    -0.240 NA
ATOM     20  N   LIG    1        6.945  -0.291   5.099  0.00  0.00    -0.220 NA
ATOM     21  C   LIG    1        5.635  -0.297   4.940  0.00  0.00    +0.210 A 
ATOM     22  C   LIG    1        5.059   0.444   3.922  0.00  0.00    +0.070 A 
ATOM     23  C   LIG    1        5.910   1.173   3.081  0.00  0.00    -0.140 A 
ENDBRANCH  13  23
ENDBRANCH   1  14
BRANCH   4  24
ATOM     24  C   LIG    1       -0.234   2.240   0.783  0.00  0.00    +0.210 C 
ATOM     25  C   LIG    1       -1.206   2.918   1.750  0.00  0.00    +0.040 C 
ATOM     26  C   LIG    1       -1.351   3.135   0.242  0.00  0.00    +0.010 C 
ENDBRANCH   4  24
TORSDOF 4
