REMARK  Name = ZINCqH0000003H0M.0
REMARK                            x       y       z     vdW  Elec       q    Type
REMARK                         _______ _______ _______ _____ _____    ______ ____
ROOT
ATOM      1  N   LIG    1       -2.343  -2.745  -0.193  0.00  0.00    -0.680 N 
ATOM      2  H   LIG    1       -3.184  -2.266  -0.257  0.00  0.00    +0.410 HD
ATOM      3  C   LIG    1       -1.185  -2.064  -0.096  0.00  0.00    +0.710 C 
ATOM      4  N   LIG    1       -1.200  -0.720   0.004  0.00  0.00    -0.580 N 
ATOM      5  C   LIG    1       -2.475  -0.009   0.123  0.00  0.00    +0.300 C 
ATOM      6  O   LIG    1       -0.126  -2.661  -0.100  0.00  0.00    -0.550 OA
ENDROOT
BRANCH   1   9
ATOM      7  C   LIG    1       -3.352  -6.236   0.399  0.00  0.00    +0.120 A 
ATOM      8  C   LIG    1       -3.361  -4.852   0.412  0.00  0.00    -0.060 A 
ATOM      9  C   LIG    1       -2.333  -4.147  -0.201  0.00  0.00    +0.160 A 
ATOM     10  C   LIG    1       -1.293  -4.830  -0.816  0.00  0.00    +0.040 A 
ATOM     11  C   LIG    1       -1.282  -6.212  -0.825  0.00  0.00    -0.010 A 
ATOM     12  C   LIG    1       -2.308  -6.918  -0.219  0.00  0.00    +0.090 A 
BRANCH  12  13
ATOM     13  O   LIG    1       -2.295  -8.279  -0.229  0.00  0.00    -0.310 OA
ATOM     14  C   LIG    1       -1.193  -8.913  -0.881  0.00  0.00    +0.240 C 
ENDBRANCH  12  13
BRANCH   7  15
ATOM     15  O   LIG    1       -4.360  -6.929   0.994  0.00  0.00    -0.300 OA
BRANCH  15  17
ATOM     16  C   LIG    1       -6.435  -7.109   2.220  0.00  0.00    +0.070 C 
ATOM     17  C   LIG    1       -5.398  -6.164   1.608  0.00  0.00    +0.170 C 
ENDBRANCH  15  17
ENDBRANCH   7  15
ENDBRANCH   1   9
BRANCH   4  18
ATOM     18  C   LIG    1        0.002  -0.004  -0.005  0.00  0.00    +0.230 A 
ATOM     19  C   LIG    1        0.911  -0.160   1.033  0.00  0.00    -0.040 A 
ATOM     20  C   LIG    1        2.102   0.549   1.023  0.00  0.00    +0.180 A 
ATOM     21  C   LIG    1        2.386   1.415  -0.023  0.00  0.00    -0.160 A 
ATOM     22  C   LIG    1        1.478   1.571  -1.060  0.00  0.00    +0.180 A 
ATOM     23  C   LIG    1        0.287   0.862  -1.051  0.00  0.00    -0.050 A 
BRANCH  22  24
ATOM     24  O   LIG    1        1.757   2.420  -2.084  0.00  0.00    -0.310 OA
ATOM     25  C   LIG    1        3.002   3.117  -2.029  0.00  0.00    +0.250 C 
ENDBRANCH  22  24
BRANCH  20  26
ATOM     26  O   LIG    1        2.992   0.397   2.039  0.00  0.00    -0.310 OA
ATOM     27  C   LIG    1        4.199   1.159   1.964  0.00  0.00    +0.250 C 
ENDBRANCH  20  26
ENDBRANCH   4  18
TORSDOF 7
