REMARK  Name = ZINCvU0000000DxW.0
REMARK                            x       y       z     vdW  Elec       q    Type
REMARK                         _______ _______ _______ _____ _____    ______ ____
ROOT
ATOM      1  C   LIG    1        0.255  -0.157  -0.023  0.00  0.00    +0.140 A 
ATOM      2  N   LIG    1        1.270  -0.971  -0.200  0.00  0.00    -0.290 NA
ATOM      3  N   LIG    1        0.869  -2.190  -0.135  0.00  0.00    -0.270 NA
ATOM      4  C   LIG    1       -0.414  -2.228   0.085  0.00  0.00    +0.190 A 
ATOM      5  N   LIG    1       -0.851  -0.935   0.170  0.00  0.00    -0.450 N 
ENDROOT
BRANCH   5   6
ATOM      6  C   LIG    1       -2.221  -0.478   0.415  0.00  0.00    +0.240 C 
ATOM      7  C   LIG    1       -2.694   0.372  -0.766  0.00  0.00    +0.010 C 
ATOM      8  C   LIG    1       -4.125   0.848  -0.511  0.00  0.00    +0.030 C 
ATOM      9  C   LIG    1       -4.163   1.687   0.768  0.00  0.00    +0.010 C 
ATOM     10  C   LIG    1       -3.690   0.838   1.949  0.00  0.00    +0.030 C 
ATOM     11  C   LIG    1       -2.259   0.361   1.694  0.00  0.00    +0.010 C 
ENDBRANCH   5   6
BRANCH   1  12
ATOM     12  S   LIG    1        0.310   1.604  -0.026  0.00  0.00    +0.090 S 
BRANCH  12  13
ATOM     13  C   LIG    1        2.076   1.862  -0.329  0.00  0.00    +0.090 C 
BRANCH  13  16
ATOM     14  N   LIG    1        3.624   3.773  -0.588  0.00  0.00    -0.720 N 
ATOM     15  H   LIG    1        4.343   3.134  -0.714  0.00  0.00    +0.400 HD
ATOM     16  C   LIG    1        2.366   3.340  -0.373  0.00  0.00    +0.540 C 
ATOM     17  O   LIG    1        1.468   4.140  -0.216  0.00  0.00    -0.520 OA
BRANCH  14  19
ATOM     18  C   LIG    1        3.520   5.847   0.705  0.00  0.00    +0.040 C 
ATOM     19  C   LIG    1        3.907   5.210  -0.632  0.00  0.00    +0.170 C 
ATOM     20  C   LIG    1        3.097   5.856  -1.758  0.00  0.00    +0.040 C 
ATOM     21  C   LIG    1        5.400   5.429  -0.888  0.00  0.00    +0.040 C 
ENDBRANCH  14  19
ENDBRANCH  13  16
ENDBRANCH  12  13
ENDBRANCH   1  12
BRANCH   4  22
ATOM     22  C   LIG    1       -1.260  -3.467   0.226  0.00  0.00    +0.210 C 
BRANCH  22  23
ATOM     23  C   LIG    1       -1.670  -3.954  -1.141  0.00  0.00    -0.070 A 
ATOM     24  C   LIG    1       -2.878  -3.602  -1.658  0.00  0.00    +0.010 A 
ATOM     25  C   LIG    1       -3.274  -4.042  -2.920  0.00  0.00    +0.000 A 
ATOM     26  C   LIG    1       -2.464  -4.837  -3.671  0.00  0.00    +0.030 A 
ATOM     27  C   LIG    1       -1.208  -5.221  -3.170  0.00  0.00    -0.050 A 
ATOM     28  C   LIG    1       -0.344  -6.041  -3.916  0.00  0.00    +0.020 A 
ATOM     29  C   LIG    1        0.872  -6.378  -3.405  0.00  0.00    +0.010 A 
ATOM     30  C   LIG    1        1.267  -5.938  -2.144  0.00  0.00    +0.010 A 
ATOM     31  C   LIG    1        0.455  -5.148  -1.391  0.00  0.00    +0.040 A 
ATOM     32  C   LIG    1       -0.803  -4.769  -1.889  0.00  0.00    -0.040 A 
ENDBRANCH  22  23
ENDBRANCH   4  22
TORSDOF 7
