REMARK  Name = ZINCbu0000000GxR.0
REMARK                            x       y       z     vdW  Elec       q    Type
REMARK                         _______ _______ _______ _____ _____    ______ ____
ROOT
ATOM      1  C   LIG    1        2.209  -0.822  -0.091  0.00  0.00    +0.180 C 
ATOM      2  C   LIG    1        3.086   0.325   0.128  0.00  0.00    +0.060 C 
ATOM      3  C   LIG    1        2.358   1.440   0.917  0.00  0.00    +0.040 C 
ATOM      4  C   LIG    1        1.395   2.148   0.000  0.00  0.00    -0.040 C 
ATOM      5  C   LIG    1       -0.019   1.534   0.011  0.00  0.00    +0.060 C 
ATOM      6  C   LIG    1        0.002  -0.004   0.002  0.00  0.00    +0.240 C 
ATOM      7  C   LIG    1        1.297   3.614   0.428  0.00  0.00    +0.040 C 
ATOM      8  N   LIG    1        1.015  -0.510  -0.896  0.00  0.00    -0.500 N 
ATOM      9  H   LIG    1        1.241   0.191  -1.586  0.00  0.00    +0.430 HD
ATOM     10  H   LIG    1        0.682  -1.346  -1.352  0.00  0.00    +0.430 HD
ENDROOT
BRANCH   1  12
ATOM     11  C   LIG    1        2.139  -3.165  -0.954  0.00  0.00    +0.040 C 
ATOM     12  C   LIG    1        3.008  -1.915  -0.805  0.00  0.00    +0.000 C 
ATOM     13  C   LIG    1        3.429  -1.417  -2.189  0.00  0.00    +0.040 C 
ENDBRANCH   1  12
TORSDOF 1
