REMARK  Name = ZINCkj000005jVLM.1
REMARK                            x       y       z     vdW  Elec       q    Type
REMARK                         _______ _______ _______ _____ _____    ______ ____
ROOT
ATOM      1  S   LIG    1       -0.811   0.631  -2.536  0.00  0.00    +2.700 S 
ATOM      2  O   LIG    1        0.512   0.180  -2.797  0.00  0.00    -0.930 OA
ATOM      3  O   LIG    1       -1.584   1.359  -3.480  0.00  0.00    -0.920 OA
ENDROOT
BRANCH   1   4
ATOM      4  C   LIG    1       -1.751  -0.800  -2.120  0.00  0.00    -0.790 A 
ATOM      5  C   LIG    1       -1.114  -1.930  -1.634  0.00  0.00    +0.250 A 
ATOM      6  C   LIG    1       -1.853  -3.052  -1.303  0.00  0.00    -0.050 A 
ATOM      7  C   LIG    1       -3.228  -3.049  -1.467  0.00  0.00    +0.230 A 
ATOM      8  C   LIG    1       -3.864  -1.922  -1.958  0.00  0.00    -0.050 A 
ATOM      9  F   LIG    1       -3.949  -4.146  -1.148  0.00  0.00    -0.100 F 
ATOM     10  F   LIG    1        0.228  -1.934  -1.479  0.00  0.00    -0.100 F 
ATOM     11  C   LIG    1       -3.125  -0.797  -2.284  0.00  0.00    +0.260 A 
ATOM     12  F   LIG    1       -3.746   0.303  -2.763  0.00  0.00    -0.090 F 
ENDBRANCH   1   4
BRANCH   1  13
ATOM     13  N   LIG    1       -0.724   1.573  -1.176  0.00  0.00    -1.110 NA
ATOM     14  H   LIG    1       -1.145   2.447  -1.165  0.00  0.00    +0.430 HD
BRANCH  13  23
ATOM     15  C   LIG    1       -2.131   0.992   1.332  0.00  0.00    +0.070 C 
ATOM     16  C   LIG    1       -0.721   1.581   1.272  0.00  0.00    -0.010 C 
ATOM     17  C   LIG    1        0.072   1.135   2.502  0.00  0.00    +0.270 C 
ATOM     18  N   LIG    1        1.427   1.697   2.446  0.00  0.00    -0.510 N 
ATOM     19  C   LIG    1        2.137   1.170   1.275  0.00  0.00    +0.260 C 
ATOM     20  C   LIG    1        1.423   1.617  -0.003  0.00  0.00    +0.060 C 
ATOM     21  H   LIG    1        1.370   2.702   2.379  0.00  0.00    +0.430 HD
ATOM     22  H   LIG    1        1.930   1.445   3.284  0.00  0.00    +0.440 HD
ATOM     23  C   LIG    1       -0.013   1.086   0.008  0.00  0.00    +0.240 C 
ENDBRANCH  13  23
ENDBRANCH   1  13
TORSDOF 3
