REMARK  Name = ZINCah0000006lkY.0
REMARK                            x       y       z     vdW  Elec       q    Type
REMARK                         _______ _______ _______ _____ _____    ______ ____
ROOT
ATOM      1  N   LIG    1       -1.391   2.988   0.031  0.00  0.00    -0.400 N 
ATOM      2  N   LIG    1       -2.766   3.253   0.034  0.00  0.00    -0.310 NA
ATOM      3  C   LIG    1       -3.406   2.112   0.030  0.00  0.00    +0.100 A 
ATOM      4  C   LIG    1       -2.465   1.079   0.020  0.00  0.00    -0.320 A 
ATOM      5  C   LIG    1       -2.766  -0.397   0.013  0.00  0.00    +0.100 C 
ATOM      6  C   LIG    1       -4.904   1.941   0.037  0.00  0.00    +0.160 C 
ATOM      7  C   LIG    1       -1.226   1.645   0.017  0.00  0.00    +0.370 A 
ENDROOT
BRANCH   7   8
ATOM      8  N   LIG    1       -0.011   0.966   0.007  0.00  0.00    -0.860 N 
ATOM      9  H   LIG    1        0.822   1.462   0.002  0.00  0.00    +0.400 HD
ATOM     10  H   LIG    1        0.002  -0.004   0.002  0.00  0.00    +0.420 HD
ENDBRANCH   7   8
BRANCH   1  12
ATOM     11  C   LIG    1        0.049   4.350  -1.402  0.00  0.00    +0.040 C 
ATOM     12  C   LIG    1       -0.320   3.988   0.038  0.00  0.00    +0.310 C 
ENDBRANCH   1  12
TORSDOF 2
