REMARK  Name = ZINCqH0000003Ow0.1
REMARK                            x       y       z     vdW  Elec       q    Type
REMARK                         _______ _______ _______ _____ _____    ______ ____
ROOT
ATOM      1  S   LIG    1       -2.770   1.291  -0.184  0.00  0.00    +0.060 S 
ENDROOT
BRANCH   1   7
ATOM      2  C   LIG    1        3.299   2.946  -0.374  0.00  0.00    +0.150 A 
ATOM      3  C   LIG    1        2.772   4.228  -0.265  0.00  0.00    -0.060 A 
ATOM      4  C   LIG    1        1.410   4.418  -0.182  0.00  0.00    +0.120 A 
ATOM      5  C   LIG    1        0.551   3.317  -0.209  0.00  0.00    +0.020 A 
ATOM      6  N   LIG    1       -0.801   3.187  -0.148  0.00  0.00    -0.480 NA
ATOM      7  C   LIG    1       -1.125   1.919  -0.219  0.00  0.00    +0.250 A 
ATOM      8  N   LIG    1        0.006   1.157  -0.320  0.00  0.00    -0.580 N 
ATOM      9  H   LIG    1        0.043   0.190  -0.383  0.00  0.00    +0.430 HD
ATOM     10  C   LIG    1        1.087   2.023  -0.319  0.00  0.00    +0.100 A 
ATOM     11  C   LIG    1        2.459   1.845  -0.401  0.00  0.00    -0.030 A 
BRANCH   2  12
ATOM     12  O   LIG    1        4.645   2.772  -0.454  0.00  0.00    -0.310 OA
BRANCH  12  14
ATOM     13  C   LIG    1        6.929   3.557  -0.522  0.00  0.00    +0.070 C 
ATOM     14  C   LIG    1        5.454   3.949  -0.421  0.00  0.00    +0.170 C 
ENDBRANCH  12  14
ENDBRANCH   2  12
ENDBRANCH   1   7
BRANCH   1  15
ATOM     15  C   LIG    1       -3.695   2.840  -0.043  0.00  0.00    +0.130 C 
ATOM     16  C   LIG    1       -3.492   3.674  -1.310  0.00  0.00    +0.100 C 
BRANCH  15  17
ATOM     17  C   LIG    1       -5.161   2.536   0.129  0.00  0.00    +0.260 A 
ATOM     18  N   LIG    1       -5.867   1.697  -0.583  0.00  0.00    -0.310 NA
ATOM     19  N   LIG    1       -7.085   1.671  -0.176  0.00  0.00    -0.030 NA
ATOM     20  N   LIG    1       -7.244   2.489   0.808  0.00  0.00    -0.070 NA
ATOM     21  N   LIG    1       -5.991   3.084   1.043  0.00  0.00    -0.320 N 
BRANCH  21  22
ATOM     22  C   LIG    1       -5.673   4.041   2.017  0.00  0.00    +0.110 A 
ATOM     23  C   LIG    1       -6.176   3.917   3.305  0.00  0.00    +0.050 A 
ATOM     24  C   LIG    1       -5.856   4.858   4.264  0.00  0.00    +0.040 A 
ATOM     25  C   LIG    1       -5.044   5.930   3.939  0.00  0.00    +0.040 A 
ATOM     26  C   LIG    1       -4.546   6.059   2.656  0.00  0.00    +0.040 A 
ATOM     27  C   LIG    1       -4.858   5.118   1.694  0.00  0.00    +0.030 A 
ENDBRANCH  21  22
ENDBRANCH  15  17
ENDBRANCH   1  15
TORSDOF 6
