REMARK  Name = ZINCqH0000003Ow0.0
REMARK                            x       y       z     vdW  Elec       q    Type
REMARK                         _______ _______ _______ _____ _____    ______ ____
ROOT
ATOM      1  S   LIG    1        3.138   5.772  -1.403  0.00  0.00    +0.060 S 
ENDROOT
BRANCH   1   8
ATOM      2  C   LIG    1       -1.565   7.155  -5.320  0.00  0.00    +0.130 A 
ATOM      3  C   LIG    1       -1.252   8.474  -5.011  0.00  0.00    -0.040 A 
ATOM      4  C   LIG    1       -0.225   8.761  -4.135  0.00  0.00    +0.060 A 
ATOM      5  C   LIG    1        0.501   7.731  -3.559  0.00  0.00    +0.030 A 
ATOM      6  N   LIG    1        1.562   7.685  -2.666  0.00  0.00    -0.580 N 
ATOM      7  H   LIG    1        2.009   8.446  -2.264  0.00  0.00    +0.430 HD
ATOM      8  C   LIG    1        1.860   6.368  -2.459  0.00  0.00    +0.260 A 
ATOM      9  N   LIG    1        1.057   5.613  -3.169  0.00  0.00    -0.490 NA
ATOM     10  C   LIG    1        0.191   6.395  -3.865  0.00  0.00    +0.100 A 
ATOM     11  C   LIG    1       -0.851   6.116  -4.753  0.00  0.00    +0.030 A 
BRANCH   2  12
ATOM     12  O   LIG    1       -2.579   6.885  -6.184  0.00  0.00    -0.310 OA
BRANCH  12  14
ATOM     13  C   LIG    1       -4.374   7.507  -7.678  0.00  0.00    +0.070 C 
ATOM     14  C   LIG    1       -3.276   8.004  -6.735  0.00  0.00    +0.170 C 
ENDBRANCH  12  14
ENDBRANCH   2  12
ENDBRANCH   1   8
BRANCH   1  15
ATOM     15  C   LIG    1        2.933   3.989  -1.635  0.00  0.00    +0.130 C 
ATOM     16  C   LIG    1        3.256   3.624  -3.085  0.00  0.00    +0.100 C 
BRANCH  15  17
ATOM     17  C   LIG    1        3.867   3.252  -0.711  0.00  0.00    +0.260 A 
ATOM     18  N   LIG    1        5.138   3.502  -0.531  0.00  0.00    -0.310 NA
ATOM     19  N   LIG    1        5.645   2.685   0.320  0.00  0.00    -0.030 NA
ATOM     20  N   LIG    1        4.742   1.867   0.743  0.00  0.00    -0.060 NA
ATOM     21  N   LIG    1        3.547   2.210   0.087  0.00  0.00    -0.320 N 
BRANCH  21  22
ATOM     22  C   LIG    1        2.292   1.599   0.228  0.00  0.00    +0.110 A 
ATOM     23  C   LIG    1        1.513   1.345  -0.893  0.00  0.00    +0.030 A 
ATOM     24  C   LIG    1        0.278   0.744  -0.751  0.00  0.00    +0.040 A 
ATOM     25  C   LIG    1       -0.183   0.394   0.505  0.00  0.00    +0.040 A 
ATOM     26  C   LIG    1        0.591   0.646   1.623  0.00  0.00    +0.040 A 
ATOM     27  C   LIG    1        1.827   1.248   1.488  0.00  0.00    +0.050 A 
ENDBRANCH  21  22
ENDBRANCH  15  17
ENDBRANCH   1  15
TORSDOF 6
