REMARK  Name = ZINCpe00000VVG9N.0
REMARK                            x       y       z     vdW  Elec       q    Type
REMARK                         _______ _______ _______ _____ _____    ______ ____
ROOT
ATOM      1  C   LIG    1       -4.157   4.288   5.439  0.00  0.00    +0.290 C 
ATOM      2  C   LIG    1       -4.055   4.041   3.926  0.00  0.00    +0.270 C 
ATOM      3  N   LIG    1       -3.174   5.070   3.352  0.00  0.00    -0.630 N 
ATOM      4  C   LIG    1       -3.451   6.478   3.676  0.00  0.00    +0.290 C 
ATOM      5  C   LIG    1       -3.586   6.607   5.198  0.00  0.00    +0.150 C 
ATOM      6  C   LIG    1       -4.064   8.016   5.551  0.00  0.00    +0.070 C 
ATOM      7  C   LIG    1       -2.145   4.733   2.548  0.00  0.00    +0.720 C 
ATOM      8  N   LIG    1       -1.971   3.449   2.180  0.00  0.00    -0.740 N 
ATOM      9  H   LIG    1       -2.626   2.779   2.431  0.00  0.00    +0.400 HD
ATOM     10  O   LIG    1       -1.375   5.588   2.155  0.00  0.00    -0.580 OA
ATOM     11  O   LIG    1       -4.535   5.647   5.669  0.00  0.00    -0.360 OA
ENDROOT
BRANCH   1  16
ATOM     12  C   LIG    1       -6.471   0.569   7.867  0.00  0.00    +0.200 C 
ATOM     13  C   LIG    1       -6.187   1.804   7.050  0.00  0.00    +0.170 A 
ATOM     14  N   LIG    1       -7.071   2.586   6.507  0.00  0.00    -0.380 NA
ATOM     15  O   LIG    1       -6.522   3.492   5.915  0.00  0.00    +0.100 OA
ATOM     16  C   LIG    1       -5.197   3.370   6.029  0.00  0.00    +0.180 A 
ATOM     17  N   LIG    1       -4.973   2.295   6.745  0.00  0.00    -0.460 NA
ENDBRANCH   1  16
BRANCH   8  18
ATOM     18  C   LIG    1       -0.792   3.064   1.400  0.00  0.00    +0.320 C 
ATOM     19  C   LIG    1        0.408   2.904   2.335  0.00  0.00    +0.040 C 
BRANCH  18  20
ATOM     20  C   LIG    1       -1.063   1.738   0.686  0.00  0.00    -0.660 C 
ATOM     21  C   LIG    1       -1.388   0.521   1.555  0.00  0.00    +0.110 C 
ATOM     22  C   LIG    1       -0.031   0.620   0.855  0.00  0.00    +0.130 C 
BRANCH  20  23
ATOM     23  S   LIG    1       -1.901   1.869  -0.918  0.00  0.00    +2.450 S 
ATOM     24  O   LIG    1       -3.302   1.941  -0.692  0.00  0.00    -0.930 OA
ATOM     25  O   LIG    1       -1.388   0.863  -1.780  0.00  0.00    -0.930 OA
ATOM     26  C   LIG    1       -1.327   3.485  -1.509  0.00  0.00    -0.270 C 
ENDBRANCH  20  23
ENDBRANCH  18  20
ENDBRANCH   8  18
TORSDOF 4
