REMARK  Name = ZINCvU0000000J70.0
REMARK                            x       y       z     vdW  Elec       q    Type
REMARK                         _______ _______ _______ _____ _____    ______ ____
ROOT
ATOM      1  C   LIG    1       -2.088  -0.414   1.235  0.00  0.00    +0.250 C 
ATOM      2  C   LIG    1       -2.904  -1.602   1.780  0.00  0.00    +0.000 C 
ATOM      3  C   LIG    1       -3.574  -2.428   0.666  0.00  0.00    +0.000 C 
ATOM      4  C   LIG    1       -4.170  -1.564  -0.412  0.00  0.00    +0.020 C 
ATOM      5  C   LIG    1       -3.134  -1.410  -1.544  0.00  0.00    +0.010 C 
ATOM      6  C   LIG    1       -2.122  -0.410  -1.238  0.00  0.00    +0.040 C 
ATOM      7  C   LIG    1       -1.293  -0.775   0.010  0.00  0.00    +0.020 C 
ENDROOT
BRANCH   7   8
ATOM      8  C   LIG    1        0.002  -0.004   0.002  0.00  0.00    -0.030 A 
ATOM      9  C   LIG    1       -0.017   1.378   0.010  0.00  0.00    +0.020 A 
ATOM     10  C   LIG    1        1.171   2.085   0.002  0.00  0.00    +0.050 A 
ATOM     11  C   LIG    1        2.377   1.411  -0.014  0.00  0.00    +0.020 A 
ATOM     12  C   LIG    1        2.396   0.028  -0.022  0.00  0.00    +0.070 A 
ATOM     13  C   LIG    1        1.209  -0.679  -0.014  0.00  0.00    -0.190 A 
BRANCH  13  14
ATOM     14  C   LIG    1        1.229  -2.186  -0.022  0.00  0.00    +0.510 C 
ATOM     15  F   LIG    1        0.565  -2.655  -1.161  0.00  0.00    -0.170 F 
ATOM     16  F   LIG    1        0.587  -2.668   1.123  0.00  0.00    -0.180 F 
ATOM     17  F   LIG    1        2.554  -2.634  -0.038  0.00  0.00    -0.180 F 
ENDBRANCH  13  14
ENDBRANCH   7   8
BRANCH   1  19
ATOM     18  C   LIG    1       -1.610   0.878   3.245  0.00  0.00    +0.520 C 
ATOM     19  N   LIG    1       -1.169   0.049   2.278  0.00  0.00    -0.730 N 
ATOM     20  H   LIG    1       -0.244  -0.242   2.273  0.00  0.00    +0.400 HD
ATOM     21  O   LIG    1       -2.767   1.242   3.251  0.00  0.00    -0.530 OA
BRANCH  18  26
ATOM     22  C   LIG    1        0.176   1.494   8.336  0.00  0.00    +0.510 C 
ATOM     23  N   LIG    1        0.202   1.633   6.995  0.00  0.00    -0.620 N 
ATOM     24  C   LIG    1       -0.439   2.788   6.351  0.00  0.00    +0.280 C 
ATOM     25  C   LIG    1       -1.411   2.279   5.282  0.00  0.00    +0.050 C 
ATOM     26  C   LIG    1       -0.664   1.354   4.317  0.00  0.00    -0.010 C 
ATOM     27  C   LIG    1       -0.116   0.149   5.085  0.00  0.00    +0.030 C 
ATOM     28  C   LIG    1        0.871   0.634   6.151  0.00  0.00    +0.270 C 
ATOM     29  O   LIG    1       -0.379   2.326   9.022  0.00  0.00    -0.540 OA
BRANCH  22  30
ATOM     30  C   LIG    1        0.839   0.304   8.982  0.00  0.00    +0.040 C 
BRANCH  30  32
ATOM     31  C   LIG    1        1.338  -0.821  11.156  0.00  0.00    +0.010 C 
ATOM     32  C   LIG    1        0.665   0.387  10.500  0.00  0.00    +0.030 C 
ENDBRANCH  30  32
ENDBRANCH  22  30
ENDBRANCH  18  26
ENDBRANCH   1  19
TORSDOF 6
