REMARK  Name = ZINCrH000004naRz.0
REMARK                            x       y       z     vdW  Elec       q    Type
REMARK                         _______ _______ _______ _____ _____    ______ ____
ROOT
ATOM      1  C   LIG    1        3.332   3.180   0.822  0.00  0.00    +0.520 C 
ATOM      2  N   LIG    1        3.460   1.840   0.763  0.00  0.00    -0.600 N 
ATOM      3  C   LIG    1        4.609   1.208   1.441  0.00  0.00    +0.250 C 
ATOM      4  C   LIG    1        5.244   0.094   0.590  0.00  0.00    +0.020 C 
ATOM      5  C   LIG    1        5.301   0.515  -0.857  0.00  0.00    +0.010 C 
ATOM      6  C   LIG    1        4.039   0.041  -1.572  0.00  0.00    +0.000 C 
ATOM      7  C   LIG    1        2.892   0.953  -1.446  0.00  0.00    +0.020 C 
ATOM      8  C   LIG    1        2.467   1.080   0.037  0.00  0.00    +0.290 C 
ATOM      9  O   LIG    1        2.378   3.722   0.305  0.00  0.00    -0.500 OA
ENDROOT
BRANCH   1  16
ATOM     10  C   LIG    1        5.706   8.404   3.135  0.00  0.00    +0.100 A 
ATOM     11  C   LIG    1        6.417   7.782   4.151  0.00  0.00    -0.040 A 
ATOM     12  C   LIG    1        6.346   6.413   4.302  0.00  0.00    +0.040 A 
ATOM     13  C   LIG    1        5.563   5.652   3.440  0.00  0.00    +0.090 A 
ATOM     14  O   LIG    1        5.523   4.305   3.621  0.00  0.00    -0.310 OA
ATOM     15  C   LIG    1        4.459   3.580   3.003  0.00  0.00    +0.250 C 
ATOM     16  C   LIG    1        4.374   4.006   1.531  0.00  0.00    -0.040 C 
ATOM     17  C   LIG    1        3.983   5.485   1.481  0.00  0.00    +0.120 C 
ATOM     18  C   LIG    1        4.851   6.273   2.429  0.00  0.00    -0.110 A 
ATOM     19  C   LIG    1        4.925   7.647   2.277  0.00  0.00    +0.010 A 
BRANCH  10  21
ATOM     20  C   LIG    1        6.600  10.469   3.905  0.00  0.00    +0.250 C 
ATOM     21  O   LIG    1        5.775   9.754   2.983  0.00  0.00    -0.320 OA
ENDBRANCH  10  21
ENDBRANCH   1  16
BRANCH   8  22
ATOM     22  C   LIG    1        1.137   1.785   0.120  0.00  0.00    -0.010 A 
ATOM     23  C   LIG    1        0.475   2.187  -1.030  0.00  0.00    -0.030 A 
ATOM     24  C   LIG    1       -0.740   2.836  -0.915  0.00  0.00    +0.250 A 
ATOM     25  N   LIG    1       -1.274   3.064   0.269  0.00  0.00    -0.490 NA
ATOM     26  C   LIG    1       -0.672   2.697   1.383  0.00  0.00    +0.250 A 
ATOM     27  C   LIG    1        0.548   2.048   1.347  0.00  0.00    -0.050 A 
ENDBRANCH   8  22
TORSDOF 3
