REMARK  Name = ZINCqH0000008qXV.0
REMARK                            x       y       z     vdW  Elec       q    Type
REMARK                         _______ _______ _______ _____ _____    ______ ____
ROOT
ATOM      1  C   LIG    1       -5.757   3.377  -1.201  0.00  0.00    +0.040 C 
ATOM      2  C   LIG    1       -4.967   3.723   0.062  0.00  0.00    +0.290 C 
ENDROOT
BRANCH   2   3
ATOM      3  C   LIG    1       -3.651   2.990   0.048  0.00  0.00    -0.110 A 
ATOM      4  C   LIG    1       -3.598   1.660   0.421  0.00  0.00    +0.050 A 
ATOM      5  C   LIG    1       -2.393   0.985   0.409  0.00  0.00    -0.010 A 
ATOM      6  C   LIG    1       -1.234   1.644   0.017  0.00  0.00    +0.160 A 
ATOM      7  N   LIG    1       -0.011   0.966   0.007  0.00  0.00    -0.660 N 
ATOM      8  H   LIG    1        0.002  -0.004   0.002  0.00  0.00    +0.410 HD
ATOM      9  C   LIG    1        1.148   1.650   0.000  0.00  0.00    +0.520 C 
ATOM     10  C   LIG    1        1.154   3.155   0.028  0.00  0.00    +0.080 C 
ATOM     11  C   LIG    1       -0.032   3.695  -0.772  0.00  0.00    +0.100 C 
ATOM     12  O   LIG    1        2.200   1.047  -0.029  0.00  0.00    -0.520 OA
ATOM     13  C   LIG    1       -1.290   2.980  -0.352  0.00  0.00    -0.120 A 
ATOM     14  C   LIG    1       -2.498   3.650  -0.338  0.00  0.00    +0.060 A 
ENDBRANCH   2   3
BRANCH   2  15
ATOM     15  N   LIG    1       -5.736   3.324   1.244  0.00  0.00    -0.710 N 
ATOM     16  H   LIG    1       -5.574   2.462   1.659  0.00  0.00    +0.410 HD
ATOM     17  C   LIG    1       -6.667   4.154   1.754  0.00  0.00    +0.600 C 
ATOM     18  O   LIG    1       -6.869   5.235   1.234  0.00  0.00    -0.530 OA
BRANCH  17  19
ATOM     19  C   LIG    1       -7.439   3.753   2.942  0.00  0.00    +0.010 A 
ATOM     20  C   LIG    1       -8.384   4.547   3.494  0.00  0.00    -0.020 A 
ATOM     21  S   LIG    1       -9.063   3.752   4.848  0.00  0.00    +0.240 S 
ATOM     22  C   LIG    1       -8.012   2.366   4.585  0.00  0.00    +0.110 A 
ATOM     23  N   LIG    1       -7.262   2.584   3.544  0.00  0.00    -0.430 NA
BRANCH  22  24
ATOM     24  C   LIG    1       -7.989   1.147   5.409  0.00  0.00    +0.040 A 
ATOM     25  C   LIG    1       -8.771   0.903   6.498  0.00  0.00    +0.000 A 
ATOM     26  C   LIG    1       -8.415  -0.374   6.973  0.00  0.00    -0.050 A 
ATOM     27  C   LIG    1       -7.445  -0.842   6.163  0.00  0.00    +0.200 A 
ATOM     28  O   LIG    1       -7.194   0.076   5.216  0.00  0.00    -0.150 OA
ENDBRANCH  22  24
ENDBRANCH  17  19
ENDBRANCH   2  15
TORSDOF 4
