REMARK  Name = ZINCrg000000mWHw.0
REMARK                            x       y       z     vdW  Elec       q    Type
REMARK                         _______ _______ _______ _____ _____    ______ ____
ROOT
ATOM      1  N   LIG    1        2.054   7.051   0.065  0.00  0.00    -1.000 NA
ATOM      2  C   LIG    1        1.997   6.380  -1.243  0.00  0.00    +0.330 C 
ATOM      3  C   LIG    1        1.013   5.209  -1.148  0.00  0.00    +0.190 C 
ATOM      4  N   LIG    1        1.393   4.345  -0.023  0.00  0.00    -0.440 N 
ATOM      5  C   LIG    1        1.299   5.062   1.256  0.00  0.00    +0.180 C 
ATOM      6  C   LIG    1        2.295   6.227   1.259  0.00  0.00    +0.330 C 
ENDROOT
BRANCH   4   7
ATOM      7  C   LIG    1        0.622   3.182  -0.002  0.00  0.00    +0.250 A 
ATOM      8  C   LIG    1        1.060   1.917  -0.209  0.00  0.00    +0.070 A 
ATOM      9  N   LIG    1        0.010   1.089  -0.098  0.00  0.00    -0.440 NA
ATOM     10  C   LIG    1       -1.064   1.782   0.158  0.00  0.00    +0.460 A 
ATOM     11  N   LIG    1       -0.726   3.099   0.231  0.00  0.00    -0.480 N 
ATOM     12  C   LIG    1       -1.632   4.217   0.506  0.00  0.00    +0.340 C 
BRANCH   8  13
ATOM     13  N   LIG    1        2.456   1.518  -0.500  0.00  0.00    +0.060 N 
ATOM     14  O   LIG    1        2.714   0.359  -0.771  0.00  0.00    -0.150 OA
ATOM     15  O   LIG    1        3.346   2.348  -0.467  0.00  0.00    -0.120 OA
ENDBRANCH   8  13
ENDBRANCH   4   7
BRANCH   1  16
ATOM     16  S   LIG    1        1.851   8.689   0.189  0.00  0.00    +2.690 S 
ATOM     17  O   LIG    1        2.190   9.233  -1.079  0.00  0.00    -0.940 OA
ATOM     18  O   LIG    1        2.486   9.081   1.399  0.00  0.00    -0.940 OA
BRANCH  16  22
ATOM     19  C   LIG    1       -2.579   9.453   0.765  0.00  0.00    -0.120 A 
ATOM     20  C   LIG    1       -1.749   9.261   1.874  0.00  0.00    +0.070 A 
ATOM     21  C   LIG    1       -0.403   9.029   1.690  0.00  0.00    +0.120 A 
ATOM     22  C   LIG    1        0.128   8.986   0.413  0.00  0.00    -0.660 A 
ATOM     23  C   LIG    1       -0.686   9.181  -0.689  0.00  0.00    +0.120 A 
ATOM     24  C   LIG    1       -2.035   9.409  -0.523  0.00  0.00    +0.050 A 
BRANCH  19  26
ATOM     25  C   LIG    1       -4.909   9.908  -0.246  0.00  0.00    +0.080 C 
ATOM     26  C   LIG    1       -4.018   9.701   0.952  0.00  0.00    +0.390 C 
ATOM     27  O   LIG    1       -4.487   9.738   2.069  0.00  0.00    -0.440 OA
ENDBRANCH  19  26
ENDBRANCH  16  22
ENDBRANCH   1  16
TORSDOF 5
