REMARK  Name = ZINC470000002phP.0
REMARK                            x       y       z     vdW  Elec       q    Type
REMARK                         _______ _______ _______ _____ _____    ______ ____
ROOT
ATOM      1  C   LIG    1       -1.328   1.812   0.018  0.00  0.00    +0.210 C 
ENDROOT
BRANCH   1   3
ATOM      2  C   LIG    1        1.113   1.746   0.001  0.00  0.00    +0.030 C 
ATOM      3  C   LIG    1       -0.013   1.076   0.008  0.00  0.00    -0.040 C 
ENDBRANCH   1   3
BRANCH   1   4
ATOM      4  O   LIG    1       -2.213   1.218  -0.933  0.00  0.00    -0.570 OA
ATOM      5  H   LIG    1       -3.081   1.642  -0.981  0.00  0.00    +0.380 HD
ENDBRANCH   1   4
TORSDOF 2
