REMARK  Name = ZINCpe00000ccoRD.0
REMARK                            x       y       z     vdW  Elec       q    Type
REMARK                         _______ _______ _______ _____ _____    ______ ____
ROOT
ATOM      1  C   LIG    1        8.292   3.690   0.715  0.00  0.00    +0.000 C 
ATOM      2  C   LIG    1        8.310   2.163   0.816  0.00  0.00    +0.020 C 
ATOM      3  C   LIG    1        7.403   1.573  -0.268  0.00  0.00    +0.290 C 
ATOM      4  N   LIG    1        6.066   2.170  -0.142  0.00  0.00    -0.610 N 
ATOM      5  C   LIG    1        5.943   3.634  -0.142  0.00  0.00    +0.270 C 
ATOM      6  C   LIG    1        4.973   1.389  -0.035  0.00  0.00    +0.570 C 
ATOM      7  O   LIG    1        5.094   0.184   0.065  0.00  0.00    -0.520 OA
ATOM      8  C   LIG    1        6.868   4.201   0.946  0.00  0.00    +0.010 C 
ENDROOT
BRANCH   6   9
ATOM      9  C   LIG    1        3.624   1.999  -0.039  0.00  0.00    -0.150 A 
ATOM     10  C   LIG    1        2.635   1.534   0.838  0.00  0.00    +0.320 A 
ATOM     11  N   LIG    1        1.431   2.058   0.854  0.00  0.00    -0.420 NA
ATOM     12  C   LIG    1        1.095   3.052   0.040  0.00  0.00    +0.080 A 
ATOM     13  C   LIG    1       -0.255   3.640   0.056  0.00  0.00    +0.550 A 
ATOM     14  N   LIG    1       -0.546   4.647  -0.790  0.00  0.00    -0.630 N 
ATOM     15  H   LIG    1       -1.437   5.029  -0.774  0.00  0.00    +0.420 HD
ATOM     16  C   LIG    1        0.370   5.152  -1.667  0.00  0.00    +0.290 A 
ATOM     17  C   LIG    1        1.622   4.671  -1.753  0.00  0.00    -0.060 A 
ATOM     18  O   LIG    1       -1.099   3.221   0.827  0.00  0.00    -0.490 OA
ATOM     19  C   LIG    1        2.034   3.577  -0.874  0.00  0.00    -0.050 A 
ATOM     20  C   LIG    1        3.326   3.040  -0.915  0.00  0.00    +0.100 A 
ENDBRANCH   6   9
BRANCH   1  25
ATOM     21  O   LIG    1        8.072   5.030   4.947  0.00  0.00    -0.520 OA
ATOM     22  C   LIG    1        8.473   5.035   3.800  0.00  0.00    +0.640 C 
ATOM     23  N   LIG    1        8.770   3.917   3.124  0.00  0.00    -0.730 N 
ATOM     24  H   LIG    1        8.697   3.013   3.470  0.00  0.00    +0.440 HD
ATOM     25  C   LIG    1        9.224   4.282   1.774  0.00  0.00    +0.210 C 
ATOM     26  C   LIG    1        9.145   5.821   1.765  0.00  0.00    +0.260 C 
ATOM     27  O   LIG    1        8.660   6.157   3.097  0.00  0.00    -0.330 OA
ENDBRANCH   1  25
TORSDOF 2
