REMARK  Name = ZINCvU000000093b.0
REMARK                            x       y       z     vdW  Elec       q    Type
REMARK                         _______ _______ _______ _____ _____    ______ ____
ROOT
ATOM      1  C   LIG    1        4.219   7.395   0.002  0.00  0.00    +0.520 C 
ATOM      2  O   LIG    1        4.615   8.540  -0.086  0.00  0.00    -0.490 OA
ENDROOT
BRANCH   1   3
ATOM      3  C   LIG    1        2.768   7.114   0.014  0.00  0.00    -0.060 A 
ATOM      4  C   LIG    1        2.286   5.814  -0.003  0.00  0.00    +0.070 A 
ATOM      5  C   LIG    1        0.897   5.593   0.004  0.00  0.00    +0.220 A 
ATOM      6  N   LIG    1        0.027   6.584   0.037  0.00  0.00    -0.430 NA
ATOM      7  C   LIG    1        0.405   7.864   0.061  0.00  0.00    +0.130 A 
ATOM      8  C   LIG    1       -0.545   8.900   0.096  0.00  0.00    +0.050 A 
ATOM      9  C   LIG    1       -0.130  10.197   0.121  0.00  0.00    +0.040 A 
ATOM     10  C   LIG    1        1.225  10.518   0.111  0.00  0.00    +0.030 A 
ATOM     11  C   LIG    1        2.175   9.539   0.077  0.00  0.00    +0.050 A 
ATOM     12  C   LIG    1        1.783   8.197   0.051  0.00  0.00    -0.060 A 
BRANCH   5  13
ATOM     13  C   LIG    1        0.396   4.206  -0.021  0.00  0.00    -0.160 A 
ATOM     14  C   LIG    1       -0.905   3.847  -0.012  0.00  0.00    +0.090 A 
ATOM     15  C   LIG    1       -1.128   2.489  -0.045  0.00  0.00    +0.040 A 
ATOM     16  C   LIG    1       -0.022   1.733  -0.070  0.00  0.00    -0.140 A 
ATOM     17 CL   LIG    1        0.001  -0.003  -0.108  0.00  0.00    -0.000 Cl
ATOM     18  S   LIG    1        1.402   2.764  -0.065  0.00  0.00    +0.200 S 
ENDBRANCH   5  13
ENDBRANCH   1   3
BRANCH   1  19
ATOM     19  O   LIG    1        5.102   6.382   0.090  0.00  0.00    -0.320 OA
BRANCH  19  20
ATOM     20  C   LIG    1        6.511   6.732   0.072  0.00  0.00    +0.270 C 
BRANCH  20  23
ATOM     21  N   LIG    1        8.687   5.561   0.182  0.00  0.00    -0.720 N 
ATOM     22  H   LIG    1        9.121   6.426   0.116  0.00  0.00    +0.400 HD
ATOM     23  C   LIG    1        7.342   5.480   0.178  0.00  0.00    +0.520 C 
ATOM     24  O   LIG    1        6.800   4.398   0.261  0.00  0.00    -0.510 OA
BRANCH  21  27
ATOM     25  C   LIG    1       10.675   5.294   2.271  0.00  0.00    +0.020 C 
ATOM     26  C   LIG    1       10.862   4.687   0.879  0.00  0.00    -0.010 C 
ATOM     27  C   LIG    1        9.495   4.343   0.285  0.00  0.00    +0.240 C 
ATOM     28  C   LIG    1        9.682   3.736  -1.107  0.00  0.00    +0.000 C 
ATOM     29  C   LIG    1       10.525   2.464  -0.999  0.00  0.00    +0.020 C 
ATOM     30  C   LIG    1       11.892   2.807  -0.405  0.00  0.00    +0.010 C 
ATOM     31  C   LIG    1       11.706   3.415   0.987  0.00  0.00    -0.010 C 
ATOM     32  C   LIG    1       13.073   3.758   1.581  0.00  0.00    +0.020 C 
ENDBRANCH  21  27
ENDBRANCH  20  23
ENDBRANCH  19  20
ENDBRANCH   1  19
TORSDOF 6
