REMARK  Name = ZINCpk00000FdSm9.0
REMARK                            x       y       z     vdW  Elec       q    Type
REMARK                         _______ _______ _______ _____ _____    ______ ____
ROOT
ATOM      1  C   LIG    1        2.480   1.069  -0.015  0.00  0.00    +0.590 C 
ATOM      2  N   LIG    1        2.507  -0.275   0.079  0.00  0.00    -0.620 N 
ATOM      3  C   LIG    1        1.327  -1.158   0.105  0.00  0.00    +0.270 C 
ATOM      4  C   LIG    1        1.849  -2.529  -0.400  0.00  0.00    +0.050 C 
ATOM      5  C   LIG    1        3.261  -2.576   0.240  0.00  0.00    +0.250 C 
ATOM      6  C   LIG    1        3.717  -1.103   0.180  0.00  0.00    +0.250 C 
ATOM      7  O   LIG    1        3.519   1.692  -0.130  0.00  0.00    -0.530 OA
ENDROOT
BRANCH   1  11
ATOM      8  C   LIG    1       -1.156   3.165   0.046  0.00  0.00    +0.420 A 
ATOM      9  C   LIG    1       -1.105   1.907   0.643  0.00  0.00    -0.110 A 
ATOM     10  C   LIG    1        0.071   1.207   0.635  0.00  0.00    +0.140 A 
ATOM     11  C   LIG    1        1.191   1.786   0.020  0.00  0.00    -0.250 A 
ATOM     12  C   LIG    1        1.068   3.050  -0.559  0.00  0.00    +0.390 A 
ATOM     13  N   LIG    1       -0.081   3.693  -0.524  0.00  0.00    -0.550 NA
BRANCH   8  15
ATOM     14  C   LIG    1       -3.535   3.307   0.686  0.00  0.00    +0.290 C 
ATOM     15  N   LIG    1       -2.343   3.877   0.053  0.00  0.00    -0.720 N 
ATOM     16  H   LIG    1       -2.386   4.753  -0.361  0.00  0.00    +0.410 HD
ENDBRANCH   8  15
ENDBRANCH   1  11
BRANCH   5  17
ATOM     17  N   LIG    1        4.160  -3.429  -0.541  0.00  0.00    -0.690 N 
ATOM     18  H   LIG    1        3.952  -3.633  -1.466  0.00  0.00    +0.420 HD
BRANCH  17  19
ATOM     19  C   LIG    1        5.311  -3.947   0.044  0.00  0.00    +0.420 A 
ATOM     20  N   LIG    1        5.588  -3.662   1.295  0.00  0.00    -0.350 NA
ATOM     21  N   LIG    1        6.737  -4.175   1.904  0.00  0.00    -0.250 N 
ATOM     22  C   LIG    1        7.256  -4.048   3.157  0.00  0.00    +0.170 A 
ATOM     23  C   LIG    1        8.405  -4.765   3.189  0.00  0.00    +0.200 A 
ATOM     24  N   LIG    1        8.593  -5.320   1.992  0.00  0.00    -0.460 NA
ATOM     25  C   LIG    1        7.592  -4.975   1.193  0.00  0.00    +0.140 A 
ATOM     26  C   LIG    1        7.297  -5.276  -0.151  0.00  0.00    +0.180 A 
ATOM     27  C   LIG    1        6.169  -4.766  -0.714  0.00  0.00    -0.050 A 
ENDBRANCH  17  19
ENDBRANCH   5  17
TORSDOF 4
