REMARK  Name = ZINCkj00000y7AIz.0
REMARK                            x       y       z     vdW  Elec       q    Type
REMARK                         _______ _______ _______ _____ _____    ______ ____
ROOT
ATOM      1  C   LIG    1        1.120   3.621   0.011  0.00  0.00    +0.280 C 
ENDROOT
BRANCH   1   9
ATOM      2  C   LIG    1        4.131   1.560  -4.008  0.00  0.00    +0.140 C 
ATOM      3  C   LIG    1        3.919   2.683  -3.026  0.00  0.00    -0.000 A 
ATOM      4  C   LIG    1        4.425   3.929  -3.125  0.00  0.00    +0.130 A 
ATOM      5  N   LIG    1        3.989   4.617  -2.032  0.00  0.00    -0.450 N 
ATOM      6  C   LIG    1        4.268   6.011  -1.679  0.00  0.00    +0.290 C 
ATOM      7  C   LIG    1        3.946   6.219  -0.196  0.00  0.00    +0.050 C 
ATOM      8  C   LIG    1        2.543   5.681   0.103  0.00  0.00    +0.050 C 
ATOM      9  C   LIG    1        2.555   4.151   0.000  0.00  0.00    +0.090 C 
ATOM     10  C   LIG    1        3.229   3.770  -1.297  0.00  0.00    +0.200 A 
ATOM     11  N   LIG    1        3.193   2.617  -1.898  0.00  0.00    -0.490 NA
ENDBRANCH   1   9
BRANCH   1  12
ATOM     12  N   LIG    1        1.140   2.156   0.003  0.00  0.00    -0.700 N 
ATOM     13  H   LIG    1        1.986   1.683  -0.008  0.00  0.00    +0.410 HD
ATOM     14  C   LIG    1       -0.018   1.467   0.010  0.00  0.00    +0.530 C 
ATOM     15  O   LIG    1       -1.079   2.061   0.018  0.00  0.00    -0.540 OA
BRANCH  14  16
ATOM     16  C   LIG    1        0.002  -0.004   0.002  0.00  0.00    +0.020 C 
ATOM     17  C   LIG    1       -1.141  -0.685   0.009  0.00  0.00    -0.010 C 
BRANCH  17  18
ATOM     18  C   LIG    1       -1.120  -2.192   0.001  0.00  0.00    +0.310 C 
BRANCH  18  19
ATOM     19  N   LIG    1       -1.897  -2.698   1.140  0.00  0.00    -0.390 N 
ATOM     20  C   LIG    1       -1.239  -2.307   2.394  0.00  0.00    +0.320 C 
ATOM     21  C   LIG    1       -1.978  -4.163   1.065  0.00  0.00    +0.320 C 
ATOM     22  H   LIG    1       -2.827  -2.308   1.113  0.00  0.00    +0.430 HD
ENDBRANCH  18  19
ENDBRANCH  17  18
ENDBRANCH  14  16
ENDBRANCH   1  12
TORSDOF 5
