REMARK  Name = ZINCrD00000hQ4ce.0
REMARK                            x       y       z     vdW  Elec       q    Type
REMARK                         _______ _______ _______ _____ _____    ______ ____
ROOT
ATOM      1  O   LIG    1       -1.210  -4.543   2.669  0.00  0.00    -0.500 OA
ATOM      2  C   LIG    1       -0.542  -5.052   1.790  0.00  0.00    +0.550 C 
ATOM      3  N   LIG    1       -0.255  -4.355   0.672  0.00  0.00    -0.730 N 
ATOM      4  H   LIG    1        0.278  -4.761  -0.029  0.00  0.00    +0.400 HD
ENDROOT
BRANCH   2   5
ATOM      5  C   LIG    1       -0.046  -6.434   1.945  0.00  0.00    -0.120 A 
ATOM      6  C   LIG    1        0.613  -7.066   0.890  0.00  0.00    +0.060 A 
ATOM      7  C   LIG    1        1.079  -8.355   1.043  0.00  0.00    +0.030 A 
ATOM      8  C   LIG    1        0.886  -9.030   2.236  0.00  0.00    +0.060 A 
ATOM      9  C   LIG    1        0.230  -8.419   3.287  0.00  0.00    +0.020 A 
ATOM     10  C   LIG    1       -0.240  -7.121   3.152  0.00  0.00    +0.190 A 
BRANCH  10  11
ATOM     11  N   LIG    1       -0.902  -6.500   4.214  0.00  0.00    -0.330 N 
ATOM     12  C   LIG    1       -2.018  -6.934   4.835  0.00  0.00    +0.480 A 
ATOM     13  N   LIG    1       -2.317  -6.076   5.776  0.00  0.00    -0.540 NA
ATOM     14  C   LIG    1       -1.428  -5.082   5.782  0.00  0.00    +0.420 A 
ATOM     15  N   LIG    1       -0.543  -5.297   4.844  0.00  0.00    -0.270 NA
ENDBRANCH  10  11
ENDBRANCH   2   5
BRANCH   3  16
ATOM     16  C   LIG    1       -0.747  -2.984   0.518  0.00  0.00    +0.280 C 
BRANCH  16  17
ATOM     17  C   LIG    1       -0.283  -2.424  -0.829  0.00  0.00    +0.120 C 
BRANCH  17  18
ATOM     18  C   LIG    1       -0.790  -1.014  -0.988  0.00  0.00    +0.070 A 
ATOM     19  C   LIG    1        0.030   0.011  -1.245  0.00  0.00    -0.070 A 
ATOM     20  S   LIG    1       -0.939   1.478  -1.358  0.00  0.00    +0.100 S 
ATOM     21  C   LIG    1       -2.393   0.536  -1.038  0.00  0.00    +0.120 A 
ATOM     22  N   LIG    1       -2.064  -0.714  -0.882  0.00  0.00    -0.460 NA
BRANCH  21  23
ATOM     23  C   LIG    1       -3.767   1.077  -0.964  0.00  0.00    -0.030 A 
ATOM     24  C   LIG    1       -4.844   0.225  -0.715  0.00  0.00    +0.070 A 
ATOM     25  C   LIG    1       -6.123   0.737  -0.643  0.00  0.00    +0.010 A 
ATOM     26  C   LIG    1       -6.340   2.091  -0.827  0.00  0.00    +0.030 A 
ATOM     27  C   LIG    1       -5.278   2.940  -1.080  0.00  0.00    +0.010 A 
ATOM     28  C   LIG    1       -3.994   2.442  -1.149  0.00  0.00    +0.020 A 
ENDBRANCH  21  23
ENDBRANCH  17  18
ENDBRANCH  16  17
ENDBRANCH   3  16
TORSDOF 6
