REMARK  Name = ZINCtV000002IzrU.0
REMARK                            x       y       z     vdW  Elec       q    Type
REMARK                         _______ _______ _______ _____ _____    ______ ____
ROOT
ATOM      1  C   LIG    1       -2.978   0.206  -1.242  0.00  0.00    +0.240 C 
ENDROOT
BRANCH   1   2
ATOM      2  C   LIG    1       -4.300   0.899  -1.028  0.00  0.00    +0.520 C 
ATOM      3  N   LIG    1       -5.034   1.290  -2.088  0.00  0.00    -0.670 N 
ATOM      4  H   LIG    1       -4.683   1.188  -2.987  0.00  0.00    +0.420 HD
ATOM      5  O   LIG    1       -4.702   1.103   0.097  0.00  0.00    -0.480 OA
BRANCH   3   6
ATOM      6  C   LIG    1       -6.304   1.845  -1.893  0.00  0.00    +0.150 A 
ATOM      7  C   LIG    1       -6.551   2.646  -0.786  0.00  0.00    +0.080 A 
ATOM      8  C   LIG    1       -7.805   3.193  -0.596  0.00  0.00    +0.060 A 
ATOM      9  C   LIG    1       -8.815   2.943  -1.507  0.00  0.00    -0.010 A 
ATOM     10  C   LIG    1       -8.572   2.145  -2.612  0.00  0.00    -0.160 A 
ATOM     11 CL   LIG    1      -10.390   3.631  -1.265  0.00  0.00    -0.040 Cl
ATOM     12  C   LIG    1       -7.319   1.601  -2.809  0.00  0.00    +0.060 A 
BRANCH  10  13
ATOM     13  C   LIG    1       -9.675   1.876  -3.603  0.00  0.00    +0.510 C 
ATOM     14  F   LIG    1      -10.116   3.086  -4.150  0.00  0.00    -0.170 F 
ATOM     15  F   LIG    1      -10.740   1.241  -2.955  0.00  0.00    -0.170 F 
ATOM     16  F   LIG    1       -9.192   1.051  -4.625  0.00  0.00    -0.170 F 
ENDBRANCH  10  13
ENDBRANCH   3   6
ENDBRANCH   1   2
BRANCH   1  17
ATOM     17  O   LIG    1       -2.394  -0.107   0.024  0.00  0.00    -0.280 OA
BRANCH  17  22
ATOM     18  C   LIG    1        1.000   3.553   0.038  0.00  0.00    +0.140 C 
ATOM     19  C   LIG    1        1.085   2.049   0.022  0.00  0.00    +0.170 A 
ATOM     20  N   LIG    1       -0.022   1.347   0.022  0.00  0.00    -0.460 NA
ATOM     21  C   LIG    1        0.003   0.011   0.008  0.00  0.00    +0.140 A 
ATOM     22  C   LIG    1       -1.191  -0.739   0.009  0.00  0.00    +0.130 A 
ATOM     23  C   LIG    1       -1.130  -2.114  -0.004  0.00  0.00    -0.030 A 
ATOM     24  C   LIG    1        0.096  -2.774  -0.019  0.00  0.00    +0.070 A 
ATOM     25  C   LIG    1        1.267  -2.077  -0.021  0.00  0.00    -0.000 A 
ATOM     26 CL   LIG    1        2.783  -2.922  -0.040  0.00  0.00    -0.040 Cl
ATOM     27 CL   LIG    1       -2.600  -3.037  -0.001  0.00  0.00    -0.030 Cl
ATOM     28  C   LIG    1        1.244  -0.672  -0.008  0.00  0.00    -0.100 A 
ATOM     29  C   LIG    1        2.435   0.078  -0.009  0.00  0.00    +0.100 A 
ATOM     30  C   LIG    1        2.339   1.441   0.006  0.00  0.00    -0.010 A 
ENDBRANCH  17  22
ENDBRANCH   1  17
TORSDOF 5
