REMARK  Name = ZINCvU00000008Jg.0
REMARK                            x       y       z     vdW  Elec       q    Type
REMARK                         _______ _______ _______ _____ _____    ______ ____
ROOT
ATOM      1  C   LIG    1       -1.168  -0.701   0.118  0.00  0.00    +0.380 A 
ATOM      2  N   LIG    1       -1.189  -2.013   0.109  0.00  0.00    -0.500 NA
ATOM      3  C   LIG    1       -0.057  -2.736  -0.004  0.00  0.00    +0.090 A 
ATOM      4  C   LIG    1        1.169  -2.085  -0.120  0.00  0.00    -0.220 A 
ATOM      5  C   LIG    1        2.274  -3.019  -0.231  0.00  0.00    +0.010 A 
ATOM      6  C   LIG    1        1.929  -4.292  -0.202  0.00  0.00    -0.060 A 
ATOM      7  C   LIG    1        1.174  -0.658  -0.115  0.00  0.00    +0.570 A 
ATOM      8  O   LIG    1        2.221  -0.042  -0.213  0.00  0.00    -0.500 OA
ATOM      9  S   LIG    1        0.193  -4.477  -0.035  0.00  0.00    +0.210 S 
ATOM     10  N   LIG    1        0.002  -0.004   0.002  0.00  0.00    -0.470 N 
ENDROOT
BRANCH  10  11
ATOM     11  C   LIG    1       -0.017   1.397   0.010  0.00  0.00    +0.080 A 
ATOM     12  C   LIG    1       -0.143   2.098  -1.182  0.00  0.00    +0.040 A 
ATOM     13  C   LIG    1       -0.167   3.478  -1.171  0.00  0.00    +0.030 A 
ATOM     14  C   LIG    1       -0.054   4.163   0.025  0.00  0.00    +0.040 A 
ATOM     15  C   LIG    1        0.077   3.469   1.213  0.00  0.00    +0.030 A 
ATOM     16  C   LIG    1        0.096   2.088   1.209  0.00  0.00    +0.040 A 
ENDBRANCH  10  11
BRANCH   5  17
ATOM     17  C   LIG    1        3.706  -2.570  -0.368  0.00  0.00    +0.020 C 
ATOM     18  C   LIG    1        4.755  -3.640  -0.679  0.00  0.00    +0.030 C 
ATOM     19  C   LIG    1        4.692  -3.012   0.715  0.00  0.00    +0.040 C 
ENDBRANCH   5  17
BRANCH   1  20
ATOM     20  S   LIG    1       -2.684   0.182   0.277  0.00  0.00    +0.070 S 
BRANCH  20  22
ATOM     21  C   LIG    1       -3.575  -1.990   1.673  0.00  0.00    +0.100 C 
ATOM     22  C   LIG    1       -3.844  -1.202   0.389  0.00  0.00    +0.160 C 
BRANCH  22  23
ATOM     23  C   LIG    1       -5.256  -0.674   0.411  0.00  0.00    +0.180 A 
ATOM     24  N   LIG    1       -6.272  -1.133  -0.280  0.00  0.00    -0.450 NA
ATOM     25  C   LIG    1       -7.319  -0.360   0.059  0.00  0.00    +0.190 A 
ATOM     26  N   LIG    1       -6.892   0.518   0.918  0.00  0.00    -0.370 NA
ATOM     27  O   LIG    1       -5.710   0.354   1.133  0.00  0.00    +0.090 OA
BRANCH  25  28
ATOM     28  C   LIG    1       -8.726  -0.485  -0.464  0.00  0.00    +0.020 C 
ATOM     29  C   LIG    1       -9.280  -1.867  -0.112  0.00  0.00    +0.060 C 
ATOM     30  C   LIG    1       -8.723  -0.309  -1.983  0.00  0.00    +0.060 C 
ATOM     31  C   LIG    1       -9.605   0.593   0.173  0.00  0.00    +0.050 C 
ENDBRANCH  25  28
ENDBRANCH  22  23
ENDBRANCH  20  22
ENDBRANCH   1  20
TORSDOF 6
