REMARK  Name = ZINCqH0000032GG8.0
REMARK                            x       y       z     vdW  Elec       q    Type
REMARK                         _______ _______ _______ _____ _____    ______ ____
ROOT
ATOM      1  C   LIG    1        3.230   3.151  -0.005  0.00  0.00    +0.200 A 
ATOM      2  C   LIG    1        4.023   2.019   0.166  0.00  0.00    +0.030 A 
ATOM      3  C   LIG    1        3.462   0.774   0.173  0.00  0.00    +0.100 A 
ATOM      4  C   LIG    1        2.082   0.630   0.007  0.00  0.00    +0.010 A 
ATOM      5  N   LIG    1        1.250  -0.443  -0.031  0.00  0.00    -0.460 NA
ATOM      6  C   LIG    1        0.025  -0.019  -0.212  0.00  0.00    +0.290 A 
ATOM      7  O   LIG    1        0.009   1.325  -0.299  0.00  0.00    -0.210 OA
ATOM      8  C   LIG    1        1.278   1.770  -0.166  0.00  0.00    +0.040 A 
ATOM      9  C   LIG    1        1.859   3.027  -0.171  0.00  0.00    +0.010 A 
ENDROOT
BRANCH   6  10
ATOM     10  C   LIG    1       -1.166  -0.888  -0.308  0.00  0.00    -0.040 A 
ATOM     11  C   LIG    1       -2.430  -0.326  -0.497  0.00  0.00    +0.090 A 
ATOM     12  C   LIG    1       -3.538  -1.141  -0.590  0.00  0.00    -0.010 A 
ATOM     13  C   LIG    1       -3.400  -2.517  -0.486  0.00  0.00    +0.130 A 
ATOM     14  C   LIG    1       -2.148  -3.080  -0.294  0.00  0.00    -0.010 A 
ATOM     15  F   LIG    1       -4.489  -3.311  -0.573  0.00  0.00    -0.130 F 
ATOM     16  C   LIG    1       -1.033  -2.274  -0.204  0.00  0.00    +0.120 A 
ENDBRANCH   6  10
BRANCH   1  20
ATOM     17  N   LIG    1        5.669   5.785  -0.420  0.00  0.00    -0.740 N 
ATOM     18  H   LIG    1        5.217   6.528   0.009  0.00  0.00    +0.400 HD
ATOM     19  C   LIG    1        5.059   4.587  -0.513  0.00  0.00    +0.710 C 
ATOM     20  N   LIG    1        3.820   4.421  -0.009  0.00  0.00    -0.680 N 
ATOM     21  H   LIG    1        3.337   5.181   0.350  0.00  0.00    +0.410 HD
ATOM     22  O   LIG    1        5.626   3.655  -1.051  0.00  0.00    -0.560 OA
BRANCH  17  23
ATOM     23  C   LIG    1        7.016   5.965  -0.968  0.00  0.00    +0.310 C 
BRANCH  23  25
ATOM     24  C   LIG    1        7.298   7.860   0.718  0.00  0.00    +0.070 C 
ATOM     25  C   LIG    1        7.474   7.406  -0.733  0.00  0.00    -0.150 C 
ATOM     26  C   LIG    1        6.930   8.408  -1.768  0.00  0.00    +0.210 C 
ATOM     27  O   LIG    1        8.268   8.953  -1.771  0.00  0.00    -0.380 OA
ATOM     28  C   LIG    1        8.863   7.721  -1.319  0.00  0.00    +0.240 C 
ENDBRANCH  23  25
ENDBRANCH  17  23
ENDBRANCH   1  20
TORSDOF 4
