REMARK  Name = ZINCpe00000RbSXr.1
REMARK                            x       y       z     vdW  Elec       q    Type
REMARK                         _______ _______ _______ _____ _____    ______ ____
ROOT
ATOM      1  C   LIG    1       -2.822   1.970   2.604  0.00  0.00    +0.130 C 
ATOM      2  C   LIG    1       -2.892   3.485   2.805  0.00  0.00    +0.080 C 
ENDROOT
BRANCH   1   5
ATOM      3  C   LIG    1       -1.242  -0.040  -0.163  0.00  0.00    +0.300 C 
ATOM      4  C   LIG    1       -2.055   0.227   1.107  0.00  0.00    +0.180 C 
ATOM      5  N   LIG    1       -2.097   1.674   1.361  0.00  0.00    -0.510 NA
ATOM      6  C   LIG    1       -2.694   2.386   0.220  0.00  0.00    +0.160 C 
ATOM      7  C   LIG    1       -1.874   2.097  -1.040  0.00  0.00    +0.250 C 
ATOM      8  O   LIG    1       -1.818   0.684  -1.253  0.00  0.00    -0.370 OA
BRANCH   3  12
ATOM      9  C   LIG    1        0.270  -4.795  -0.595  0.00  0.00    +0.190 C 
ATOM     10  C   LIG    1       -0.597  -3.563  -0.654  0.00  0.00    +0.290 A 
ATOM     11  N   LIG    1       -0.246  -2.358  -0.286  0.00  0.00    -0.530 NA
ATOM     12  C   LIG    1       -1.260  -1.515  -0.472  0.00  0.00    +0.230 A 
ATOM     13  N   LIG    1       -2.273  -2.173  -0.972  0.00  0.00    -0.290 NA
ATOM     14  N   LIG    1       -1.864  -3.511  -1.099  0.00  0.00    -0.480 N 
ATOM     15  H   LIG    1       -2.392  -4.250  -1.442  0.00  0.00    +0.440 HD
ENDBRANCH   3  12
ENDBRANCH   1   5
BRANCH   1  16
ATOM     16  C   LIG    1       -2.101   1.341   3.768  0.00  0.00    +0.510 C 
ATOM     17  N   LIG    1       -2.782   1.005   4.881  0.00  0.00    -0.650 N 
ATOM     18  H   LIG    1       -3.748   1.093   4.904  0.00  0.00    +0.400 HD
ATOM     19  O   LIG    1       -0.907   1.136   3.702  0.00  0.00    -0.490 OA
BRANCH  17  20
ATOM     20  C   LIG    1       -2.092   0.527   6.011  0.00  0.00    -0.010 A 
ATOM     21  C   LIG    1       -2.290   0.921   7.295  0.00  0.00    +0.070 A 
ATOM     22  N   LIG    1       -1.427   0.222   8.076  0.00  0.00    -0.370 N 
ATOM     23  N   LIG    1       -0.681  -0.623   7.244  0.00  0.00    -0.290 NA
ATOM     24  C   LIG    1       -1.299   0.332   9.531  0.00  0.00    +0.360 C 
ATOM     25  C   LIG    1       -3.287   1.948   7.767  0.00  0.00    +0.140 C 
ATOM     26  C   LIG    1       -1.081  -0.446   6.011  0.00  0.00    +0.100 A 
ATOM     27  C   LIG    1       -0.545  -1.162   4.798  0.00  0.00    +0.150 C 
ENDBRANCH  17  20
ENDBRANCH   1  16
TORSDOF 4
