REMARK  Name = ZINCpe00000RbSXr.0
REMARK                            x       y       z     vdW  Elec       q    Type
REMARK                         _______ _______ _______ _____ _____    ______ ____
ROOT
ATOM      1  C   LIG    1        1.252   2.101   0.383  0.00  0.00    +0.180 C 
ATOM      2  C   LIG    1        0.795   3.267   1.262  0.00  0.00    +0.070 C 
ENDROOT
BRANCH   1   5
ATOM      3  C   LIG    1        3.080   0.345   3.168  0.00  0.00    +0.290 C 
ATOM      4  C   LIG    1        1.931   1.075   2.469  0.00  0.00    +0.190 C 
ATOM      5  N   LIG    1        2.307   1.350   1.075  0.00  0.00    -0.500 NA
ATOM      6  C   LIG    1        2.618   0.101   0.363  0.00  0.00    +0.150 C 
ATOM      7  C   LIG    1        3.761  -0.619   1.084  0.00  0.00    +0.250 C 
ATOM      8  O   LIG    1        3.389  -0.850   2.445  0.00  0.00    -0.390 OA
BRANCH   3  13
ATOM      9  C   LIG    1        2.074  -2.185   7.424  0.00  0.00    +0.200 C 
ATOM     10  C   LIG    1        2.239  -1.094   6.398  0.00  0.00    +0.180 A 
ATOM     11  N   LIG    1        1.977   0.173   6.568  0.00  0.00    -0.290 NA
ATOM     12  N   LIG    1        2.233   0.818   5.484  0.00  0.00    -0.280 NA
ATOM     13  C   LIG    1        2.671  -0.010   4.574  0.00  0.00    +0.190 A 
ATOM     14  N   LIG    1        2.682  -1.247   5.126  0.00  0.00    -0.560 N 
ATOM     15  H   LIG    1        2.954  -2.074   4.699  0.00  0.00    +0.430 HD
ENDBRANCH   3  13
ENDBRANCH   1   5
BRANCH   1  16
ATOM     16  C   LIG    1        0.083   1.190   0.110  0.00  0.00    +0.480 C 
ATOM     17  N   LIG    1       -0.730   1.432  -0.938  0.00  0.00    -0.640 N 
ATOM     18  H   LIG    1       -0.520   2.146  -1.560  0.00  0.00    +0.410 HD
ATOM     19  O   LIG    1       -0.124   0.236   0.830  0.00  0.00    -0.520 OA
BRANCH  17  20
ATOM     20  C   LIG    1       -1.884   0.648  -1.129  0.00  0.00    -0.010 A 
ATOM     21  C   LIG    1       -3.123   1.111  -1.436  0.00  0.00    +0.070 A 
ATOM     22  N   LIG    1       -3.949   0.038  -1.533  0.00  0.00    -0.370 N 
ATOM     23  N   LIG    1       -3.191  -1.113  -1.278  0.00  0.00    -0.290 NA
ATOM     24  C   LIG    1       -5.379   0.076  -1.849  0.00  0.00    +0.360 C 
ATOM     25  C   LIG    1       -3.510   2.554  -1.632  0.00  0.00    +0.150 C 
ATOM     26  C   LIG    1       -1.957  -0.750  -1.042  0.00  0.00    +0.100 A 
ATOM     27  C   LIG    1       -0.810  -1.675  -0.727  0.00  0.00    +0.150 C 
ENDBRANCH  17  20
ENDBRANCH   1  16
TORSDOF 4
