REMARK  Name = ZINCrH00000tj1a2.0
REMARK                            x       y       z     vdW  Elec       q    Type
REMARK                         _______ _______ _______ _____ _____    ______ ____
ROOT
ATOM      1  N   LIG    1       -2.428   1.041   0.019  0.00  0.00    -0.560 N 
ATOM      2  C   LIG    1       -3.755   1.656   0.134  0.00  0.00    +0.300 C 
ATOM      3  C   LIG    1       -4.710   0.506   0.526  0.00  0.00    +0.100 C 
ATOM      4  C   LIG    1       -3.966  -0.727  -0.037  0.00  0.00    +0.110 C 
ATOM      5  C   LIG    1       -2.517  -0.296  -0.090  0.00  0.00    +0.520 C 
ATOM      6  O   LIG    1       -1.573  -1.048  -0.211  0.00  0.00    -0.500 OA
ENDROOT
BRANCH   3   7
ATOM      7  C   LIG    1       -6.054   0.673  -0.133  0.00  0.00    +0.290 A 
ATOM      8  N   LIG    1       -6.254   0.718  -1.418  0.00  0.00    -0.480 NA
ATOM      9  C   LIG    1       -7.580   0.872  -1.669  0.00  0.00    +0.050 A 
ATOM     10  C   LIG    1       -8.333   0.975  -2.841  0.00  0.00    +0.070 A 
ATOM     11  C   LIG    1       -9.688   1.134  -2.768  0.00  0.00    +0.000 A 
ATOM     12  C   LIG    1      -10.328   1.195  -1.538  0.00  0.00    +0.030 A 
ATOM     13  C   LIG    1       -9.605   1.096  -0.368  0.00  0.00    +0.010 A 
ATOM     14  C   LIG    1       -8.227   0.934  -0.423  0.00  0.00    +0.050 A 
ATOM     15  N   LIG    1       -7.236   0.805   0.529  0.00  0.00    -0.480 N 
BRANCH  15  16
ATOM     16  C   LIG    1       -7.421   0.809   1.982  0.00  0.00    +0.320 C 
BRANCH  16  17
ATOM     17  C   LIG    1       -7.316   2.243   2.505  0.00  0.00    +0.170 C 
BRANCH  17  18
ATOM     18  O   LIG    1       -7.497   2.248   3.923  0.00  0.00    -0.390 OA
ATOM     19  C   LIG    1       -7.417   3.546   4.515  0.00  0.00    +0.220 C 
ENDBRANCH  17  18
ENDBRANCH  16  17
ENDBRANCH  15  16
ENDBRANCH   3   7
BRANCH   1  23
ATOM     20  C   LIG    1        1.156   3.166   0.021  0.00  0.00    -0.110 A 
ATOM     21  C   LIG    1       -0.049   3.845   0.013  0.00  0.00    +0.040 A 
ATOM     22  C   LIG    1       -1.239   3.143   0.009  0.00  0.00    -0.030 A 
ATOM     23  C   LIG    1       -1.224   1.754   0.017  0.00  0.00    +0.160 A 
ATOM     24  C   LIG    1       -0.013   1.076   0.018  0.00  0.00    +0.000 A 
ATOM     25  C   LIG    1        1.174   1.783   0.023  0.00  0.00    +0.040 A 
BRANCH  20  27
ATOM     26  C   LIG    1        2.883   4.198   1.469  0.00  0.00    +0.020 C 
ATOM     27  C   LIG    1        2.452   3.935   0.025  0.00  0.00    +0.060 C 
ENDBRANCH  20  27
ENDBRANCH   1  23
TORSDOF 6
