REMARK  Name = ZINCAx0000000gc7.0
REMARK                            x       y       z     vdW  Elec       q    Type
REMARK                         _______ _______ _______ _____ _____    ______ ____
ROOT
ATOM      1  N   LIG    1       -3.433   6.086  -2.983  0.00  0.00    -0.530 N 
ATOM      2  C   LIG    1       -2.590   5.808  -1.967  0.00  0.00    +0.600 A 
ATOM      3  C   LIG    1       -1.204   6.009  -2.146  0.00  0.00    -0.150 A 
ATOM      4  C   LIG    1       -0.743   6.500  -3.361  0.00  0.00    +0.320 A 
ATOM      5  N   LIG    1       -1.659   6.767  -4.365  0.00  0.00    -0.500 N 
ATOM      6  N   LIG    1        0.585   6.604  -3.267  0.00  0.00    -0.500 NA
ATOM      7  C   LIG    1        0.978   6.216  -2.080  0.00  0.00    +0.500 A 
ATOM      8  N   LIG    1       -0.089   5.842  -1.348  0.00  0.00    -0.400 N 
ATOM      9  O   LIG    1       -3.019   5.382  -0.909  0.00  0.00    -0.510 OA
ATOM     10  C   LIG    1       -2.972   6.556  -4.155  0.00  0.00    +0.720 A 
ATOM     11  O   LIG    1       -3.761   6.797  -5.048  0.00  0.00    -0.530 OA
ENDROOT
BRANCH   1  12
ATOM     12  C   LIG    1       -4.871   5.874  -2.806  0.00  0.00    +0.360 C 
BRANCH  12  14
ATOM     13  O   LIG    1       -4.364   3.722  -3.631  0.00  0.00    -0.520 OA
ATOM     14  C   LIG    1       -5.227   4.471  -3.225  0.00  0.00    +0.510 C 
ATOM     15  N   LIG    1       -6.505   4.048  -3.148  0.00  0.00    -0.720 N 
ATOM     16  H   LIG    1       -7.195   4.647  -2.823  0.00  0.00    +0.400 HD
BRANCH  15  17
ATOM     17  C   LIG    1       -6.850   2.684  -3.555  0.00  0.00    +0.320 C 
BRANCH  17  18
ATOM     18  C   LIG    1       -8.330   2.465  -3.373  0.00  0.00    -0.110 A 
ATOM     19  C   LIG    1       -8.815   1.977  -2.174  0.00  0.00    +0.020 A 
ATOM     20  C   LIG    1      -10.172   1.781  -2.005  0.00  0.00    +0.010 A 
ATOM     21  C   LIG    1      -11.045   2.063  -3.039  0.00  0.00    +0.010 A 
ATOM     22  C   LIG    1      -10.561   2.547  -4.240  0.00  0.00    +0.010 A 
ATOM     23  C   LIG    1       -9.203   2.748  -4.407  0.00  0.00    +0.020 A 
ENDBRANCH  17  18
ENDBRANCH  15  17
ENDBRANCH  12  14
ENDBRANCH   1  12
BRANCH   5  24
ATOM     24  C   LIG    1       -1.198   7.281  -5.657  0.00  0.00    +0.380 C 
BRANCH  24  25
ATOM     25  C   LIG    1       -0.903   6.127  -6.580  0.00  0.00    -0.120 A 
ATOM     26  C   LIG    1        0.365   5.577  -6.615  0.00  0.00    +0.040 A 
ATOM     27  C   LIG    1        0.635   4.515  -7.458  0.00  0.00    -0.010 A 
ATOM     28  C   LIG    1       -0.360   4.010  -8.274  0.00  0.00    +0.010 A 
ATOM     29  C   LIG    1       -1.626   4.564  -8.244  0.00  0.00    -0.010 A 
ATOM     30  C   LIG    1       -1.897   5.622  -7.397  0.00  0.00    +0.040 A 
ENDBRANCH  24  25
ENDBRANCH   5  24
BRANCH   8  31
ATOM     31  C   LIG    1       -0.070   5.347   0.030  0.00  0.00    +0.370 C 
BRANCH  31  32
ATOM     32  C   LIG    1       -0.050   3.840   0.022  0.00  0.00    -0.130 A 
ATOM     33  C   LIG    1        1.156   3.165   0.008  0.00  0.00    +0.020 A 
ATOM     34  C   LIG    1        1.175   1.783   0.000  0.00  0.00    +0.000 A 
ATOM     35  C   LIG    1       -0.013   1.076   0.008  0.00  0.00    +0.020 A 
ATOM     36  C   LIG    1       -1.219   1.751   0.017  0.00  0.00    +0.000 A 
ATOM     37  C   LIG    1       -1.238   3.133   0.029  0.00  0.00    +0.050 A 
ENDBRANCH  31  32
ENDBRANCH   8  31
TORSDOF 8
