REMARK  Name = ZINCpe000027pHrF.0
REMARK                            x       y       z     vdW  Elec       q    Type
REMARK                         _______ _______ _______ _____ _____    ______ ____
ROOT
ATOM      1  C   LIG    1        0.868   3.515   0.035  0.00  0.00    +0.170 C 
ATOM      2  C   LIG    1        0.806   4.044   1.470  0.00  0.00    +0.220 C 
ATOM      3  N   LIG    1        1.140   5.473   1.481  0.00  0.00    -0.470 N 
ATOM      4  C   LIG    1        2.506   5.703   0.994  0.00  0.00    +0.210 C 
ATOM      5  C   LIG    1        2.619   5.225  -0.455  0.00  0.00    +0.050 C 
ATOM      6  C   LIG    1        2.277   3.734  -0.523  0.00  0.00    +0.210 C 
ENDROOT
BRANCH   3   7
ATOM      7  C   LIG    1        0.966   6.016   2.750  0.00  0.00    +0.280 A 
ATOM      8  N   LIG    1        1.707   5.591   3.763  0.00  0.00    -0.250 NA
ATOM      9  N   LIG    1        1.581   6.070   4.947  0.00  0.00    -0.200 NA
ATOM     10  C   LIG    1        0.700   7.006   5.238  0.00  0.00    +0.110 A 
ATOM     11  C   LIG    1       -0.128   7.513   4.245  0.00  0.00    +0.110 A 
ATOM     12  C   LIG    1        0.006   7.005   2.963  0.00  0.00    -0.150 A 
BRANCH  12  13
ATOM     13  C   LIG    1       -0.858   7.506   1.835  0.00  0.00    +0.530 C 
ATOM     14  F   LIG    1       -1.638   6.455   1.342  0.00  0.00    -0.160 F 
ATOM     15  F   LIG    1       -0.044   8.003   0.810  0.00  0.00    -0.160 F 
ATOM     16  F   LIG    1       -1.692   8.527   2.304  0.00  0.00    -0.180 F 
ENDBRANCH  12  13
BRANCH  10  17
ATOM     17  C   LIG    1        0.592   7.527   6.648  0.00  0.00    +0.020 C 
ATOM     18  C   LIG    1       -0.150   8.848   6.858  0.00  0.00    +0.040 C 
ATOM     19  C   LIG    1        1.373   8.796   6.994  0.00  0.00    +0.060 C 
ENDBRANCH  10  17
ENDBRANCH   3   7
BRANCH   1  20
ATOM     20  C   LIG    1        0.546   2.043   0.026  0.00  0.00    +0.450 C 
ATOM     21  O   LIG    1        1.439   1.229   0.058  0.00  0.00    -0.490 OA
BRANCH  20  23
ATOM     22  C   LIG    1       -0.968   0.203  -0.022  0.00  0.00    +0.280 C 
ATOM     23  O   LIG    1       -0.732   1.636  -0.017  0.00  0.00    -0.360 OA
ENDBRANCH  20  23
ENDBRANCH   1  20
BRANCH   1  24
ATOM     24  O   LIG    1       -0.080   4.216  -0.773  0.00  0.00    -0.510 OA
ATOM     25  H   LIG    1       -0.995   4.123  -0.476  0.00  0.00    +0.390 HD
ENDBRANCH   1  24
BRANCH   6  26
ATOM     26  O   LIG    1        2.326   3.294  -1.882  0.00  0.00    -0.550 OA
ATOM     27  H   LIG    1        3.191   3.403  -2.300  0.00  0.00    +0.380 HD
ENDBRANCH   6  26
TORSDOF 7
