REMARK  Name = ZINCpe000000ZA4X.0
REMARK                            x       y       z     vdW  Elec       q    Type
REMARK                         _______ _______ _______ _____ _____    ______ ____
ROOT
ATOM      1  C   LIG    1        0.002  -0.004   0.002  0.00  0.00    +0.570 C 
ATOM      2  N   LIG    1        1.177  -0.659   0.089  0.00  0.00    -0.610 N 
ATOM      3  C   LIG    1        2.446   0.078   0.186  0.00  0.00    +0.300 C 
ATOM      4  C   LIG    1        3.233  -0.474   1.386  0.00  0.00    +0.170 C 
ATOM      5  N   LIG    1        3.370  -1.930   1.247  0.00  0.00    -0.530 NA
ATOM      6  C   LIG    1        2.060  -2.594   1.280  0.00  0.00    +0.180 C 
ATOM      7  C   LIG    1        1.224  -2.129   0.083  0.00  0.00    +0.280 C 
ATOM      8  O   LIG    1       -0.014   1.210  -0.061  0.00  0.00    -0.520 OA
ENDROOT
BRANCH   1  16
ATOM      9  O   LIG    1       -6.533  -1.500   2.425  0.00  0.00    -0.500 OA
ATOM     10  C   LIG    1       -5.561  -1.753   1.745  0.00  0.00    +0.490 C 
ATOM     11  C   LIG    1       -5.442  -3.091   1.060  0.00  0.00    +0.320 C 
ATOM     12  O   LIG    1       -4.723  -2.943  -0.166  0.00  0.00    -0.280 OA
ATOM     13  C   LIG    1       -3.575  -2.219  -0.118  0.00  0.00    +0.310 A 
ATOM     14  N   LIG    1       -2.556  -2.527  -0.904  0.00  0.00    -0.460 NA
ATOM     15  C   LIG    1       -1.430  -1.845  -0.879  0.00  0.00    +0.330 A 
ATOM     16  C   LIG    1       -1.265  -0.761  -0.017  0.00  0.00    -0.170 A 
ATOM     17  C   LIG    1       -2.321  -0.405   0.837  0.00  0.00    +0.120 A 
ATOM     18  C   LIG    1       -3.486  -1.145   0.774  0.00  0.00    +0.050 A 
ATOM     19  N   LIG    1       -4.579  -0.837   1.595  0.00  0.00    -0.660 N 
ATOM     20  H   LIG    1       -4.630   0.020   2.047  0.00  0.00    +0.420 HD
ENDBRANCH   1  16
BRANCH   5  21
ATOM     21  C   LIG    1        4.263  -2.476   2.278  0.00  0.00    +0.280 C 
BRANCH  21  22
ATOM     22  C   LIG    1        5.660  -1.955   2.059  0.00  0.00    +0.070 A 
ATOM     23  C   LIG    1        6.135  -0.875   2.687  0.00  0.00    -0.080 A 
ATOM     24  S   LIG    1        7.793  -0.620   2.147  0.00  0.00    +0.130 S 
ATOM     25  C   LIG    1        7.679  -1.986   1.125  0.00  0.00    +0.220 A 
ATOM     26  N   LIG    1        6.511  -2.523   1.229  0.00  0.00    -0.450 NA
ENDBRANCH  21  22
ENDBRANCH   5  21
TORSDOF 3
