REMARK  Name = ZINCpk000000pC6A.0
REMARK                            x       y       z     vdW  Elec       q    Type
REMARK                         _______ _______ _______ _____ _____    ______ ____
ROOT
ATOM      1  N   LIG    1       -2.334   0.710  -1.219  0.00  0.00    -0.720 N 
ATOM      2  H   LIG    1       -2.660   0.197  -0.464  0.00  0.00    +0.400 HD
ATOM      3  C   LIG    1       -3.120   0.896  -2.298  0.00  0.00    +0.500 C 
ATOM      4  O   LIG    1       -2.712   1.538  -3.242  0.00  0.00    -0.520 OA
ENDROOT
BRANCH   1   5
ATOM      5  C   LIG    1       -0.987   1.285  -1.187  0.00  0.00    +0.270 C 
BRANCH   5   6
ATOM      6  C   LIG    1       -0.360   1.040   0.188  0.00  0.00    +0.030 C 
BRANCH   6   7
ATOM      7  C   LIG    1        1.061   1.542   0.189  0.00  0.00    -0.080 A 
ATOM      8  C   LIG    1        1.323   2.874  -0.070  0.00  0.00    +0.010 A 
ATOM      9  C   LIG    1        2.626   3.335  -0.066  0.00  0.00    +0.000 A 
ATOM     10  C   LIG    1        3.667   2.463   0.190  0.00  0.00    +0.000 A 
ATOM     11  C   LIG    1        3.405   1.129   0.444  0.00  0.00    +0.000 A 
ATOM     12  C   LIG    1        2.102   0.669   0.443  0.00  0.00    +0.010 A 
ENDBRANCH   6   7
BRANCH   6  14
ATOM     13  C   LIG    1       -0.625   1.429   2.641  0.00  0.00    +0.020 C 
ATOM     14  C   LIG    1       -1.165   1.784   1.255  0.00  0.00    +0.020 C 
ENDBRANCH   6  14
ENDBRANCH   5   6
ENDBRANCH   1   5
BRANCH   3  15
ATOM     15  C   LIG    1       -4.506   0.305  -2.331  0.00  0.00    +0.340 C 
BRANCH  15  16
ATOM     16  N   LIG    1       -5.152   0.645  -3.601  0.00  0.00    -0.530 N 
ATOM     17  C   LIG    1       -5.019  -0.181  -4.669  0.00  0.00    +0.630 A 
ATOM     18  N   LIG    1       -5.566   0.061  -5.824  0.00  0.00    -0.530 NA
ATOM     19  C   LIG    1       -6.308   1.157  -6.042  0.00  0.00    +0.330 A 
ATOM     20  C   LIG    1       -6.502   2.072  -4.995  0.00  0.00    -0.340 A 
ATOM     21  C   LIG    1       -7.308   3.112  -5.492  0.00  0.00    +0.330 A 
ATOM     22  N   LIG    1       -7.585   2.856  -6.741  0.00  0.00    -0.270 NA
ATOM     23  N   LIG    1       -6.980   1.649  -7.116  0.00  0.00    -0.350 N 
ATOM     24  C   LIG    1       -7.058   1.025  -8.439  0.00  0.00    +0.360 C 
ATOM     25  C   LIG    1       -5.884   1.780  -3.702  0.00  0.00    +0.580 A 
ATOM     26  O   LIG    1       -6.018   2.531  -2.752  0.00  0.00    -0.510 OA
ENDBRANCH  15  16
ENDBRANCH   3  15
TORSDOF 6
