REMARK  Name = ZINCnE000001Oiy7.0
REMARK                            x       y       z     vdW  Elec       q    Type
REMARK                         _______ _______ _______ _____ _____    ______ ____
ROOT
ATOM      1  C   LIG    1       -1.260   4.128   2.779  0.00  0.00    -0.320 A 
ATOM      2  C   LIG    1       -1.473   5.222   3.574  0.00  0.00    +0.290 A 
ATOM      3  N   LIG    1       -0.972   5.112   4.776  0.00  0.00    -0.470 NA
ATOM      4  C   LIG    1       -0.340   4.008   5.062  0.00  0.00    +0.020 A 
ATOM      5  S   LIG    1       -0.346   2.951   3.719  0.00  0.00    +0.290 S 
ENDROOT
BRANCH   1  11
ATOM      6  C   LIG    1       -0.923  -0.802   0.399  0.00  0.00    +0.040 C 
ATOM      7  C   LIG    1       -1.785   0.402   0.784  0.00  0.00    -0.150 C 
ATOM      8  C   LIG    1       -2.507   0.963  -0.458  0.00  0.00    +0.040 C 
ATOM      9  C   LIG    1       -1.996   2.413  -0.598  0.00  0.00    +0.270 C 
ATOM     10  N   LIG    1       -1.551   2.785   0.767  0.00  0.00    -0.610 N 
ATOM     11  C   LIG    1       -1.707   3.968   1.393  0.00  0.00    +0.620 C 
ATOM     12  O   LIG    1       -2.219   4.904   0.806  0.00  0.00    -0.540 OA
ATOM     13  C   LIG    1       -0.897   1.561   1.287  0.00  0.00    +0.260 C 
BRANCH   7  14
ATOM     14  C   LIG    1       -2.785   0.012   1.841  0.00  0.00    +0.500 C 
ATOM     15  O   LIG    1       -3.846   0.608   1.926  0.00  0.00    -0.680 OA
ATOM     16  O   LIG    1       -2.535  -0.899   2.612  0.00  0.00    -0.690 OA
ENDBRANCH   7  14
ENDBRANCH   1  11
BRANCH   4  17
ATOM     17  C   LIG    1        0.293   3.713   6.364  0.00  0.00    -0.010 A 
ATOM     18  C   LIG    1        0.239   4.649   7.398  0.00  0.00    +0.090 A 
ATOM     19  C   LIG    1        0.831   4.367   8.611  0.00  0.00    +0.020 A 
ATOM     20  C   LIG    1        1.478   3.159   8.805  0.00  0.00    +0.040 A 
ATOM     21  C   LIG    1        1.536   2.226   7.785  0.00  0.00    +0.040 A 
ATOM     22  C   LIG    1        0.943   2.493   6.567  0.00  0.00    -0.030 A 
ATOM     23 CL   LIG    1        1.010   1.319   5.291  0.00  0.00    -0.020 Cl
ENDBRANCH   4  17
TORSDOF 3
