REMARK  Name = ZINCpk00000ebpCb.0
REMARK                            x       y       z     vdW  Elec       q    Type
REMARK                         _______ _______ _______ _____ _____    ______ ____
ROOT
ATOM      1  N   LIG    1       -5.048   5.528   8.145  0.00  0.00    -0.730 N 
ATOM      2  H   LIG    1       -5.985   5.406   7.923  0.00  0.00    +0.410 HD
ATOM      3  C   LIG    1       -4.096   5.221   7.242  0.00  0.00    +0.520 C 
ATOM      4  O   LIG    1       -2.926   5.373   7.520  0.00  0.00    -0.510 OA
ENDROOT
BRANCH   1   5
ATOM      5  C   LIG    1       -4.669   6.045   9.462  0.00  0.00    +0.340 C 
BRANCH   5   9
ATOM      6  C   LIG    1       -8.187   6.787  11.769  0.00  0.00    -0.670 A 
ATOM      7  C   LIG    1       -7.574   5.549  11.822  0.00  0.00    +0.130 A 
ATOM      8  C   LIG    1       -6.436   5.309  11.075  0.00  0.00    +0.020 A 
ATOM      9  C   LIG    1       -5.910   6.307  10.276  0.00  0.00    -0.050 A 
ATOM     10  C   LIG    1       -6.520   7.546  10.227  0.00  0.00    +0.020 A 
ATOM     11  C   LIG    1       -7.662   7.785  10.970  0.00  0.00    +0.130 A 
BRANCH   6  12
ATOM     12  S   LIG    1       -9.638   7.093  12.721  0.00  0.00    +2.700 S 
ATOM     13  O   LIG    1      -10.230   5.826  12.968  0.00  0.00    -0.960 OA
ATOM     14  O   LIG    1      -10.322   8.159  12.078  0.00  0.00    -0.960 OA
BRANCH  12  15
ATOM     15  N   LIG    1       -9.145   7.674  14.192  0.00  0.00    -1.250 NA
ATOM     16  H   LIG    1       -8.291   7.398  14.561  0.00  0.00    +0.420 HD
ATOM     17  H   LIG    1       -9.710   8.289  14.684  0.00  0.00    +0.420 HD
ENDBRANCH  12  15
ENDBRANCH   6  12
ENDBRANCH   5   9
ENDBRANCH   1   5
BRANCH   3  18
ATOM     18  C   LIG    1       -4.487   4.689   5.887  0.00  0.00    +0.250 C 
BRANCH  18  19
ATOM     19  O   LIG    1       -3.291   4.436   5.103  0.00  0.00    -0.330 OA
BRANCH  19  20
ATOM     20  C   LIG    1       -3.466   3.956   3.862  0.00  0.00    +0.460 C 
ATOM     21  O   LIG    1       -4.581   3.753   3.445  0.00  0.00    -0.510 OA
BRANCH  20  22
ATOM     22  C   LIG    1       -2.271   3.670   2.990  0.00  0.00    +0.110 C 
BRANCH  22  23
ATOM     23  C   LIG    1       -2.744   3.135   1.636  0.00  0.00    +0.040 C 
BRANCH  23  24
ATOM     24  C   LIG    1       -1.531   2.845   0.750  0.00  0.00    -0.010 C 
ATOM     25  C   LIG    1       -0.763   1.597   1.255  0.00  0.00    +0.020 C 
ATOM     26  C   LIG    1       -0.013   1.086   0.008  0.00  0.00    -0.010 C 
ATOM     27  C   LIG    1       -0.784   1.609  -1.216  0.00  0.00    -0.010 C 
ATOM     28  C   LIG    1       -1.978   2.421  -0.670  0.00  0.00    +0.020 C 
ENDBRANCH  23  24
ENDBRANCH  22  23
ENDBRANCH  20  22
ENDBRANCH  19  20
ENDBRANCH  18  19
ENDBRANCH   3  18
TORSDOF 10
