REMARK  Name = ZINCpk00000y6x3O.0
REMARK                            x       y       z     vdW  Elec       q    Type
REMARK                         _______ _______ _______ _____ _____    ______ ____
ROOT
ATOM      1  C   LIG    1        0.706   7.246   4.716  0.00  0.00    +0.280 C 
ATOM      2  C   LIG    1        0.355   8.739   4.882  0.00  0.00    +0.080 C 
ATOM      3  C   LIG    1       -1.186   8.753   4.702  0.00  0.00    +0.180 C 
ATOM      4  C   LIG    1       -1.384   7.656   3.627  0.00  0.00    +0.220 C 
ATOM      5  N   LIG    1       -0.386   6.622   3.955  0.00  0.00    -0.610 N 
ATOM      6  C   LIG    1       -0.464   5.320   3.617  0.00  0.00    +0.520 C 
ATOM      7  O   LIG    1        0.420   4.555   3.941  0.00  0.00    -0.510 OA
ENDROOT
BRANCH   1  12
ATOM      8  C   LIG    1        4.369   6.723   3.945  0.00  0.00    +0.130 A 
ATOM      9  C   LIG    1        4.380   6.857   2.565  0.00  0.00    -0.080 A 
ATOM     10  C   LIG    1        3.204   7.116   1.887  0.00  0.00    +0.040 A 
ATOM     11  C   LIG    1        2.017   7.241   2.583  0.00  0.00    -0.020 A 
ATOM     12  C   LIG    1        2.003   7.108   3.960  0.00  0.00    -0.050 A 
ATOM     13  C   LIG    1        3.176   6.855   4.643  0.00  0.00    -0.010 A 
BRANCH   8  15
ATOM     14  C   LIG    1        6.714   6.352   3.832  0.00  0.00    +0.250 C 
ATOM     15  O   LIG    1        5.524   6.469   4.614  0.00  0.00    -0.320 OA
ENDBRANCH   8  15
ENDBRANCH   1  12
BRANCH   3  16
ATOM     16  O   LIG    1       -1.847   8.402   5.920  0.00  0.00    -0.550 OA
ATOM     17  H   LIG    1       -2.805   8.303   5.833  0.00  0.00    +0.380 HD
ENDBRANCH   3  16
BRANCH   6  18
ATOM     18  C   LIG    1       -1.649   4.813   2.836  0.00  0.00    +0.330 C 
BRANCH  18  19
ATOM     19  N   LIG    1       -1.498   3.376   2.597  0.00  0.00    -0.480 N 
ATOM     20  C   LIG    1       -1.996   2.490   3.496  0.00  0.00    +0.290 A 
ATOM     21  C   LIG    1       -1.870   1.157   3.296  0.00  0.00    -0.070 A 
ATOM     22  C   LIG    1       -1.218   0.680   2.150  0.00  0.00    +0.120 A 
ATOM     23  C   LIG    1       -0.718   1.572   1.248  0.00  0.00    -0.210 A 
ATOM     24  C   LIG    1       -0.013   1.086   0.008  0.00  0.00    +0.120 C 
ATOM     25  C   LIG    1       -0.862   2.949   1.489  0.00  0.00    +0.520 A 
ATOM     26  O   LIG    1       -0.414   3.758   0.692  0.00  0.00    -0.550 OA
ENDBRANCH  18  19
ENDBRANCH   6  18
TORSDOF 5
