REMARK  Name = ZINCqH0000007Y5A.0
REMARK                            x       y       z     vdW  Elec       q    Type
REMARK                         _______ _______ _______ _____ _____    ______ ____
ROOT
ATOM      1  N   LIG    1       -0.688   1.745  -1.204  0.00  0.00    -0.730 N 
ATOM      2  H   LIG    1       -1.463   2.317  -1.092  0.00  0.00    +0.400 HD
ATOM      3  C   LIG    1       -0.229   1.467  -2.441  0.00  0.00    +0.590 C 
ATOM      4  O   LIG    1        0.745   0.750  -2.582  0.00  0.00    -0.510 OA
ENDROOT
BRANCH   3   5
ATOM      5  C   LIG    1       -0.900   2.028  -3.614  0.00  0.00    -0.270 A 
ATOM      6  C   LIG    1       -0.525   1.824  -4.925  0.00  0.00    +0.020 A 
ATOM      7  C   LIG    1       -1.349   2.478  -5.827  0.00  0.00    +0.010 A 
ATOM      8  C   LIG    1       -2.337   3.187  -5.280  0.00  0.00    -0.050 A 
ATOM      9  S   LIG    1       -2.310   3.078  -3.578  0.00  0.00    +0.210 S 
BRANCH   6  10
ATOM     10  C   LIG    1        0.632   0.991  -5.326  0.00  0.00    -0.050 A 
ATOM     11  C   LIG    1        1.878   1.191  -4.732  0.00  0.00    +0.070 A 
ATOM     12  C   LIG    1        2.951   0.408  -5.107  0.00  0.00    -0.010 A 
ATOM     13  C   LIG    1        2.795  -0.567  -6.076  0.00  0.00    +0.010 A 
ATOM     14  C   LIG    1        1.563  -0.766  -6.672  0.00  0.00    -0.010 A 
ATOM     15  C   LIG    1        0.481   0.006  -6.302  0.00  0.00    +0.020 A 
ENDBRANCH   6  10
ENDBRANCH   3   5
BRANCH   1  16
ATOM     16  C   LIG    1       -0.016   1.183  -0.030  0.00  0.00    +0.320 C 
BRANCH  16  20
ATOM     17  C   LIG    1       -2.014   2.488   3.515  0.00  0.00    +0.150 A 
ATOM     18  C   LIG    1       -2.406   1.312   2.888  0.00  0.00    +0.000 A 
ATOM     19  C   LIG    1       -1.758   0.894   1.742  0.00  0.00    +0.050 A 
ATOM     20  C   LIG    1       -0.720   1.643   1.220  0.00  0.00    -0.120 A 
ATOM     21  C   LIG    1       -0.324   2.811   1.845  0.00  0.00    +0.050 A 
ATOM     22  C   LIG    1       -0.971   3.239   2.988  0.00  0.00    +0.010 A 
BRANCH  17  23
ATOM     23  N   LIG    1       -2.667   2.914   4.674  0.00  0.00    -1.060 N 
ATOM     24  H   LIG    1       -3.636   2.908   4.715  0.00  0.00    +0.430 HD
BRANCH  23  26
ATOM     25  C   LIG    1       -0.798   1.986   6.457  0.00  0.00    -0.280 C 
ATOM     26  S   LIG    1       -1.786   3.430   5.978  0.00  0.00    +2.610 S 
ATOM     27  O   LIG    1       -2.764   3.716   6.970  0.00  0.00    -0.950 OA
ATOM     28  O   LIG    1       -0.952   4.454   5.455  0.00  0.00    -0.950 OA
ENDBRANCH  23  26
ENDBRANCH  17  23
ENDBRANCH  16  20
ENDBRANCH   1  16
TORSDOF 6
