REMARK  Name = ZINCqH00000365QY.0
REMARK                            x       y       z     vdW  Elec       q    Type
REMARK                         _______ _______ _______ _____ _____    ______ ____
ROOT
ATOM      1  C   LIG    1        5.217  -2.865  -0.064  0.00  0.00    +0.290 C 
ATOM      2  C   LIG    1        4.950  -4.385  -0.037  0.00  0.00    +0.050 C 
ATOM      3  C   LIG    1        3.521  -4.478   0.560  0.00  0.00    +0.040 C 
ATOM      4  C   LIG    1        2.850  -3.216  -0.039  0.00  0.00    +0.240 C 
ATOM      5  N   LIG    1        3.910  -2.192  -0.043  0.00  0.00    -0.620 N 
ATOM      6  C   LIG    1        3.713  -0.858  -0.035  0.00  0.00    +0.530 C 
ATOM      7  O   LIG    1        4.664  -0.105  -0.040  0.00  0.00    -0.500 OA
ENDROOT
BRANCH   1  11
ATOM      8  C   LIG    1        7.335  -1.817  -3.629  0.00  0.00    +0.170 A 
ATOM      9  C   LIG    1        5.962  -1.631  -3.553  0.00  0.00    -0.110 A 
ATOM     10  C   LIG    1        5.280  -1.976  -2.402  0.00  0.00    +0.100 A 
ATOM     11  C   LIG    1        5.964  -2.496  -1.320  0.00  0.00    -0.150 A 
ATOM     12  C   LIG    1        7.337  -2.683  -1.391  0.00  0.00    +0.180 A 
ATOM     13  C   LIG    1        8.023  -2.344  -2.546  0.00  0.00    -0.100 A 
BRANCH   8  15
ATOM     14  C   LIG    1        7.232  -0.947  -5.839  0.00  0.00    +0.250 C 
ATOM     15  O   LIG    1        8.005  -1.484  -4.763  0.00  0.00    -0.320 OA
ENDBRANCH   8  15
BRANCH  12  16
ATOM     16  O   LIG    1        8.008  -3.200  -0.328  0.00  0.00    -0.310 OA
ATOM     17  C   LIG    1        9.420  -3.366  -0.471  0.00  0.00    +0.240 C 
ENDBRANCH  12  16
ENDBRANCH   1  11
BRANCH   6  18
ATOM     18  C   LIG    1        2.312  -0.303  -0.020  0.00  0.00    +0.230 C 
BRANCH  18  19
ATOM     19  O   LIG    1        2.366   1.125  -0.014  0.00  0.00    -0.290 OA
BRANCH  19  20
ATOM     20  C   LIG    1        1.179   1.786   0.000  0.00  0.00    +0.130 A 
ATOM     21  C   LIG    1       -0.013   1.076   0.008  0.00  0.00    -0.090 A 
ATOM     22  C   LIG    1       -1.218   1.751   0.017  0.00  0.00    +0.050 A 
ATOM     23  C   LIG    1       -1.237   3.133   0.029  0.00  0.00    -0.040 A 
ATOM     24  C   LIG    1       -0.051   3.844   0.022  0.00  0.00    -0.050 A 
ATOM     25  C   LIG    1       -0.076   5.351   0.030  0.00  0.00    +0.090 C 
ATOM     26  C   LIG    1        1.157   3.174   0.008  0.00  0.00    -0.020 A 
ENDBRANCH  19  20
ENDBRANCH  18  19
ENDBRANCH   6  18
TORSDOF 6
