REMARK  Name = ZINCnE000001NQxR.0
REMARK                            x       y       z     vdW  Elec       q    Type
REMARK                         _______ _______ _______ _____ _____    ______ ____
ROOT
ATOM      1  C   LIG    1       -2.512   0.424   0.049  0.00  0.00    +0.520 C 
ATOM      2  N   LIG    1       -1.906   1.276   0.899  0.00  0.00    -0.600 N 
ATOM      3  C   LIG    1       -2.698   2.125   1.799  0.00  0.00    +0.280 C 
ATOM      4  C   LIG    1       -2.209   1.913   3.235  0.00  0.00    -0.100 C 
ATOM      5  C   LIG    1       -0.701   2.165   3.298  0.00  0.00    +0.040 C 
ATOM      6  C   LIG    1        0.024   1.170   2.389  0.00  0.00    +0.000 C 
ATOM      7  C   LIG    1       -0.441   1.374   0.944  0.00  0.00    +0.210 C 
ATOM      8  C   LIG    1        0.173   0.293   0.051  0.00  0.00    +0.050 C 
ATOM      9  O   LIG    1       -1.847  -0.330  -0.631  0.00  0.00    -0.520 OA
ENDROOT
BRANCH   4  10
ATOM     10  C   LIG    1       -2.918   2.872   4.156  0.00  0.00    +0.500 C 
ATOM     11  O   LIG    1       -4.133   2.837   4.253  0.00  0.00    -0.700 OA
ATOM     12  O   LIG    1       -2.277   3.683   4.803  0.00  0.00    -0.690 OA
ENDBRANCH   4  10
BRANCH   1  14
ATOM     13  C   LIG    1       -4.610  -0.184   1.223  0.00  0.00    +0.070 C 
ATOM     14  C   LIG    1       -4.015   0.407  -0.057  0.00  0.00    +0.160 C 
BRANCH  14  15
ATOM     15  O   LIG    1       -4.405  -0.392  -1.176  0.00  0.00    -0.270 OA
BRANCH  15  16
ATOM     16  C   LIG    1       -5.616  -0.125  -1.733  0.00  0.00    +0.150 A 
ATOM     17  C   LIG    1       -6.461   0.804  -1.145  0.00  0.00    -0.040 A 
ATOM     18  C   LIG    1       -7.692   1.074  -1.712  0.00  0.00    +0.080 A 
ATOM     19  C   LIG    1       -8.082   0.418  -2.866  0.00  0.00    -0.070 A 
ATOM     20  C   LIG    1       -7.241  -0.511  -3.454  0.00  0.00    +0.090 A 
ATOM     21 CL   LIG    1       -9.629   0.759  -3.576  0.00  0.00    -0.060 Cl
ATOM     22  C   LIG    1       -6.007  -0.779  -2.893  0.00  0.00    -0.060 A 
ATOM     23 CL   LIG    1       -4.949  -1.939  -3.636  0.00  0.00    -0.040 Cl
ENDBRANCH  15  16
ENDBRANCH  14  15
ENDBRANCH   1  14
TORSDOF 4
