REMARK  Name = ZINCvU0000000JWi.0
REMARK                            x       y       z     vdW  Elec       q    Type
REMARK                         _______ _______ _______ _____ _____    ______ ____
ROOT
ATOM      1  C   LIG    1        3.177   7.070  -1.940  0.00  0.00    -0.260 A 
ATOM      2  C   LIG    1        4.143   6.374  -1.322  0.00  0.00    +0.180 A 
ATOM      3  C   LIG    1        3.748   5.136  -0.798  0.00  0.00    -0.220 A 
ATOM      4  C   LIG    1        2.409   4.856  -1.020  0.00  0.00    +0.020 A 
ATOM      5  N   LIG    1        2.150   3.631  -0.466  0.00  0.00    -0.300 N 
ATOM      6  N   LIG    1        3.333   3.154   0.106  0.00  0.00    -0.260 NA
ATOM      7  C   LIG    1        4.284   4.019  -0.083  0.00  0.00    +0.150 A 
ATOM      8  C   LIG    1        5.711   3.873   0.379  0.00  0.00    +0.180 C 
ATOM      9  S   LIG    1        1.662   6.183  -1.900  0.00  0.00    +0.210 S 
ENDROOT
BRANCH   5  10
ATOM     10  C   LIG    1        0.913   2.972  -0.467  0.00  0.00    +0.160 A 
ATOM     11  C   LIG    1        0.861   1.589  -0.571  0.00  0.00    +0.050 A 
ATOM     12  C   LIG    1       -0.359   0.942  -0.571  0.00  0.00    +0.060 A 
ATOM     13  C   LIG    1       -1.530   1.673  -0.473  0.00  0.00    -0.040 A 
ATOM     14  C   LIG    1       -1.482   3.051  -0.363  0.00  0.00    +0.070 A 
ATOM     15 CL   LIG    1       -3.063   0.858  -0.481  0.00  0.00    -0.060 Cl
ATOM     16  C   LIG    1       -0.264   3.703  -0.362  0.00  0.00    +0.020 A 
ENDBRANCH   5  10
BRANCH   1  21
ATOM     17  C   LIG    1        2.081  10.308  -3.784  0.00  0.00    +0.250 C 
ATOM     18  C   LIG    1        1.002   9.637  -4.646  0.00  0.00    +0.050 C 
ATOM     19  C   LIG    1        0.926   8.655  -3.473  0.00  0.00    +0.260 C 
ATOM     20  N   LIG    1        2.320   9.000  -3.157  0.00  0.00    -0.650 N 
ATOM     21  C   LIG    1        3.361   8.385  -2.560  0.00  0.00    +0.630 C 
ATOM     22  O   LIG    1        4.452   8.922  -2.537  0.00  0.00    -0.520 OA
BRANCH  17  23
ATOM     23  C   LIG    1        3.274  10.824  -4.591  0.00  0.00    +0.090 C 
BRANCH  23  27
ATOM     24  C   LIG    1        2.431  14.762  -6.020  0.00  0.00    +0.120 A 
ATOM     25  C   LIG    1        3.135  14.588  -4.837  0.00  0.00    -0.020 A 
ATOM     26  C   LIG    1        3.406  13.314  -4.377  0.00  0.00    +0.060 A 
ATOM     27  C   LIG    1        2.977  12.213  -5.095  0.00  0.00    -0.120 A 
ATOM     28  C   LIG    1        2.281  12.384  -6.277  0.00  0.00    +0.050 A 
ATOM     29  C   LIG    1        2.002  13.656  -6.739  0.00  0.00    -0.080 A 
BRANCH  24  31
ATOM     30  C   LIG    1        1.435  16.118  -7.699  0.00  0.00    +0.250 C 
ATOM     31  O   LIG    1        2.163  16.015  -6.474  0.00  0.00    -0.320 OA
ENDBRANCH  24  31
ENDBRANCH  23  27
ENDBRANCH  17  23
ENDBRANCH   1  21
TORSDOF 5
