REMARK  Name = ZINCpk00000y6wNY.0
REMARK                            x       y       z     vdW  Elec       q    Type
REMARK                         _______ _______ _______ _____ _____    ______ ____
ROOT
ATOM      1  C   LIG    1        3.687   1.743   0.233  0.00  0.00    +0.250 C 
ATOM      2  C   LIG    1        4.733   0.973  -0.611  0.00  0.00    +0.060 C 
ATOM      3  C   LIG    1        3.911   0.615  -1.877  0.00  0.00    +0.010 C 
ATOM      4  C   LIG    1        2.501   0.345  -1.312  0.00  0.00    +0.190 C 
ATOM      5  N   LIG    1        2.410   1.040  -0.015  0.00  0.00    -0.490 NA
ENDROOT
BRANCH   1   9
ATOM      6  C   LIG    1        6.095   2.194   4.610  0.00  0.00    +0.340 C 
ATOM      7  N   LIG    1        5.080   1.871   3.603  0.00  0.00    -0.420 NA
ATOM      8  N   LIG    1        5.155   2.119   2.223  0.00  0.00    -0.330 NA
ATOM      9  C   LIG    1        4.044   1.681   1.696  0.00  0.00    +0.260 C 
ATOM     10  N   LIG    1        3.278   1.164   2.657  0.00  0.00    -0.550 NA
ATOM     11  C   LIG    1        3.890   1.271   3.817  0.00  0.00    +0.520 C 
BRANCH  11  12
ATOM     12  N   LIG    1        3.401   0.845   5.039  0.00  0.00    -0.830 NA
ATOM     13  H   LIG    1        3.930   0.969   5.843  0.00  0.00    +0.410 HD
ATOM     14  H   LIG    1        2.530   0.422   5.091  0.00  0.00    +0.420 HD
ENDBRANCH  11  12
ENDBRANCH   1   9
BRANCH   5  15
ATOM     15  C   LIG    1        1.280   1.980   0.001  0.00  0.00    +0.220 C 
BRANCH  15  16
ATOM     16  C   LIG    1       -0.014   1.209   0.009  0.00  0.00    +0.510 C 
ATOM     17  N   LIG    1       -1.191   1.867   0.018  0.00  0.00    -0.630 N 
ATOM     18  H   LIG    1       -1.204   2.836   0.023  0.00  0.00    +0.430 HD
ATOM     19  O   LIG    1        0.002  -0.004   0.002  0.00  0.00    -0.460 OA
BRANCH  17  20
ATOM     20  C   LIG    1       -2.382   1.157   0.020  0.00  0.00    +0.220 A 
ATOM     21  C   LIG    1       -3.645   1.676   0.028  0.00  0.00    -0.100 A 
ATOM     22  C   LIG    1       -4.479   0.539   0.025  0.00  0.00    +0.050 A 
ATOM     23  N   LIG    1       -3.691  -0.499   0.016  0.00  0.00    -0.360 NA
ATOM     24  O   LIG    1       -2.525  -0.178   0.007  0.00  0.00    +0.110 OA
BRANCH  22  25
ATOM     25  C   LIG    1       -5.986   0.527   0.032  0.00  0.00    +0.010 C 
ATOM     26  C   LIG    1       -6.500   1.536   1.060  0.00  0.00    +0.050 C 
ATOM     27  C   LIG    1       -6.483  -0.873   0.399  0.00  0.00    +0.040 C 
ATOM     28  C   LIG    1       -6.505   0.904  -1.357  0.00  0.00    +0.050 C 
ENDBRANCH  22  25
ENDBRANCH  17  20
ENDBRANCH  15  16
ENDBRANCH   5  15
TORSDOF 6
