REMARK  Name = ZINCqH0000002Rg8.0
REMARK                            x       y       z     vdW  Elec       q    Type
REMARK                         _______ _______ _______ _____ _____    ______ ____
ROOT
ATOM      1  C   LIG    1       -5.314   9.752   0.188  0.00  0.00    +0.040 A 
ATOM      2  C   LIG    1       -4.856  11.030   0.174  0.00  0.00    -0.100 A 
ATOM      3  C   LIG    1       -3.468  11.277   0.131  0.00  0.00    +0.510 A 
ATOM      4  O   LIG    1       -2.574  10.276   0.103  0.00  0.00    -0.270 OA
ATOM      5  C   LIG    1       -2.963   8.983   0.115  0.00  0.00    +0.190 A 
ATOM      6  C   LIG    1       -2.027   7.961   0.086  0.00  0.00    -0.020 A 
ATOM      7  C   LIG    1       -2.449   6.641   0.099  0.00  0.00    +0.190 A 
ATOM      8  C   LIG    1       -3.807   6.332   0.136  0.00  0.00    -0.090 A 
ATOM      9  C   LIG    1       -4.742   7.326   0.169  0.00  0.00    +0.130 A 
ATOM     10  O   LIG    1       -3.070  12.428   0.119  0.00  0.00    -0.460 OA
ATOM     11  C   LIG    1       -4.334   8.665   0.158  0.00  0.00    -0.190 A 
ENDROOT
BRANCH   1  12
ATOM     12  C   LIG    1       -6.792   9.460   0.235  0.00  0.00    +0.090 C 
BRANCH  12  14
ATOM     13  C   LIG    1       -8.813   8.942  -1.140  0.00  0.00    +0.030 C 
ATOM     14  C   LIG    1       -7.313   9.238  -1.187  0.00  0.00    +0.020 C 
ENDBRANCH  12  14
ENDBRANCH   1  12
BRANCH   7  15
ATOM     15  O   LIG    1       -1.531   5.641   0.070  0.00  0.00    -0.300 OA
BRANCH  15  16
ATOM     16  C   LIG    1       -2.030   4.302   0.085  0.00  0.00    +0.320 C 
BRANCH  16  17
ATOM     17  C   LIG    1       -0.875   3.335   0.048  0.00  0.00    +0.080 A 
ATOM     18  C   LIG    1        0.398   3.734   0.008  0.00  0.00    -0.110 A 
ATOM     19  S   LIG    1        1.419   2.298  -0.024  0.00  0.00    +0.250 S 
ATOM     20  C   LIG    1        0.032   1.299   0.020  0.00  0.00    +0.240 A 
ATOM     21  N   LIG    1       -1.040   2.026   0.048  0.00  0.00    -0.510 NA
BRANCH  20  22
ATOM     22  N   LIG    1        0.052  -0.091   0.019  0.00  0.00    -0.520 N 
ATOM     23  C   LIG    1        1.228  -0.748  -0.017  0.00  0.00    +0.510 C 
ATOM     24  O   LIG    1        2.265  -0.130  -0.137  0.00  0.00    -0.510 OA
ATOM     25  C   LIG    1        1.256  -2.251   0.091  0.00  0.00    +0.140 C 
ATOM     26  C   LIG    1       -1.205  -0.842   0.058  0.00  0.00    +0.320 C 
ENDBRANCH  20  22
ENDBRANCH  16  17
ENDBRANCH  15  16
ENDBRANCH   7  15
TORSDOF 6
