REMARK  Name = ZINCrD00000sdJAR.0
REMARK                            x       y       z     vdW  Elec       q    Type
REMARK                         _______ _______ _______ _____ _____    ______ ____
ROOT
ATOM      1  C   LIG    1        0.997   6.601  -4.678  0.00  0.00    +0.000 A 
ATOM      2  C   LIG    1        0.994   6.152  -3.370  0.00  0.00    +0.010 A 
ATOM      3  C   LIG    1        2.132   5.578  -2.834  0.00  0.00    -0.090 A 
ATOM      4  C   LIG    1        3.274   5.458  -3.604  0.00  0.00    +0.050 A 
ATOM      5  C   LIG    1        3.275   5.902  -4.913  0.00  0.00    -0.090 A 
ATOM      6  C   LIG    1        2.137   6.475  -5.449  0.00  0.00    +0.030 A 
ENDROOT
BRANCH   5   7
ATOM      7  C   LIG    1        4.518   5.765  -5.755  0.00  0.00    +0.220 C 
BRANCH   7   8
ATOM      8  O   LIG    1        5.325   6.934  -5.604  0.00  0.00    -0.370 OA
BRANCH   8   9
ATOM      9  C   LIG    1        6.535   6.907  -6.364  0.00  0.00    +0.180 C 
BRANCH   9  10
ATOM     10  C   LIG    1        7.316   8.201  -6.127  0.00  0.00    +0.160 C 
ATOM     11  C   LIG    1        8.658   8.169  -6.901  0.00  0.00    +0.020 C 
ATOM     12  C   LIG    1        8.939   9.687  -7.067  0.00  0.00    +0.000 C 
ATOM     13  C   LIG    1        7.518  10.268  -7.227  0.00  0.00    +0.190 C 
ATOM     14  O   LIG    1        6.598   9.322  -6.668  0.00  0.00    -0.370 OA
ENDBRANCH   9  10
ENDBRANCH   8   9
ENDBRANCH   7   8
ENDBRANCH   5   7
BRANCH   3  15
ATOM     15  C   LIG    1        2.130   5.089  -1.409  0.00  0.00    +0.220 C 
BRANCH  15  16
ATOM     16  N   LIG    1        1.702   3.684  -1.373  0.00  0.00    -0.680 NA
ATOM     17  H   LIG    1        0.800   3.570  -1.811  0.00  0.00    +0.350 HD
BRANCH  16  18
ATOM     18  C   LIG    1        1.687   3.173   0.003  0.00  0.00    +0.290 C 
BRANCH  18  19
ATOM     19  C   LIG    1        1.244   1.732  -0.001  0.00  0.00    -0.020 A 
ATOM     20  C   LIG    1        2.043   0.640  -0.014  0.00  0.00    +0.160 A 
ATOM     21  N   LIG    1        1.216  -0.432  -0.012  0.00  0.00    -0.280 N 
ATOM     22  N   LIG    1        0.002  -0.004   0.002  0.00  0.00    -0.080 NA
ATOM     23  N   LIG    1       -0.015   1.282   0.009  0.00  0.00    -0.270 NA
BRANCH  21  24
ATOM     24  C   LIG    1        1.631  -1.836  -0.024  0.00  0.00    +0.260 C 
ATOM     25  C   LIG    1        2.965  -2.000   0.734  0.00  0.00    +0.020 C 
ATOM     26  C   LIG    1        3.732  -3.075  -0.075  0.00  0.00    +0.040 C 
ATOM     27  C   LIG    1        3.368  -2.725  -1.540  0.00  0.00    +0.020 C 
ATOM     28  C   LIG    1        1.887  -2.298  -1.470  0.00  0.00    +0.040 C 
ENDBRANCH  21  24
ENDBRANCH  18  19
ENDBRANCH  16  18
ENDBRANCH  15  16
ENDBRANCH   3  15
TORSDOF 9
