REMARK  Name = ZINCb700000010A5.0
REMARK                            x       y       z     vdW  Elec       q    Type
REMARK                         _______ _______ _______ _____ _____    ______ ____
ROOT
ATOM      1  N   LIG    1       -2.933   0.714   1.404  0.00  0.00    -0.510 N 
ATOM      2  H   LIG    1       -3.063   1.591   1.886  0.00  0.00    +0.430 HD
ATOM      3  H   LIG    1       -2.221   0.175   1.874  0.00  0.00    +0.430 HD
ENDROOT
BRANCH   1   4
ATOM      4  C   LIG    1       -4.196  -0.037   1.406  0.00  0.00    +0.290 C 
BRANCH   4   5
ATOM      5  C   LIG    1       -4.627  -0.306   2.849  0.00  0.00    +0.210 C 
BRANCH   5   6
ATOM      6  O   LIG    1       -4.924   0.933   3.496  0.00  0.00    -0.580 OA
ATOM      7  H   LIG    1       -5.205   0.839   4.417  0.00  0.00    +0.410 HD
ENDBRANCH   5   6
ENDBRANCH   4   5
ENDBRANCH   1   4
BRANCH   1   8
ATOM      8  C   LIG    1       -2.519   0.972   0.019  0.00  0.00    +0.330 C 
BRANCH   8   9
ATOM      9  C   LIG    1       -1.223   1.743   0.017  0.00  0.00    -0.230 A 
ATOM     10  C   LIG    1       -1.231   3.129   0.031  0.00  0.00    +0.110 A 
ATOM     11  C   LIG    1       -0.015   3.796   0.023  0.00  0.00    -0.020 A 
ATOM     12  C   LIG    1        1.155   3.062   0.007  0.00  0.00    +0.310 A 
ATOM     13  N   LIG    1        1.125   1.743   0.001  0.00  0.00    -0.480 NA
ATOM     14  C   LIG    1       -0.013   1.076   0.008  0.00  0.00    +0.290 A 
ENDBRANCH   8   9
ENDBRANCH   1   8
TORSDOF 5
