REMARK  Name = ZINCkj000018RE85.0
REMARK                            x       y       z     vdW  Elec       q    Type
REMARK                         _______ _______ _______ _____ _____    ______ ____
ROOT
ATOM      1  N   LIG    1       -0.570   2.042   1.205  0.00  0.00    -0.510 N 
ATOM      2  H   LIG    1        0.084   1.830   1.943  0.00  0.00    +0.430 HD
ATOM      3  H   LIG    1       -1.460   1.614   1.410  0.00  0.00    +0.440 HD
ENDROOT
BRANCH   1   4
ATOM      4  C   LIG    1       -0.057   1.518  -0.069  0.00  0.00    +0.300 C 
BRANCH   4   5
ATOM      5  C   LIG    1        0.014  -0.008  -0.000  0.00  0.00    +0.100 C 
ATOM      6  C   LIG    1        1.082  -0.518   0.971  0.00  0.00    -0.310 C 
ATOM      7  S   LIG    1        1.341  -1.972  -0.084  0.00  0.00    +2.440 S 
ATOM      8  O   LIG    1        2.716  -2.286  -0.260  0.00  0.00    -0.900 OA
ATOM      9  O   LIG    1        0.350  -2.972   0.105  0.00  0.00    -0.880 OA
ATOM     10  C   LIG    1        0.785  -0.628  -1.168  0.00  0.00    -0.320 C 
BRANCH   5  12
ATOM     11  C   LIG    1       -2.211  -0.336  -0.830  0.00  0.00    +0.250 C 
ATOM     12  O   LIG    1       -1.267  -0.607   0.208  0.00  0.00    -0.350 OA
ENDBRANCH   5  12
ENDBRANCH   4   5
ENDBRANCH   1   4
BRANCH   1  13
ATOM     13  C   LIG    1       -0.738   3.498   1.103  0.00  0.00    +0.400 C 
BRANCH  13  14
ATOM     14  C   LIG    1       -1.264   4.035   2.409  0.00  0.00    -0.070 A 
ATOM     15  C   LIG    1       -0.501   4.448   3.431  0.00  0.00    +0.050 A 
ATOM     16  C   LIG    1       -1.428   4.886   4.482  0.00  0.00    -0.150 A 
ATOM     17  C   LIG    1       -1.270   5.411   5.763  0.00  0.00    +0.080 A 
ATOM     18  C   LIG    1       -2.384   5.721   6.513  0.00  0.00    +0.010 A 
ATOM     19  C   LIG    1       -3.655   5.512   5.998  0.00  0.00    +0.080 A 
ATOM     20  C   LIG    1       -3.824   4.993   4.732  0.00  0.00    +0.030 A 
ATOM     21  C   LIG    1       -2.715   4.674   3.959  0.00  0.00    +0.080 A 
ATOM     22  O   LIG    1       -2.565   4.165   2.720  0.00  0.00    -0.190 OA
ENDBRANCH  13  14
ENDBRANCH   1  13
TORSDOF 5
