REMARK  Name = ZINCrH000004sa9s.0
REMARK                            x       y       z     vdW  Elec       q    Type
REMARK                         _______ _______ _______ _____ _____    ______ ____
ROOT
ATOM      1  N   LIG    1        2.974   4.396  -2.113  0.00  0.00    -0.650 N 
ATOM      2  H   LIG    1        2.106   3.977  -2.222  0.00  0.00    +0.420 HD
ATOM      3  C   LIG    1        3.109   5.724  -2.296  0.00  0.00    +0.710 C 
ATOM      4  N   LIG    1        2.037   6.471  -2.630  0.00  0.00    -0.720 N 
ATOM      5  H   LIG    1        1.169   6.052  -2.739  0.00  0.00    +0.400 HD
ATOM      6  O   LIG    1        4.197   6.249  -2.159  0.00  0.00    -0.560 OA
ENDROOT
BRANCH   1  11
ATOM      7  N   LIG    1        4.092   2.278  -1.554  0.00  0.00    -0.340 N 
ATOM      8  N   LIG    1        5.402   1.907  -1.226  0.00  0.00    -0.280 NA
ATOM      9  C   LIG    1        6.153   2.978  -1.249  0.00  0.00    +0.280 A 
ATOM     10  C   LIG    1        5.352   4.075  -1.583  0.00  0.00    -0.100 A 
ATOM     11  C   LIG    1        4.082   3.623  -1.768  0.00  0.00    +0.350 A 
BRANCH   7  17
ATOM     12  C   LIG    1        2.256  -2.230  -2.292  0.00  0.00    +0.120 C 
ATOM     13  C   LIG    1        2.086  -0.762  -1.996  0.00  0.00    -0.020 A 
ATOM     14  C   LIG    1        0.825  -0.219  -1.801  0.00  0.00    -0.050 A 
ATOM     15  C   LIG    1        0.704   1.131  -1.531  0.00  0.00    +0.310 A 
ATOM     16  N   LIG    1        1.771   1.903  -1.459  0.00  0.00    -0.530 NA
ATOM     17  C   LIG    1        2.990   1.422  -1.640  0.00  0.00    +0.370 A 
ATOM     18  C   LIG    1        3.186   0.075  -1.914  0.00  0.00    -0.010 A 
ENDBRANCH   7  17
ENDBRANCH   1  11
BRANCH   4  19
ATOM     19  C   LIG    1        2.184   7.915  -2.828  0.00  0.00    +0.330 C 
BRANCH  19  20
ATOM     20  C   LIG    1        0.861   8.592  -2.582  0.00  0.00    +0.120 A 
ATOM     21  N   LIG    1       -0.230   8.119  -3.152  0.00  0.00    -0.470 NA
ATOM     22  C   LIG    1       -1.410   8.676  -2.961  0.00  0.00    +0.250 A 
ATOM     23  C   LIG    1       -1.543   9.793  -2.159  0.00  0.00    -0.020 A 
ATOM     24  C   LIG    1       -0.417  10.324  -1.547  0.00  0.00    +0.070 A 
ATOM     25  C   LIG    1        0.805   9.707  -1.767  0.00  0.00    -0.120 A 
ATOM     26  C   LIG    1        2.058  10.246  -1.125  0.00  0.00    +0.110 C 
ENDBRANCH  19  20
BRANCH  19  27
ATOM     27  C   LIG    1        2.639   8.189  -4.263  0.00  0.00    -0.020 C 
ATOM     28  C   LIG    1        3.982   7.501  -4.513  0.00  0.00    +0.030 C 
ATOM     29  C   LIG    1        2.792   9.697  -4.470  0.00  0.00    +0.020 C 
ENDBRANCH  19  27
ENDBRANCH   4  19
TORSDOF 5
