REMARK  Name = ZINCpe00000y7ofy.0
REMARK                            x       y       z     vdW  Elec       q    Type
REMARK                         _______ _______ _______ _____ _____    ______ ____
ROOT
ATOM      1  C   LIG    1       -7.140   1.431  -1.226  0.00  0.00    +0.520 C 
ATOM      2  N   LIG    1       -5.961   2.079  -1.317  0.00  0.00    -0.620 N 
ATOM      3  C   LIG    1       -4.706   1.329  -1.467  0.00  0.00    +0.270 C 
ATOM      4  C   LIG    1       -3.749   1.747  -0.350  0.00  0.00    +0.260 C 
ATOM      5  N   LIG    1       -3.695   3.215  -0.294  0.00  0.00    -0.600 N 
ATOM      6  C   LIG    1       -4.950   3.964  -0.143  0.00  0.00    +0.210 C 
ATOM      7  C   LIG    1       -4.668   5.465  -0.241  0.00  0.00    +0.060 C 
ATOM      8  C   LIG    1       -2.517   3.862  -0.385  0.00  0.00    +0.560 C 
ATOM      9  O   LIG    1       -2.484   5.075  -0.326  0.00  0.00    -0.510 OA
ATOM     10  C   LIG    1       -5.908   3.547  -1.266  0.00  0.00    +0.280 C 
ATOM     11  O   LIG    1       -8.169   2.061  -1.102  0.00  0.00    -0.520 OA
ENDROOT
BRANCH   8  12
ATOM     12  C   LIG    1       -1.261   3.094  -0.555  0.00  0.00    -0.040 A 
ATOM     13  C   LIG    1       -1.118   1.818   0.001  0.00  0.00    -0.080 A 
ATOM     14  C   LIG    1        0.069   1.136  -0.176  0.00  0.00    +0.310 A 
ATOM     15  N   LIG    1        1.059   1.665  -0.867  0.00  0.00    -0.530 NA
ATOM     16  C   LIG    1        0.968   2.866  -1.415  0.00  0.00    +0.410 A 
ATOM     17  C   LIG    1       -0.192   3.622  -1.280  0.00  0.00    -0.040 A 
BRANCH  16  18
ATOM     18  N   LIG    1        2.042   3.377  -2.135  0.00  0.00    -0.850 N 
ATOM     19  H   LIG    1        1.980   4.257  -2.539  0.00  0.00    +0.410 HD
ATOM     20  H   LIG    1        2.853   2.854  -2.232  0.00  0.00    +0.410 HD
ENDBRANCH  16  18
ENDBRANCH   8  12
BRANCH   1  21
ATOM     21  C   LIG    1       -7.179  -0.074  -1.279  0.00  0.00    +0.080 C 
BRANCH  21  26
ATOM     22  C   LIG    1      -10.741  -3.607  -2.158  0.00  0.00    +0.170 C 
ATOM     23  C   LIG    1       -9.984  -2.309  -2.039  0.00  0.00    +0.080 C 
ATOM     24  N   LIG    1      -10.306  -1.205  -2.592  0.00  0.00    -0.290 NA
ATOM     25  O   LIG    1       -9.402  -0.156  -2.307  0.00  0.00    -0.180 OA
ATOM     26  C   LIG    1       -8.627  -0.551  -1.156  0.00  0.00    +0.150 C 
ATOM     27  C   LIG    1       -8.712  -2.095  -1.241  0.00  0.00    +0.060 C 
ENDBRANCH  21  26
ENDBRANCH   1  21
TORSDOF 4
