REMARK  Name = ZINCyk0000000cTt.0
REMARK                            x       y       z     vdW  Elec       q    Type
REMARK                         _______ _______ _______ _____ _____    ______ ____
ROOT
ATOM      1  C   LIG    1        0.944  -4.352   4.268  0.00  0.00    +0.630 C 
ATOM      2  N   LIG    1        0.616  -4.771   3.029  0.00  0.00    -0.610 N 
ATOM      3  C   LIG    1       -0.035  -6.047   2.700  0.00  0.00    +0.270 C 
ATOM      4  C   LIG    1       -0.234  -6.080   1.170  0.00  0.00    +0.040 C 
ATOM      5  C   LIG    1       -0.197  -4.577   0.784  0.00  0.00    -0.030 C 
ATOM      6  C   LIG    1        0.853  -4.025   1.780  0.00  0.00    +0.270 C 
ATOM      7  O   LIG    1        1.483  -3.273   4.422  0.00  0.00    -0.540 OA
ENDROOT
BRANCH   1  10
ATOM      8  C   LIG    1        1.589  -3.641   7.243  0.00  0.00    +0.190 C 
ATOM      9  C   LIG    1        0.929  -4.897   6.738  0.00  0.00    +0.140 A 
ATOM     10  C   LIG    1        0.649  -5.203   5.436  0.00  0.00    -0.110 A 
ATOM     11  N   LIG    1        0.055  -6.408   5.400  0.00  0.00    -0.190 NA
ATOM     12  N   LIG    1       -0.046  -6.876   6.596  0.00  0.00    -0.050 NA
ATOM     13  N   LIG    1        0.499  -5.938   7.484  0.00  0.00    -0.310 N 
BRANCH  13  14
ATOM     14  C   LIG    1        0.582  -6.057   8.879  0.00  0.00    +0.130 A 
ATOM     15  C   LIG    1        0.936  -7.270   9.453  0.00  0.00    +0.050 A 
ATOM     16  C   LIG    1        1.023  -7.384  10.827  0.00  0.00    +0.060 A 
ATOM     17  C   LIG    1        0.746  -6.294  11.632  0.00  0.00    +0.060 A 
ATOM     18  C   LIG    1        0.387  -5.084  11.062  0.00  0.00    -0.020 A 
ATOM     19 CL   LIG    1        0.039  -3.718  12.076  0.00  0.00    -0.040 Cl
ATOM     20  C   LIG    1        0.304  -4.963   9.688  0.00  0.00    +0.030 A 
ENDBRANCH  13  14
ENDBRANCH   1  10
BRANCH   5  21
ATOM     21  C   LIG    1        0.269  -4.395  -0.662  0.00  0.00    +0.320 C 
BRANCH  21  22
ATOM     22  N   LIG    1        0.177  -2.979  -1.030  0.00  0.00    -0.610 N 
ATOM     23  C   LIG    1        1.228  -2.161  -0.825  0.00  0.00    +0.530 C 
ATOM     24  O   LIG    1        2.288  -2.616  -0.449  0.00  0.00    -0.510 OA
ATOM     25  C   LIG    1       -1.057  -2.454  -1.619  0.00  0.00    +0.290 C 
BRANCH  23  26
ATOM     26  C   LIG    1        1.087  -0.679  -1.063  0.00  0.00    -0.020 C 
ATOM     27  C   LIG    1        0.126  -0.087  -0.032  0.00  0.00    +0.340 C 
ATOM     28  N   LIG    1        0.008   1.365  -0.206  0.00  0.00    -0.610 NA
ATOM     29  C   LIG    1        1.039   2.039  -0.640  0.00  0.00    +0.620 C 
ATOM     30  N   LIG    1        1.181   3.366  -0.843  0.00  0.00    -0.520 NA
ATOM     31  C   LIG    1        2.392   3.627  -1.259  0.00  0.00    +0.690 C 
ATOM     32  N   LIG    1        3.105   2.468  -1.352  0.00  0.00    -0.450 N 
ATOM     33  H   LIG    1        4.032   2.378  -1.624  0.00  0.00    +0.480 HD
ATOM     34  N   LIG    1        2.244   1.439  -0.981  0.00  0.00    -0.400 NA
ATOM     35  H   LIG    1       -0.826   1.817  -0.005  0.00  0.00    +0.460 HD
ATOM     36  C   LIG    1        2.463  -0.007  -0.931  0.00  0.00    +0.400 C 
ENDBRANCH  23  26
ENDBRANCH  21  22
ENDBRANCH   5  21
TORSDOF 5
