REMARK  Name = ZINCkj00000y7FKq.1
REMARK                            x       y       z     vdW  Elec       q    Type
REMARK                         _______ _______ _______ _____ _____    ______ ____
ROOT
ATOM      1  C   LIG    1        1.242   2.093   0.001  0.00  0.00    +0.320 C 
ENDROOT
BRANCH   1   2
ATOM      2  C   LIG    1        0.943   3.594   0.012  0.00  0.00    +0.170 C 
ATOM      3  C   LIG    1        2.253   4.374   0.128  0.00  0.00    +0.070 C 
ATOM      4  C   LIG    1        1.948   5.875   0.139  0.00  0.00    +0.050 C 
ATOM      5  C   LIG    1        0.986   6.182   1.290  0.00  0.00    +0.060 C 
ATOM      6  C   LIG    1       -0.278   5.335   1.131  0.00  0.00    +0.250 C 
ATOM      7  N   LIG    1        0.078   3.911   1.155  0.00  0.00    -0.380 N 
ATOM      8  H   LIG    1       -0.762   3.354   1.105  0.00  0.00    +0.420 HD
BRANCH   7   9
ATOM      9  C   LIG    1        0.788   3.606   2.404  0.00  0.00    +0.270 C 
BRANCH   9  10
ATOM     10  C   LIG    1       -0.153   3.818   3.591  0.00  0.00    +0.220 C 
BRANCH  10  11
ATOM     11  O   LIG    1       -1.223   2.873   3.525  0.00  0.00    -0.580 OA
ATOM     12  H   LIG    1       -1.860   2.949   4.248  0.00  0.00    +0.410 HD
ENDBRANCH  10  11
ENDBRANCH   9  10
ENDBRANCH   7   9
ENDBRANCH   1   2
BRANCH   1  15
ATOM     13  O   LIG    1        1.062  -0.597  -0.011  0.00  0.00    -0.500 OA
ATOM     14  C   LIG    1        0.002  -0.004   0.002  0.00  0.00    +0.580 C 
ATOM     15  N   LIG    1       -0.016   1.344   0.009  0.00  0.00    -0.750 N 
ATOM     16  H   LIG    1       -0.863   1.817   0.016  0.00  0.00    +0.400 HD
BRANCH  14  17
ATOM     17  C   LIG    1       -1.271  -0.762   0.010  0.00  0.00    -0.080 A 
ATOM     18  C   LIG    1       -1.274  -2.160   0.003  0.00  0.00    +0.050 A 
ATOM     19  C   LIG    1       -2.483  -2.828   0.011  0.00  0.00    +0.310 A 
ATOM     20  N   LIG    1       -3.623  -2.165   0.025  0.00  0.00    -0.450 NA
ATOM     21  C   LIG    1       -3.665  -0.847   0.032  0.00  0.00    +0.170 A 
ATOM     22 CL   LIG    1       -5.202  -0.039   0.051  0.00  0.00    -0.010 Cl
ATOM     23  C   LIG    1       -2.501  -0.100   0.031  0.00  0.00    +0.010 A 
ENDBRANCH  14  17
ENDBRANCH   1  15
TORSDOF 6
