REMARK  Name = ZINCkj00000y7FKq.0
REMARK                            x       y       z     vdW  Elec       q    Type
REMARK                         _______ _______ _______ _____ _____    ______ ____
ROOT
ATOM      1  C   LIG    1       -0.808   2.985  -3.669  0.00  0.00    +0.310 C 
ENDROOT
BRANCH   1   2
ATOM      2  C   LIG    1       -1.479   3.545  -2.413  0.00  0.00    +0.180 C 
ATOM      3  C   LIG    1       -1.336   5.068  -2.397  0.00  0.00    +0.060 C 
ATOM      4  C   LIG    1       -2.011   5.623  -1.139  0.00  0.00    +0.040 C 
ATOM      5  C   LIG    1       -1.386   4.968   0.096  0.00  0.00    +0.040 C 
ATOM      6  C   LIG    1       -1.526   3.448  -0.014  0.00  0.00    +0.270 C 
ATOM      7  N   LIG    1       -0.838   2.976  -1.222  0.00  0.00    -0.380 N 
ATOM      8  H   LIG    1        0.129   3.264  -1.192  0.00  0.00    +0.410 HD
BRANCH   7   9
ATOM      9  C   LIG    1       -0.908   1.510  -1.282  0.00  0.00    +0.260 C 
BRANCH   9  10
ATOM     10  C   LIG    1       -0.079   0.912  -0.143  0.00  0.00    +0.220 C 
BRANCH  10  11
ATOM     11  O   LIG    1       -0.729   1.169   1.104  0.00  0.00    -0.570 OA
ATOM     12  H   LIG    1       -0.258   0.817   1.872  0.00  0.00    +0.410 HD
ENDBRANCH  10  11
ENDBRANCH   9  10
ENDBRANCH   7   9
ENDBRANCH   1   2
BRANCH   1  15
ATOM     13  O   LIG    1        0.984   2.075  -5.468  0.00  0.00    -0.490 OA
ATOM     14  C   LIG    1        1.449   2.723  -4.550  0.00  0.00    +0.570 C 
ATOM     15  N   LIG    1        0.636   3.222  -3.598  0.00  0.00    -0.750 N 
ATOM     16  H   LIG    1        1.007   3.739  -2.866  0.00  0.00    +0.400 HD
BRANCH  14  17
ATOM     17  C   LIG    1        2.909   2.963  -4.479  0.00  0.00    -0.090 A 
ATOM     18  C   LIG    1        3.769   2.454  -5.456  0.00  0.00    +0.050 A 
ATOM     19  C   LIG    1        5.124   2.701  -5.351  0.00  0.00    +0.310 A 
ATOM     20  N   LIG    1        5.608   3.405  -4.347  0.00  0.00    -0.450 NA
ATOM     21  C   LIG    1        4.832   3.904  -3.404  0.00  0.00    +0.180 A 
ATOM     22 CL   LIG    1        5.538   4.823  -2.111  0.00  0.00    -0.010 Cl
ATOM     23  C   LIG    1        3.463   3.710  -3.435  0.00  0.00    +0.010 A 
ENDBRANCH  14  17
ENDBRANCH   1  15
TORSDOF 6
