REMARK  Name = ZINCrD00000755aU.0
REMARK                            x       y       z     vdW  Elec       q    Type
REMARK                         _______ _______ _______ _____ _____    ______ ____
ROOT
ATOM      1  C   LIG    1        5.874   4.382   0.926  0.00  0.00    +0.180 C 
ATOM      2  C   LIG    1        4.456   4.412   0.417  0.00  0.00    +0.140 A 
ATOM      3  N   LIG    1        3.544   3.506   0.637  0.00  0.00    -0.260 NA
ATOM      4  N   LIG    1        2.359   3.889  -0.001  0.00  0.00    -0.300 N 
ATOM      5  C   LIG    1        2.571   5.061  -0.628  0.00  0.00    +0.170 A 
ATOM      6 CL   LIG    1        1.412   5.950  -1.566  0.00  0.00    +0.030 Cl
ATOM      7  C   LIG    1        3.883   5.427  -0.383  0.00  0.00    -0.230 A 
ENDROOT
BRANCH   4   8
ATOM      8  C   LIG    1        1.155   3.170   0.008  0.00  0.00    +0.120 A 
ATOM      9  C   LIG    1        1.174   1.782   0.000  0.00  0.00    +0.080 A 
ATOM     10  C   LIG    1       -0.013   1.076   0.008  0.00  0.00    +0.020 A 
ATOM     11  C   LIG    1       -1.221   1.751   0.017  0.00  0.00    +0.110 A 
ATOM     12  C   LIG    1       -1.243   3.136   0.030  0.00  0.00    +0.020 A 
ATOM     13  F   LIG    1       -2.381   1.059   0.019  0.00  0.00    -0.130 F 
ATOM     14  C   LIG    1       -0.058   3.846   0.022  0.00  0.00    +0.050 A 
ENDBRANCH   4   8
BRANCH   7  15
ATOM     15  C   LIG    1        4.556   6.642  -0.870  0.00  0.00    +0.550 C 
ATOM     16  O   LIG    1        5.135   6.630  -1.938  0.00  0.00    -0.480 OA
BRANCH  15  17
ATOM     17  O   LIG    1        4.531   7.768  -0.130  0.00  0.00    -0.320 OA
BRANCH  17  18
ATOM     18  C   LIG    1        5.216   8.928  -0.671  0.00  0.00    +0.260 C 
BRANCH  18  19
ATOM     19  C   LIG    1        5.082  10.084   0.287  0.00  0.00    +0.520 C 
ATOM     20  N   LIG    1        5.642  11.273  -0.009  0.00  0.00    -0.610 N 
ATOM     21  C   LIG    1        6.393  11.457  -1.259  0.00  0.00    +0.270 C 
ATOM     22  C   LIG    1        5.814  12.669  -2.003  0.00  0.00    +0.020 C 
ATOM     23  C   LIG    1        5.831  13.886  -1.076  0.00  0.00    -0.020 C 
ATOM     24  C   LIG    1        4.955  13.609   0.148  0.00  0.00    +0.020 C 
ATOM     25  C   LIG    1        5.289  15.105  -1.825  0.00  0.00    +0.020 C 
ATOM     26  C   LIG    1        5.520  12.409   0.915  0.00  0.00    +0.280 C 
ATOM     27  O   LIG    1        4.469   9.944   1.324  0.00  0.00    -0.510 OA
ENDBRANCH  18  19
ENDBRANCH  17  18
ENDBRANCH  15  17
ENDBRANCH   7  15
TORSDOF 5
