REMARK  Name = ZINCvU0000000Ced.0
REMARK                            x       y       z     vdW  Elec       q    Type
REMARK                         _______ _______ _______ _____ _____    ______ ____
ROOT
ATOM      1  N   LIG    1        2.069   0.679   0.505  0.00  0.00    -0.380 N 
ATOM      2  N   LIG    1        1.202  -0.412   0.634  0.00  0.00    -0.230 NA
ATOM      3  C   LIG    1       -0.033  -0.007   0.545  0.00  0.00    +0.300 A 
ATOM      4  C   LIG    1       -0.035   1.390   0.350  0.00  0.00    -0.180 A 
ATOM      5  C   LIG    1       -1.058   2.354   0.194  0.00  0.00    -0.010 A 
ATOM      6  C   LIG    1       -0.681   3.681   0.015  0.00  0.00    -0.020 A 
ATOM      7  C   LIG    1        0.677   4.010   0.005  0.00  0.00    +0.240 A 
ATOM      8  N   LIG    1        1.612   3.087   0.158  0.00  0.00    -0.480 NA
ATOM      9  C   LIG    1        1.311   1.808   0.328  0.00  0.00    +0.320 A 
ENDROOT
BRANCH   7  10
ATOM     10  C   LIG    1        1.079   5.426  -0.181  0.00  0.00    -0.060 A 
ATOM     11  C   LIG    1        0.109   6.412  -0.349  0.00  0.00    +0.040 A 
ATOM     12  C   LIG    1        0.488   7.728  -0.517  0.00  0.00    +0.010 A 
ATOM     13  C   LIG    1        1.829   8.068  -0.529  0.00  0.00    +0.030 A 
ATOM     14  C   LIG    1        2.797   7.092  -0.367  0.00  0.00    +0.000 A 
ATOM     15  C   LIG    1        2.429   5.774  -0.194  0.00  0.00    +0.070 A 
ENDBRANCH   7  10
BRANCH   5  16
ATOM     16  C   LIG    1       -2.484   1.963   0.218  0.00  0.00    +0.560 C 
ATOM     17  N   LIG    1       -3.442   2.899   0.067  0.00  0.00    -0.660 N 
ATOM     18  H   LIG    1       -3.200   3.837   0.020  0.00  0.00    +0.410 HD
ATOM     19  O   LIG    1       -2.792   0.798   0.374  0.00  0.00    -0.500 OA
BRANCH  17  20
ATOM     20  C   LIG    1       -4.782   2.518  -0.021  0.00  0.00    +0.160 A 
ATOM     21  C   LIG    1       -5.124   1.319  -0.635  0.00  0.00    +0.020 A 
ATOM     22  C   LIG    1       -6.446   0.938  -0.718  0.00  0.00    +0.060 A 
ATOM     23  C   LIG    1       -7.442   1.763  -0.197  0.00  0.00    -0.040 A 
ATOM     24  C   LIG    1       -7.098   2.968   0.414  0.00  0.00    +0.060 A 
ATOM     25  C   LIG    1       -5.774   3.342   0.500  0.00  0.00    -0.010 A 
BRANCH  23  26
ATOM     26  C   LIG    1       -8.866   1.359  -0.290  0.00  0.00    +0.060 A 
ATOM     27  N   LIG    1       -9.904   2.022   0.156  0.00  0.00    -0.360 NA
ATOM     28  O   LIG    1      -10.936   1.434  -0.073  0.00  0.00    +0.100 OA
ATOM     29  C   LIG    1      -10.718   0.273  -0.708  0.00  0.00    +0.170 A 
ATOM     30  C   LIG    1       -9.380   0.169  -0.878  0.00  0.00    -0.060 A 
ENDBRANCH  23  26
ENDBRANCH  17  20
ENDBRANCH   5  16
BRANCH   1  32
ATOM     31  C   LIG    1        4.080   0.407  -0.860  0.00  0.00    +0.030 C 
ATOM     32  C   LIG    1        3.532   0.625   0.552  0.00  0.00    +0.340 C 
ENDBRANCH   1  32
TORSDOF 5
