REMARK  Name = ZINCpk00000y6w1y.0
REMARK                            x       y       z     vdW  Elec       q    Type
REMARK                         _______ _______ _______ _____ _____    ______ ____
ROOT
ATOM      1  C   LIG    1        0.002  -0.004   0.002  0.00  0.00    +0.620 C 
ATOM      2  N   LIG    1       -0.016   1.344   0.009  0.00  0.00    -0.610 N 
ATOM      3  C   LIG    1       -1.226   2.186   0.019  0.00  0.00    +0.280 C 
ATOM      4  C   LIG    1       -0.764   3.531   0.639  0.00  0.00    +0.080 C 
ATOM      5  C   LIG    1        0.661   3.674   0.042  0.00  0.00    +0.110 C 
ATOM      6  C   LIG    1        1.167   2.217   0.003  0.00  0.00    +0.270 C 
ATOM      7  O   LIG    1        1.063  -0.598  -0.011  0.00  0.00    -0.530 OA
ENDROOT
BRANCH   1  10
ATOM      8  N   LIG    1       -3.355  -1.194   0.027  0.00  0.00    -0.270 N 
ATOM      9  N   LIG    1       -2.483  -0.251   0.024  0.00  0.00    -0.250 NA
ATOM     10  C   LIG    1       -1.267  -0.760   0.010  0.00  0.00    -0.010 A 
ATOM     11  C   LIG    1       -1.409  -2.168  -0.002  0.00  0.00    -0.020 A 
ATOM     12  C   LIG    1       -2.743  -2.397   0.014  0.00  0.00    +0.010 A 
ATOM     13  C   LIG    1       -3.418  -3.745   0.014  0.00  0.00    +0.150 C 
BRANCH   8  14
ATOM     14  C   LIG    1       -4.806  -0.993   0.041  0.00  0.00    +0.260 C 
BRANCH  14  16
ATOM     15  C   LIG    1       -6.726  -0.114   1.377  0.00  0.00    +0.030 C 
ATOM     16  C   LIG    1       -5.201  -0.216   1.298  0.00  0.00    +0.020 C 
ENDBRANCH  14  16
BRANCH  14  17
ATOM     17  C   LIG    1       -5.224  -0.201  -1.200  0.00  0.00    +0.040 C 
ATOM     18  C   LIG    1       -4.943  -1.032  -2.454  0.00  0.00    +0.010 C 
ENDBRANCH  14  17
ENDBRANCH   8  14
ENDBRANCH   1  10
BRANCH   5  19
ATOM     19  O   LIG    1        0.604   4.225  -1.276  0.00  0.00    -0.540 OA
ATOM     20  H   LIG    1        1.460   4.263  -1.723  0.00  0.00    +0.380 HD
ENDBRANCH   5  19
BRANCH   5  21
ATOM     21  C   LIG    1        1.545   4.530   0.950  0.00  0.00    +0.330 C 
BRANCH  21  22
ATOM     22  N   LIG    1        2.913   4.548   0.425  0.00  0.00    -0.300 N 
ATOM     23  C   LIG    1        3.631   5.654   0.120  0.00  0.00    +0.140 A 
ATOM     24  C   LIG    1        4.830   5.213  -0.327  0.00  0.00    +0.140 A 
ATOM     25  N   LIG    1        4.785   3.877  -0.282  0.00  0.00    -0.260 NA
ATOM     26  N   LIG    1        3.635   3.514   0.168  0.00  0.00    -0.080 NA
ENDBRANCH  21  22
ENDBRANCH   5  21
TORSDOF 7
