REMARK  Name = ZINCpk00000ebKkT.0
REMARK                            x       y       z     vdW  Elec       q    Type
REMARK                         _______ _______ _______ _____ _____    ______ ____
ROOT
ATOM      1  C   LIG    1       -0.091   0.002   0.111  0.00  0.00    +0.320 C 
ENDROOT
BRANCH   1   2
ATOM      2  C   LIG    1       -0.492   1.455   0.108  0.00  0.00    -0.110 A 
ATOM      3  C   LIG    1       -1.829   1.803   0.066  0.00  0.00    +0.040 A 
ATOM      4  C   LIG    1       -2.196   3.136   0.068  0.00  0.00    +0.010 A 
ATOM      5  C   LIG    1       -1.227   4.120   0.102  0.00  0.00    +0.010 A 
ATOM      6  C   LIG    1        0.111   3.772   0.138  0.00  0.00    +0.010 A 
ATOM      7  C   LIG    1        0.478   2.440   0.141  0.00  0.00    -0.090 A 
BRANCH   7   8
ATOM      8  C   LIG    1        1.936   2.060   0.181  0.00  0.00    +0.350 C 
BRANCH   8   9
ATOM      9  N   LIG    1        2.750   3.266   0.359  0.00  0.00    -0.620 N 
ATOM     10  C   LIG    1        3.349   4.030  -0.741  0.00  0.00    +0.260 C 
ATOM     11  C   LIG    1        3.715   5.404  -0.134  0.00  0.00    +0.040 C 
ATOM     12  C   LIG    1        3.895   5.049   1.360  0.00  0.00    +0.050 C 
ATOM     13  C   LIG    1        3.048   3.810   1.551  0.00  0.00    +0.520 C 
ATOM     14  O   LIG    1        2.691   3.372   2.624  0.00  0.00    -0.520 OA
ENDBRANCH   8   9
ENDBRANCH   7   8
ENDBRANCH   1   2
BRANCH   1  16
ATOM     15  C   LIG    1        0.699  -1.657   1.711  0.00  0.00    +0.510 C 
ATOM     16  N   LIG    1        0.300  -0.393   1.466  0.00  0.00    -0.730 N 
ATOM     17  H   LIG    1        0.272   0.254   2.188  0.00  0.00    +0.410 HD
ATOM     18  O   LIG    1        0.734  -2.467   0.809  0.00  0.00    -0.520 OA
BRANCH  15  25
ATOM     19  O   LIG    1       -1.385  -0.190   4.806  0.00  0.00    -0.540 OA
ATOM     20  C   LIG    1       -0.857  -0.922   3.996  0.00  0.00    +0.520 C 
ATOM     21  C   LIG    1       -1.683  -1.540   2.886  0.00  0.00    +0.030 C 
ATOM     22  C   LIG    1       -1.837  -3.036   3.171  0.00  0.00    +0.030 C 
ATOM     23  C   LIG    1       -0.642  -3.809   2.643  0.00  0.00    +0.020 C 
ATOM     24  C   LIG    1        0.655  -3.504   3.368  0.00  0.00    +0.050 C 
ATOM     25  C   LIG    1        1.101  -2.064   3.105  0.00  0.00    +0.250 C 
ATOM     26  N   LIG    1        0.448  -1.182   4.085  0.00  0.00    -0.720 N 
ATOM     27  H   LIG    1        0.970  -0.786   4.801  0.00  0.00    +0.410 HD
ENDBRANCH  15  25
ENDBRANCH   1  16
TORSDOF 5
