REMARK  Name = ZINCqH0000005M9F.0
REMARK                            x       y       z     vdW  Elec       q    Type
REMARK                         _______ _______ _______ _____ _____    ______ ____
ROOT
ATOM      1  C   LIG    1       -2.489  -2.834   0.019  0.00  0.00    +0.100 C 
ATOM      2  C   LIG    1       -2.284  -4.286  -0.413  0.00  0.00    +0.270 C 
ATOM      3  N   LIG    1       -1.183  -4.858   0.378  0.00  0.00    -0.440 N 
ATOM      4  C   LIG    1        0.097  -4.281  -0.041  0.00  0.00    +0.270 C 
ATOM      5  C   LIG    1        0.031  -2.776  -0.018  0.00  0.00    -0.110 A 
ATOM      6  C   LIG    1        1.222  -2.064  -0.023  0.00  0.00    +0.060 A 
ATOM      7  C   LIG    1        1.211  -0.684  -0.013  0.00  0.00    -0.070 A 
ATOM      8  C   LIG    1        0.002  -0.004   0.002  0.00  0.00    +0.130 A 
ATOM      9  C   LIG    1       -1.187  -0.716   0.015  0.00  0.00    +0.000 A 
ATOM     10  C   LIG    1       -1.172  -2.102   0.001  0.00  0.00    -0.040 A 
ENDROOT
BRANCH   3  11
ATOM     11  C   LIG    1       -1.163  -6.234   0.276  0.00  0.00    +0.290 A 
ATOM     12  N   LIG    1       -1.998  -6.933  -0.414  0.00  0.00    -0.500 NA
ATOM     13  C   LIG    1       -1.845  -8.273  -0.420  0.00  0.00    +0.090 A 
ATOM     14  C   LIG    1       -2.616  -9.246  -1.090  0.00  0.00    +0.110 A 
ATOM     15  C   LIG    1       -2.311 -10.579  -0.971  0.00  0.00    +0.020 A 
ATOM     16  C   LIG    1       -1.240 -10.991  -0.189  0.00  0.00    +0.110 A 
ATOM     17  C   LIG    1       -0.474 -10.057   0.475  0.00  0.00    +0.040 A 
ATOM     18  F   LIG    1       -0.950 -12.306  -0.079  0.00  0.00    -0.130 F 
ATOM     19  C   LIG    1       -0.770  -8.701   0.364  0.00  0.00    -0.160 A 
ATOM     20  S   LIG    1       -0.000  -7.284   1.074  0.00  0.00    +0.100 S 
ENDBRANCH   3  11
BRANCH   1  21
ATOM     21  C   LIG    1       -3.448  -2.161  -0.929  0.00  0.00    +0.470 C 
ATOM     22  O   LIG    1       -3.912  -2.777  -1.858  0.00  0.00    -0.490 OA
BRANCH  21  24
ATOM     23  C   LIG    1       -4.716  -0.292  -1.691  0.00  0.00    +0.270 C 
ATOM     24  O   LIG    1       -3.788  -0.876  -0.740  0.00  0.00    -0.350 OA
ENDBRANCH  21  24
ENDBRANCH   1  21
BRANCH   8  25
ATOM     25  O   LIG    1       -0.016   1.355   0.009  0.00  0.00    -0.310 OA
ATOM     26  C   LIG    1        1.248   2.021   0.001  0.00  0.00    +0.250 C 
ENDBRANCH   8  25
TORSDOF 4
