REMARK  Name = ZINCpk000000o3qK.0
REMARK                            x       y       z     vdW  Elec       q    Type
REMARK                         _______ _______ _______ _____ _____    ______ ____
ROOT
ATOM      1  C   LIG    1       -1.225   2.208   0.018  0.00  0.00    +0.610 C 
ATOM      2  N   LIG    1       -1.107   3.550   0.027  0.00  0.00    -0.660 N 
ATOM      3  H   LIG    1       -0.231   3.960   0.099  0.00  0.00    +0.420 HD
ATOM      4  O   LIG    1       -2.327   1.694   0.012  0.00  0.00    -0.520 OA
ENDROOT
BRANCH   2   5
ATOM      5  C   LIG    1       -2.249   4.353  -0.069  0.00  0.00    +0.170 A 
ATOM      6  C   LIG    1       -2.195   5.560  -0.754  0.00  0.00    -0.030 A 
ATOM      7  C   LIG    1       -3.324   6.350  -0.854  0.00  0.00    +0.080 A 
ATOM      8  C   LIG    1       -4.506   5.949  -0.263  0.00  0.00    -0.140 A 
ATOM      9  C   LIG    1       -5.735   6.814  -0.366  0.00  0.00    +0.090 C 
ATOM     10  C   LIG    1       -6.979   5.928  -0.440  0.00  0.00    +0.070 C 
ATOM     11  C   LIG    1       -6.933   4.888   0.646  0.00  0.00    +0.520 C 
ATOM     12  N   LIG    1       -5.763   4.342   1.026  0.00  0.00    -0.660 N 
ATOM     13  H   LIG    1       -5.751   3.664   1.720  0.00  0.00    +0.410 HD
ATOM     14  O   LIG    1       -7.962   4.537   1.184  0.00  0.00    -0.530 OA
ATOM     15  C   LIG    1       -4.565   4.745   0.429  0.00  0.00    +0.180 A 
ATOM     16  C   LIG    1       -3.435   3.946   0.526  0.00  0.00    +0.000 A 
ENDBRANCH   2   5
BRANCH   1  19
ATOM     17  N   LIG    1        1.298  -0.377   0.003  0.00  0.00    -0.350 N 
ATOM     18  C   LIG    1        0.003  -0.004   0.007  0.00  0.00    +0.310 A 
ATOM     19  C   LIG    1       -0.016   1.362   0.016  0.00  0.00    -0.110 A 
ATOM     20  N   LIG    1        1.253   1.805   0.017  0.00  0.00    -0.210 NA
ATOM     21  N   LIG    1        2.059   0.801   0.009  0.00  0.00    -0.050 NA
BRANCH  17  22
ATOM     22  C   LIG    1        1.812  -1.748  -0.007  0.00  0.00    +0.350 C 
BRANCH  22  24
ATOM     23  C   LIG    1        3.799  -0.807  -1.302  0.00  0.00    +0.090 C 
ATOM     24  C   LIG    1        2.764  -1.928  -1.191  0.00  0.00    -0.150 C 
ATOM     25  C   LIG    1        2.051  -2.255  -2.517  0.00  0.00    +0.210 C 
ATOM     26  O   LIG    1        3.097  -3.228  -2.709  0.00  0.00    -0.370 OA
ATOM     27  C   LIG    1        3.365  -3.342  -1.297  0.00  0.00    +0.240 C 
ENDBRANCH  22  24
ENDBRANCH  17  22
ENDBRANCH   1  19
TORSDOF 4
