REMARK  Name = ZINCpk00000KfLDD.0
REMARK                            x       y       z     vdW  Elec       q    Type
REMARK                         _______ _______ _______ _____ _____    ______ ____
ROOT
ATOM      1  N   LIG    1       -3.012   3.360   2.360  0.00  0.00    -0.530 NA
ATOM      2  C   LIG    1       -1.640   3.874   2.469  0.00  0.00    +0.200 C 
ATOM      3  C   LIG    1       -0.838   3.446   1.237  0.00  0.00    +0.200 C 
ATOM      4  N   LIG    1       -0.842   1.980   1.139  0.00  0.00    -0.530 NA
ATOM      5  C   LIG    1       -2.215   1.466   1.030  0.00  0.00    +0.190 C 
ATOM      6  C   LIG    1       -3.016   1.894   2.261  0.00  0.00    +0.180 C 
ENDROOT
BRANCH   1   7
ATOM      7  C   LIG    1       -3.836   3.815   3.488  0.00  0.00    +0.270 C 
ATOM      8  C   LIG    1       -3.884   5.344   3.501  0.00  0.00    +0.080 C 
BRANCH   7  13
ATOM      9  C   LIG    1       -8.299   1.720   4.365  0.00  0.00    +0.210 C 
ATOM     10  C   LIG    1       -7.123   2.386   3.699  0.00  0.00    +0.170 A 
ATOM     11  N   LIG    1       -7.046   2.742   2.451  0.00  0.00    -0.390 NA
ATOM     12  O   LIG    1       -5.968   3.251   2.226  0.00  0.00    +0.090 OA
ATOM     13  C   LIG    1       -5.233   3.269   3.342  0.00  0.00    +0.190 A 
ATOM     14  N   LIG    1       -5.958   2.715   4.284  0.00  0.00    -0.480 NA
ENDBRANCH   7  13
ENDBRANCH   1   7
BRANCH   4  15
ATOM     15  C   LIG    1       -0.019   1.526   0.010  0.00  0.00    +0.160 C 
BRANCH  15  16
ATOM     16  C   LIG    1        1.462   1.644   0.379  0.00  0.00    +0.230 C 
BRANCH  16  17
ATOM     17  O   LIG    1        1.736   0.824   1.516  0.00  0.00    -0.540 OA
ATOM     18  H   LIG    1        1.551  -0.115   1.378  0.00  0.00    +0.370 HD
ENDBRANCH  16  17
BRANCH  16  19
ATOM     19  C   LIG    1        2.319   1.183  -0.801  0.00  0.00    +0.170 C 
BRANCH  19  20
ATOM     20  O   LIG    1        3.699   1.403  -0.501  0.00  0.00    -0.300 OA
BRANCH  20  21
ATOM     21  C   LIG    1        4.602   1.045  -1.452  0.00  0.00    +0.130 A 
ATOM     22  C   LIG    1        4.169   0.489  -2.647  0.00  0.00    -0.080 A 
ATOM     23  C   LIG    1        5.088   0.131  -3.614  0.00  0.00    +0.040 A 
ATOM     24  C   LIG    1        6.439   0.317  -3.388  0.00  0.00    -0.040 A 
ATOM     25  C   LIG    1        6.874   0.866  -2.196  0.00  0.00    +0.050 A 
ATOM     26  C   LIG    1        5.958   1.230  -1.228  0.00  0.00    -0.020 A 
ENDBRANCH  20  21
ENDBRANCH  19  20
ENDBRANCH  16  19
ENDBRANCH  15  16
ENDBRANCH   4  15
TORSDOF 8
