REMARK  Name = ZINCtV00000L6jtd.0
REMARK                            x       y       z     vdW  Elec       q    Type
REMARK                         _______ _______ _______ _____ _____    ______ ____
ROOT
ATOM      1  C   LIG    1       -2.872   5.226  -0.519  0.00  0.00    +0.200 C 
ENDROOT
BRANCH   1   2
ATOM      2  C   LIG    1       -2.210   4.432   0.578  0.00  0.00    +0.020 A 
ATOM      3  N   LIG    1       -1.852   3.209   0.465  0.00  0.00    -0.430 NA
ATOM      4  C   LIG    1       -1.274   2.622   1.531  0.00  0.00    +0.080 A 
ATOM      5  C   LIG    1       -0.794   1.306   1.684  0.00  0.00    +0.090 A 
ATOM      6  C   LIG    1       -0.230   0.909   2.858  0.00  0.00    +0.030 A 
ATOM      7  C   LIG    1       -0.117   1.790   3.925  0.00  0.00    +0.050 A 
ATOM      8  C   LIG    1       -0.578   3.082   3.804  0.00  0.00    +0.070 A 
ATOM      9  C   LIG    1       -1.157   3.506   2.610  0.00  0.00    -0.180 A 
ATOM     10  S   LIG    1       -1.836   5.055   2.122  0.00  0.00    +0.180 S 
ENDBRANCH   1   2
BRANCH   1  11
ATOM     11  C   LIG    1       -4.377   5.302  -0.256  0.00  0.00    +0.470 C 
ATOM     12  F   LIG    1       -4.921   4.013  -0.284  0.00  0.00    -0.170 F 
ATOM     13  F   LIG    1       -4.984   6.086  -1.243  0.00  0.00    -0.150 F 
ATOM     14  F   LIG    1       -4.603   5.875   1.000  0.00  0.00    -0.170 F 
ENDBRANCH   1  11
BRANCH   1  15
ATOM     15  O   LIG    1       -2.326   6.546  -0.548  0.00  0.00    -0.580 OA
BRANCH  15  17
ATOM     16  C   LIG    1       -0.644   6.334  -2.846  0.00  0.00    -0.290 C 
ATOM     17 SI   LIG    1       -0.762   6.607  -1.007  0.00  0.00    +1.230 Si
ATOM     18  C   LIG    1        0.199   5.281  -0.119  0.00  0.00    -0.300 C 
ATOM     19  C   LIG    1       -0.055   8.278  -0.581  0.00  0.00    -0.220 C 
ENDBRANCH  15  17
ENDBRANCH   1  15
BRANCH   1  20
ATOM     20  C   LIG    1       -2.623   4.542  -1.865  0.00  0.00    +0.060 C 
BRANCH  20  21
ATOM     21  C   LIG    1       -3.143   5.417  -2.977  0.00  0.00    +0.390 C 
ATOM     22  O   LIG    1       -3.485   6.556  -2.742  0.00  0.00    -0.400 OA
BRANCH  21  23
ATOM     23  C   LIG    1       -3.234   4.889  -4.346  0.00  0.00    -0.160 A 
ATOM     24  C   LIG    1       -2.835   3.576  -4.622  0.00  0.00    +0.070 A 
ATOM     25  C   LIG    1       -2.927   3.087  -5.907  0.00  0.00    +0.020 A 
ATOM     26  C   LIG    1       -3.406   3.894  -6.927  0.00  0.00    -0.010 A 
ATOM     27  C   LIG    1       -3.799   5.197  -6.662  0.00  0.00    +0.020 A 
ATOM     28 CL   LIG    1       -3.513   3.272  -8.544  0.00  0.00    -0.060 Cl
ATOM     29  C   LIG    1       -3.716   5.698  -5.381  0.00  0.00    +0.100 A 
ENDBRANCH  21  23
ENDBRANCH  20  21
ENDBRANCH   1  20
TORSDOF 7
