REMARK  Name = ZINCkj000005f6qQ.1
REMARK                            x       y       z     vdW  Elec       q    Type
REMARK                         _______ _______ _______ _____ _____    ______ ____
ROOT
ATOM      1  N   LIG    1        0.095   1.130   0.205  0.00  0.00    -0.580 N 
ATOM      2  C   LIG    1       -0.092  -0.133  -0.227  0.00  0.00    +0.590 C 
ATOM      3  O   LIG    1       -1.216  -0.590  -0.299  0.00  0.00    -0.500 OA
ENDROOT
BRANCH   1   4
ATOM      4  C   LIG    1       -1.058   1.998   0.454  0.00  0.00    +0.220 C 
ATOM      5  C   LIG    1       -1.886   2.183  -0.838  0.00  0.00    +0.010 C 
ATOM      6  C   LIG    1       -3.271   1.598  -0.483  0.00  0.00    +0.210 C 
ATOM      7  O   LIG    1       -3.353   1.690   0.956  0.00  0.00    -0.370 OA
ATOM      8  C   LIG    1       -2.041   1.323   1.436  0.00  0.00    +0.200 C 
ENDBRANCH   1   4
BRANCH   2   9
ATOM      9  C   LIG    1        1.073  -0.965  -0.615  0.00  0.00    -0.020 A 
ATOM     10  N   LIG    1        2.319  -0.576  -0.715  0.00  0.00    -0.290 NA
ATOM     11  O   LIG    1        3.041  -1.486  -1.052  0.00  0.00    +0.140 OA
ATOM     12  C   LIG    1        2.358  -2.626  -1.224  0.00  0.00    -0.120 A 
ATOM     13  C   LIG    1        1.063  -2.349  -0.947  0.00  0.00    +0.090 A 
BRANCH  12  14
ATOM     14  C   LIG    1        2.923  -3.960  -1.639  0.00  0.00    +0.410 C 
BRANCH  14  15
ATOM     15  N   LIG    1        2.898  -4.068  -3.104  0.00  0.00    -0.390 N 
ATOM     16  C   LIG    1        3.337  -5.411  -3.504  0.00  0.00    +0.340 C 
ATOM     17  C   LIG    1        3.801  -3.065  -3.684  0.00  0.00    +0.330 C 
ATOM     18  H   LIG    1        1.959  -3.907  -3.437  0.00  0.00    +0.430 HD
ENDBRANCH  14  15
ENDBRANCH  12  14
ENDBRANCH   2   9
BRANCH   1  20
ATOM     19  C   LIG    1        1.736   2.770  -0.569  0.00  0.00    +0.040 C 
ATOM     20  C   LIG    1        1.453   1.636   0.419  0.00  0.00    +0.220 C 
ATOM     21  C   LIG    1        1.581   2.163   1.850  0.00  0.00    +0.040 C 
ENDBRANCH   1  20
TORSDOF 5
