REMARK  Name = ZINCpe000000YYLW.0
REMARK                            x       y       z     vdW  Elec       q    Type
REMARK                         _______ _______ _______ _____ _____    ______ ____
ROOT
ATOM      1  C   LIG    1        2.494   5.624   0.009  0.00  0.00    +0.360 C 
ENDROOT
BRANCH   1   2
ATOM      2  N   LIG    1        2.429   4.160   0.002  0.00  0.00    -0.540 N 
ATOM      3  C   LIG    1        3.568   3.451  -0.013  0.00  0.00    +0.710 A 
ATOM      4  N   LIG    1        3.590   2.107  -0.020  0.00  0.00    -0.640 N 
ATOM      5  H   LIG    1        4.440   1.640  -0.030  0.00  0.00    +0.440 HD
ATOM      6  C   LIG    1        2.407   1.381  -0.013  0.00  0.00    +0.200 A 
ATOM      7  C   LIG    1        2.406  -0.005  -0.021  0.00  0.00    -0.020 A 
ATOM      8  C   LIG    1        1.207  -0.690  -0.013  0.00  0.00    +0.100 A 
ATOM      9  C   LIG    1        0.002  -0.004   0.002  0.00  0.00    -0.010 A 
ATOM     10  C   LIG    1       -0.017   1.375   0.010  0.00  0.00    +0.140 A 
ATOM     11  C   LIG    1        1.186   2.078   0.002  0.00  0.00    -0.190 A 
ATOM     12  O   LIG    1        4.626   4.050  -0.019  0.00  0.00    -0.540 OA
ATOM     13  C   LIG    1        1.223   3.551   0.009  0.00  0.00    +0.570 A 
ATOM     14  O   LIG    1        0.196   4.201   0.022  0.00  0.00    -0.490 OA
ENDBRANCH   1   2
BRANCH   1  16
ATOM     15  O   LIG    1        2.460   5.351  -2.335  0.00  0.00    -0.530 OA
ATOM     16  C   LIG    1        2.503   6.133  -1.409  0.00  0.00    +0.510 C 
ATOM     17  N   LIG    1        2.560   7.458  -1.649  0.00  0.00    -0.720 N 
ATOM     18  H   LIG    1        2.595   8.084  -0.909  0.00  0.00    +0.410 HD
BRANCH  17  19
ATOM     19  C   LIG    1        2.569   7.954  -3.028  0.00  0.00    +0.440 C 
BRANCH  19  20
ATOM     20  C   LIG    1        2.634   9.424  -3.021  0.00  0.00    -0.180 C 
ATOM     21  C   LIG    1        2.686  10.597  -3.015  0.00  0.00    -0.100 C 
BRANCH  21  22
ATOM     22  C   LIG    1        2.750  12.027  -3.008  0.00  0.00    +0.000 A 
ATOM     23  C   LIG    1        2.786  12.721  -1.798  0.00  0.00    +0.040 A 
ATOM     24  C   LIG    1        2.852  14.100  -1.798  0.00  0.00    +0.010 A 
ATOM     25  C   LIG    1        2.872  14.794  -2.994  0.00  0.00    +0.020 A 
ATOM     26  C   LIG    1        2.831  14.112  -4.197  0.00  0.00    +0.010 A 
ATOM     27  C   LIG    1        2.770  12.734  -4.211  0.00  0.00    +0.040 A 
ENDBRANCH  21  22
ENDBRANCH  19  20
ENDBRANCH  17  19
ENDBRANCH   1  16
TORSDOF 5
