REMARK  Name = ZINCnE000001RynK.0
REMARK                            x       y       z     vdW  Elec       q    Type
REMARK                         _______ _______ _______ _____ _____    ______ ____
ROOT
ATOM      1  N   LIG    1        3.077   0.725   3.583  0.00  0.00    -0.670 NA
ATOM      2  C   LIG    1        4.189   0.358   4.162  0.00  0.00    +0.440 A 
ATOM      3  N   LIG    1        4.682  -0.918   4.248  0.00  0.00    -0.520 NA
ATOM      4  N   LIG    1        5.892  -0.834   4.952  0.00  0.00    -0.270 NA
ATOM      5  C   LIG    1        6.092   0.414   5.258  0.00  0.00    +0.100 A 
ATOM      6  O   LIG    1        5.073   1.165   4.785  0.00  0.00    -0.290 OA
ENDROOT
BRANCH   5   7
ATOM      7  C   LIG    1        7.259   0.932   6.004  0.00  0.00    +0.050 A 
ATOM      8  C   LIG    1        7.370   2.298   6.270  0.00  0.00    +0.020 A 
ATOM      9  C   LIG    1        8.458   2.775   6.972  0.00  0.00    +0.030 A 
ATOM     10  C   LIG    1        9.444   1.905   7.402  0.00  0.00    +0.010 A 
ATOM     11  C   LIG    1        9.343   0.550   7.137  0.00  0.00    -0.030 A 
ATOM     12 CL   LIG    1       10.585  -0.534   7.681  0.00  0.00    -0.080 Cl
ATOM     13  C   LIG    1        8.256   0.059   6.441  0.00  0.00    +0.050 A 
ENDBRANCH   5   7
BRANCH   1  17
ATOM     14  N   LIG    1        0.672  -0.601   1.165  0.00  0.00    -0.510 NA
ATOM     15  C   LIG    1       -0.157  -0.464   2.382  0.00  0.00    +0.170 C 
ATOM     16  C   LIG    1        0.808  -0.271   3.567  0.00  0.00    +0.010 C 
ATOM     17  C   LIG    1        2.222  -0.276   2.941  0.00  0.00    +0.190 C 
ATOM     18  C   LIG    1        1.947   0.099   1.462  0.00  0.00    +0.180 C 
BRANCH  14  19
ATOM     19  C   LIG    1        0.002  -0.004   0.002  0.00  0.00    +0.200 C 
BRANCH  19  21
ATOM     20  F   LIG    1        1.338  -1.405  -1.403  0.00  0.00    -0.170 F 
ATOM     21  C   LIG    1        0.927  -0.082  -1.214  0.00  0.00    +0.450 C 
ATOM     22  F   LIG    1        2.047   0.729  -1.001  0.00  0.00    -0.180 F 
ATOM     23  F   LIG    1        0.241   0.360  -2.351  0.00  0.00    -0.190 F 
ENDBRANCH  19  21
ENDBRANCH  14  19
ENDBRANCH   1  17
TORSDOF 4
