REMARK  Name = ZINCpk000000n0Gm.0
REMARK                            x       y       z     vdW  Elec       q    Type
REMARK                         _______ _______ _______ _____ _____    ______ ____
ROOT
ATOM      1  N   LIG    1       -3.249   1.981   2.126  0.00  0.00    -0.710 N 
ATOM      2  H   LIG    1       -3.517   2.751   1.600  0.00  0.00    +0.410 HD
ATOM      3  C   LIG    1       -3.159   2.080   3.467  0.00  0.00    +0.520 C 
ATOM      4  O   LIG    1       -2.825   1.117   4.125  0.00  0.00    -0.510 OA
ENDROOT
BRANCH   1   5
ATOM      5  C   LIG    1       -2.945   0.711   1.462  0.00  0.00    +0.230 C 
BRANCH   5   7
ATOM      6  C   LIG    1       -4.037  -1.652   1.268  0.00  0.00    +0.080 C 
ATOM      7  C   LIG    1       -4.172  -0.164   1.465  0.00  0.00    +0.350 C 
ATOM      8  O   LIG    1       -5.263   0.327   1.625  0.00  0.00    -0.440 OA
ENDBRANCH   5   7
BRANCH   5   9
ATOM      9  C   LIG    1       -2.514   0.980   0.019  0.00  0.00    +0.110 C 
BRANCH   9  10
ATOM     10  C   LIG    1       -1.219   1.751   0.017  0.00  0.00    -0.090 A 
ATOM     11  C   LIG    1       -0.013   1.076   0.008  0.00  0.00    +0.010 A 
ATOM     12  C   LIG    1        1.175   1.783   0.000  0.00  0.00    +0.000 A 
ATOM     13  C   LIG    1        1.156   3.165   0.008  0.00  0.00    +0.000 A 
ATOM     14  C   LIG    1       -0.050   3.840   0.022  0.00  0.00    +0.000 A 
ATOM     15  C   LIG    1       -1.238   3.133   0.030  0.00  0.00    +0.010 A 
ENDBRANCH   9  10
ENDBRANCH   5   9
ENDBRANCH   1   5
BRANCH   3  16
ATOM     16  C   LIG    1       -3.472   3.386   4.149  0.00  0.00    +0.240 C 
BRANCH  16  17
ATOM     17  O   LIG    1       -3.304   3.239   5.561  0.00  0.00    -0.280 OA
BRANCH  17  18
ATOM     18  C   LIG    1       -3.549   4.331   6.328  0.00  0.00    +0.160 A 
ATOM     19  C   LIG    1       -3.937   5.525   5.730  0.00  0.00    -0.080 A 
ATOM     20  C   LIG    1       -4.192   6.634   6.505  0.00  0.00    +0.090 A 
ATOM     21  C   LIG    1       -4.047   6.562   7.894  0.00  0.00    -0.180 A 
ATOM     22  C   LIG    1       -3.651   5.362   8.490  0.00  0.00    +0.130 A 
ATOM     23  C   LIG    1       -3.404   4.255   7.708  0.00  0.00    -0.010 A 
BRANCH  21  24
ATOM     24  C   LIG    1       -4.312   7.751   8.728  0.00  0.00    +0.570 C 
ATOM     25  O   LIG    1       -4.186   7.686   9.935  0.00  0.00    -0.540 OA
ATOM     26  N   LIG    1       -4.694   8.907   8.151  0.00  0.00    -0.850 N 
ATOM     27  H   LIG    1       -4.868   9.688   8.699  0.00  0.00    +0.410 HD
ATOM     28  H   LIG    1       -4.795   8.958   7.187  0.00  0.00    +0.400 HD
ENDBRANCH  21  24
ENDBRANCH  17  18
ENDBRANCH  16  17
ENDBRANCH   3  16
TORSDOF 8
