REMARK  Name = ZINCrD00000l2AmB.0
REMARK                            x       y       z     vdW  Elec       q    Type
REMARK                         _______ _______ _______ _____ _____    ______ ____
ROOT
ATOM      1  O   LIG    1        5.838   3.372  -0.619  0.00  0.00    -0.530 OA
ATOM      2  C   LIG    1        5.187   3.006  -1.578  0.00  0.00    +0.540 C 
ENDROOT
BRANCH   2   3
ATOM      3  C   LIG    1        5.660   3.295  -2.939  0.00  0.00    -0.340 A 
ATOM      4  C   LIG    1        6.838   3.984  -3.142  0.00  0.00    +0.440 A 
ATOM      5  N   LIG    1        7.303   4.259  -4.367  0.00  0.00    -0.590 N 
ATOM      6  H   LIG    1        8.140   4.743  -4.449  0.00  0.00    +0.430 HD
ATOM      7  C   LIG    1        6.640   3.889  -5.518  0.00  0.00    +0.170 A 
ATOM      8  C   LIG    1        7.164   4.205  -6.768  0.00  0.00    -0.020 A 
ATOM      9  C   LIG    1        6.492   3.830  -7.911  0.00  0.00    +0.080 A 
ATOM     10  C   LIG    1        5.293   3.137  -7.833  0.00  0.00    +0.000 A 
ATOM     11  C   LIG    1        4.756   2.813  -6.606  0.00  0.00    +0.110 A 
ATOM     12  C   LIG    1        5.425   3.187  -5.441  0.00  0.00    -0.180 A 
ATOM     13  C   LIG    1        4.881   2.858  -4.110  0.00  0.00    +0.430 A 
ATOM     14  O   LIG    1        3.832   2.252  -3.985  0.00  0.00    -0.450 OA
ENDBRANCH   2   3
BRANCH   2  15
ATOM     15  O   LIG    1        4.031   2.337  -1.394  0.00  0.00    -0.330 OA
BRANCH  15  16
ATOM     16  C   LIG    1        3.626   2.088  -0.022  0.00  0.00    +0.300 C 
BRANCH  16  17
ATOM     17  C   LIG    1        2.321   1.335  -0.013  0.00  0.00    -0.210 A 
ATOM     18  C   LIG    1        1.111   2.013   0.002  0.00  0.00    +0.350 A 
ATOM     19  N   LIG    1       -0.016   1.322   0.009  0.00  0.00    -0.510 NA
ATOM     20  C   LIG    1        0.002  -0.004   0.002  0.00  0.00    +0.370 A 
ATOM     21  N   LIG    1        1.141  -0.683  -0.013  0.00  0.00    -0.510 NA
ATOM     22  C   LIG    1        2.303  -0.052  -0.020  0.00  0.00    +0.350 A 
BRANCH  20  23
ATOM     23  C   LIG    1       -1.282  -0.746   0.011  0.00  0.00    -0.050 A 
ATOM     24  C   LIG    1       -2.491  -0.051   0.032  0.00  0.00    +0.070 A 
ATOM     25  C   LIG    1       -3.683  -0.747   0.035  0.00  0.00    +0.000 A 
ATOM     26  C   LIG    1       -3.680  -2.130   0.028  0.00  0.00    +0.030 A 
ATOM     27  C   LIG    1       -2.484  -2.824   0.012  0.00  0.00    +0.000 A 
ATOM     28  C   LIG    1       -1.285  -2.139   0.003  0.00  0.00    +0.070 A 
ENDBRANCH  20  23
ENDBRANCH  16  17
ENDBRANCH  15  16
ENDBRANCH   2  15
TORSDOF 5
