REMARK  Name = ZINCrH00000No53I.0
REMARK                            x       y       z     vdW  Elec       q    Type
REMARK                         _______ _______ _______ _____ _____    ______ ____
ROOT
ATOM      1  C   LIG    1       -1.330   0.576   0.497  0.00  0.00    +0.550 C 
ATOM      2  N   LIG    1       -0.802   1.786   0.222  0.00  0.00    -0.560 N 
ATOM      3  O   LIG    1       -0.599  -0.367   0.732  0.00  0.00    -0.520 OA
ENDROOT
BRANCH   2   4
ATOM      4  C   LIG    1       -1.636   2.845  -0.152  0.00  0.00    +0.150 A 
ATOM      5  C   LIG    1       -1.799   3.933   0.695  0.00  0.00    +0.030 A 
ATOM      6  C   LIG    1       -2.622   4.981   0.327  0.00  0.00    +0.030 A 
ATOM      7  C   LIG    1       -3.287   4.948  -0.885  0.00  0.00    +0.070 A 
ATOM      8  C   LIG    1       -3.128   3.860  -1.737  0.00  0.00    +0.130 A 
ATOM      9  F   LIG    1       -4.091   5.973  -1.242  0.00  0.00    -0.130 F 
ATOM     10  C   LIG    1       -2.297   2.811  -1.372  0.00  0.00    +0.060 A 
BRANCH   8  11
ATOM     11  N   LIG    1       -3.801   3.826  -2.965  0.00  0.00    -0.670 N 
ATOM     12  H   LIG    1       -4.657   4.272  -3.060  0.00  0.00    +0.420 HD
ATOM     13  C   LIG    1       -3.259   3.175  -4.013  0.00  0.00    +0.510 C 
ATOM     14  O   LIG    1       -2.233   2.543  -3.870  0.00  0.00    -0.510 OA
ATOM     15  C   LIG    1       -3.928   3.231  -5.362  0.00  0.00    +0.110 C 
ENDBRANCH   8  11
ENDBRANCH   2   4
BRANCH   1  17
ATOM     16  C   LIG    1       -3.309  -0.815   0.681  0.00  0.00    +0.140 C 
ATOM     17  C   LIG    1       -2.789   0.398   0.511  0.00  0.00    -0.100 C 
ENDBRANCH   1  17
BRANCH   2  18
ATOM     18  C   LIG    1        0.646   1.990   0.309  0.00  0.00    +0.380 C 
BRANCH  18  19
ATOM     19  C   LIG    1        1.260   1.823  -1.057  0.00  0.00    -0.270 A 
ATOM     20  C   LIG    1        1.441   2.802  -1.974  0.00  0.00    +0.110 A 
ATOM     21  N   LIG    1        2.018   2.247  -3.060  0.00  0.00    -0.360 N 
ATOM     22  N   LIG    1        2.198   0.882  -2.803  0.00  0.00    -0.300 NA
ATOM     23  C   LIG    1        1.065   4.252  -1.810  0.00  0.00    +0.140 C 
ATOM     24  C   LIG    1        1.749   0.630  -1.600  0.00  0.00    +0.100 A 
ATOM     25  C   LIG    1        1.754  -0.714  -0.919  0.00  0.00    +0.150 C 
BRANCH  21  26
ATOM     26  C   LIG    1        2.391   2.949  -4.291  0.00  0.00    +0.310 C 
BRANCH  26  27
ATOM     27  C   LIG    1        3.825   3.469  -4.167  0.00  0.00    +0.000 C 
ATOM     28  C   LIG    1        4.214   4.202  -5.453  0.00  0.00    +0.030 C 
ENDBRANCH  26  27
ENDBRANCH  21  26
ENDBRANCH  18  19
ENDBRANCH   2  18
TORSDOF 7
