REMARK  Name = ZINCkj000005iBTL.0
REMARK                            x       y       z     vdW  Elec       q    Type
REMARK                         _______ _______ _______ _____ _____    ______ ____
ROOT
ATOM      1  C   LIG    1       -2.615  -2.626  -0.088  0.00  0.00    +0.540 C 
ATOM      2  N   LIG    1       -2.671  -3.972  -0.045  0.00  0.00    -0.620 N 
ATOM      3  C   LIG    1       -1.517  -4.884  -0.153  0.00  0.00    +0.260 C 
ATOM      4  C   LIG    1       -2.114  -6.219  -0.663  0.00  0.00    +0.060 C 
ATOM      5  C   LIG    1       -3.473  -6.259   0.084  0.00  0.00    +0.040 C 
ATOM      6  C   LIG    1       -3.891  -4.774   0.124  0.00  0.00    +0.220 C 
ATOM      7  O   LIG    1       -3.639  -1.976  -0.081  0.00  0.00    -0.500 OA
ENDROOT
BRANCH   1   8
ATOM      8  C   LIG    1       -1.280  -1.929  -0.146  0.00  0.00    +0.240 C 
BRANCH   8   9
ATOM      9  O   LIG    1       -1.482  -0.515  -0.184  0.00  0.00    -0.280 OA
BRANCH   9  16
ATOM     10  C   LIG    1       -0.494   1.653  -0.278  0.00  0.00    +0.110 A 
ATOM     11  C   LIG    1        0.641   2.445  -0.332  0.00  0.00    -0.030 A 
ATOM     12  C   LIG    1        1.894   1.858  -0.347  0.00  0.00    -0.070 A 
ATOM     13  C   LIG    1        2.016   0.482  -0.308  0.00  0.00    +0.010 A 
ATOM     14  C   LIG    1        0.886  -0.315  -0.253  0.00  0.00    -0.040 A 
ATOM     15  C   LIG    1        3.128   2.721  -0.406  0.00  0.00    +0.100 C 
ATOM     16  C   LIG    1       -0.371   0.267  -0.238  0.00  0.00    +0.080 A 
BRANCH  10  18
ATOM     17  C   LIG    1       -1.776   3.655  -0.311  0.00  0.00    +0.240 C 
ATOM     18  O   LIG    1       -1.726   2.228  -0.268  0.00  0.00    -0.310 OA
ENDBRANCH  10  18
ENDBRANCH   9  16
ENDBRANCH   8   9
ENDBRANCH   1   8
BRANCH   6  19
ATOM     19  C   LIG    1       -4.544  -4.450   1.469  0.00  0.00    +0.250 C 
BRANCH  19  20
ATOM     20  N   LIG    1       -5.822  -5.167   1.579  0.00  0.00    -0.630 N 
ATOM     21  H   LIG    1       -5.649  -6.161   1.599  0.00  0.00    +0.430 HD
ATOM     22  H   LIG    1       -6.402  -4.944   0.784  0.00  0.00    +0.440 HD
ATOM     23  H   LIG    1       -6.292  -4.890   2.427  0.00  0.00    +0.440 HD
ENDBRANCH  19  20
ENDBRANCH   6  19
TORSDOF 6
