REMARK  Name = ZINCvU0000000HXq.0
REMARK                            x       y       z     vdW  Elec       q    Type
REMARK                         _______ _______ _______ _____ _____    ______ ____
ROOT
ATOM      1  C   LIG    1       -4.576   6.979  -2.861  0.00  0.00    -0.070 A 
ATOM      2  C   LIG    1       -3.709   7.880  -3.451  0.00  0.00    -0.010 A 
ATOM      3  C   LIG    1       -3.993   8.400  -4.701  0.00  0.00    +0.030 A 
ATOM      4  C   LIG    1       -5.149   8.029  -5.359  0.00  0.00    +0.010 A 
ATOM      5  C   LIG    1       -6.024   7.128  -4.766  0.00  0.00    +0.150 A 
ATOM      6  C   LIG    1       -5.734   6.604  -3.514  0.00  0.00    +0.010 A 
ENDROOT
BRANCH   5   7
ATOM      7  N   LIG    1       -7.196   6.750  -5.430  0.00  0.00    -0.670 N 
ATOM      8  H   LIG    1       -7.999   6.553  -4.922  0.00  0.00    +0.410 HD
ATOM      9  C   LIG    1       -7.210   6.660  -6.774  0.00  0.00    +0.550 C 
ATOM     10  O   LIG    1       -6.181   6.812  -7.404  0.00  0.00    -0.490 OA
BRANCH   9  11
ATOM     11  C   LIG    1       -8.475   6.375  -7.483  0.00  0.00    -0.130 A 
ATOM     12  C   LIG    1       -9.658   6.199  -6.762  0.00  0.00    +0.060 A 
ATOM     13  C   LIG    1      -10.835   5.934  -7.430  0.00  0.00    +0.020 A 
ATOM     14  C   LIG    1      -10.847   5.842  -8.810  0.00  0.00    +0.060 A 
ATOM     15  C   LIG    1       -9.679   6.014  -9.531  0.00  0.00    +0.020 A 
ATOM     16  C   LIG    1       -8.494   6.286  -8.877  0.00  0.00    +0.020 A 
ATOM     17 CL   LIG    1       -7.030   6.510  -9.784  0.00  0.00    -0.030 Cl
ENDBRANCH   9  11
ENDBRANCH   5   7
BRANCH   1  18
ATOM     18  C   LIG    1       -4.260   6.412  -1.501  0.00  0.00    +0.240 C 
BRANCH  18  19
ATOM     19  N   LIG    1       -3.481   5.176  -1.655  0.00  0.00    -0.680 NA
ATOM     20  H   LIG    1       -2.645   5.341  -2.197  0.00  0.00    +0.350 HD
BRANCH  19  21
ATOM     21  C   LIG    1       -3.154   4.593  -0.347  0.00  0.00    +0.320 C 
BRANCH  21  24
ATOM     22  C   LIG    1       -0.759   1.958  -0.797  0.00  0.00    +0.230 A 
ATOM     23  N   LIG    1       -1.019   3.241  -0.622  0.00  0.00    -0.470 NA
ATOM     24  C   LIG    1       -2.356   3.330  -0.545  0.00  0.00    +0.180 A 
ATOM     25  N   LIG    1       -2.838   2.129  -0.673  0.00  0.00    -0.370 NA
ATOM     26  O   LIG    1       -1.942   1.326  -0.824  0.00  0.00    +0.090 OA
BRANCH  22  33
ATOM     27  C   LIG    1       -0.540  -0.904  -1.161  0.00  0.00    +0.110 C 
ATOM     28  C   LIG    1        0.694  -0.040  -1.119  0.00  0.00    -0.040 A 
ATOM     29  C   LIG    1        1.942  -0.610  -1.258  0.00  0.00    +0.010 A 
ATOM     30  C   LIG    1        3.076   0.182  -1.220  0.00  0.00    +0.050 A 
ATOM     31  C   LIG    1        2.966   1.549  -1.043  0.00  0.00    +0.000 A 
ATOM     32  C   LIG    1        1.724   2.132  -0.902  0.00  0.00    +0.080 A 
ATOM     33  C   LIG    1        0.576   1.339  -0.940  0.00  0.00    -0.040 A 
ENDBRANCH  22  33
ENDBRANCH  21  24
ENDBRANCH  19  21
ENDBRANCH  18  19
ENDBRANCH   1  18
TORSDOF 7
