REMARK  Name = ZINCrD00000F5Lwa.0
REMARK                            x       y       z     vdW  Elec       q    Type
REMARK                         _______ _______ _______ _____ _____    ______ ____
ROOT
ATOM      1  N   LIG    1       -0.784  -1.982   1.188  0.00  0.00    -0.550 N 
ENDROOT
BRANCH   1   5
ATOM      2  C   LIG    1       -3.583  -3.011  -0.766  0.00  0.00    +0.230 A 
ATOM      3  N   LIG    1       -3.413  -4.277  -0.518  0.00  0.00    -0.450 NA
ATOM      4  S   LIG    1       -2.049  -4.370   0.492  0.00  0.00    +0.270 S 
ATOM      5  C   LIG    1       -1.784  -2.667   0.521  0.00  0.00    +0.340 A 
ATOM      6  N   LIG    1       -2.742  -2.160  -0.225  0.00  0.00    -0.550 NA
BRANCH   2   8
ATOM      7  F   LIG    1       -5.646  -3.567  -1.801  0.00  0.00    -0.150 F 
ATOM      8  C   LIG    1       -4.714  -2.536  -1.642  0.00  0.00    +0.570 C 
ATOM      9  F   LIG    1       -4.210  -2.165  -2.893  0.00  0.00    -0.160 F 
ATOM     10  F   LIG    1       -5.335  -1.434  -1.045  0.00  0.00    -0.150 F 
ENDBRANCH   2   8
ENDBRANCH   1   5
BRANCH   1  11
ATOM     11  C   LIG    1        0.269  -2.722   1.889  0.00  0.00    +0.370 C 
BRANCH  11  12
ATOM     12  C   LIG    1       -0.108  -2.879   3.339  0.00  0.00    -0.110 A 
ATOM     13  C   LIG    1       -1.349  -2.458   3.777  0.00  0.00    +0.010 A 
ATOM     14  C   LIG    1       -1.698  -2.607   5.107  0.00  0.00    +0.020 A 
ATOM     15  C   LIG    1       -0.801  -3.166   5.997  0.00  0.00    +0.020 A 
ATOM     16  C   LIG    1        0.445  -3.583   5.560  0.00  0.00    -0.090 A 
ATOM     17  C   LIG    1        1.590  -4.216   6.322  0.00  0.00    +0.070 C 
ATOM     18  C   LIG    1        2.825  -4.042   5.413  0.00  0.00    +0.030 C 
ATOM     19  C   LIG    1        2.193  -3.966   4.007  0.00  0.00    +0.080 C 
ATOM     20  C   LIG    1        0.792  -3.440   4.230  0.00  0.00    -0.090 A 
ENDBRANCH  11  12
ENDBRANCH   1  11
BRANCH   1  21
ATOM     21  C   LIG    1       -0.778  -0.517   1.193  0.00  0.00    +0.320 C 
BRANCH  21  22
ATOM     22  C   LIG    1        0.024  -0.006  -0.005  0.00  0.00    +0.320 C 
BRANCH  22  23
ATOM     23  N   LIG    1        0.030   1.459  -0.000  0.00  0.00    -0.380 N 
ATOM     24  C   LIG    1        1.109   2.260  -0.022  0.00  0.00    +0.480 A 
ATOM     25  N   LIG    1        0.694   3.501  -0.009  0.00  0.00    -0.540 NA
ATOM     26  C   LIG    1       -0.638   3.531   0.021  0.00  0.00    +0.420 A 
ATOM     27  N   LIG    1       -1.090   2.305   0.023  0.00  0.00    -0.310 NA
ENDBRANCH  22  23
ENDBRANCH  21  22
ENDBRANCH   1  21
TORSDOF 7
