REMARK  Name = ZINCvU0000000HRR.0
REMARK                            x       y       z     vdW  Elec       q    Type
REMARK                         _______ _______ _______ _____ _____    ______ ____
ROOT
ATOM      1  C   LIG    1       -4.796   4.398   0.727  0.00  0.00    +0.510 C 
ATOM      2  O   LIG    1       -4.844   5.603   0.874  0.00  0.00    -0.500 OA
ENDROOT
BRANCH   1   6
ATOM      3  C   LIG    1       -1.137   2.330   1.322  0.00  0.00    +0.150 A 
ATOM      4  C   LIG    1       -2.280   1.626   0.953  0.00  0.00    +0.060 A 
ATOM      5  C   LIG    1       -3.469   2.293   0.765  0.00  0.00    +0.120 A 
ATOM      6  C   LIG    1       -3.526   3.680   0.934  0.00  0.00    -0.110 A 
ATOM      7  C   LIG    1       -2.374   4.384   1.299  0.00  0.00    +0.110 A 
ATOM      8  C   LIG    1       -1.189   3.711   1.490  0.00  0.00    +0.040 A 
BRANCH   3  11
ATOM      9  C   LIG    1        2.320   1.396   1.153  0.00  0.00    +0.050 A 
ATOM     10  N   LIG    1        1.237   2.078   0.934  0.00  0.00    -0.260 NA
ATOM     11  N   LIG    1        0.065   1.652   1.517  0.00  0.00    -0.310 N 
ATOM     12  C   LIG    1        0.134   0.544   2.279  0.00  0.00    +0.220 A 
ATOM     13  S   LIG    1       -1.140  -0.224   3.127  0.00  0.00    -0.390 S 
ATOM     14  S   LIG    1        1.838   0.057   2.211  0.00  0.00    +0.150 S 
BRANCH   9  16
ATOM     15  C   LIG    1        3.592   3.224  -0.438  0.00  0.00    +0.160 C 
ATOM     16  S   LIG    1        3.933   1.732   0.529  0.00  0.00    +0.090 S 
ENDBRANCH   9  16
ENDBRANCH   3  11
ENDBRANCH   1   6
BRANCH   1  17
ATOM     17  O   LIG    1       -5.905   3.717   0.375  0.00  0.00    -0.330 OA
BRANCH  17  18
ATOM     18  C   LIG    1       -7.121   4.489   0.189  0.00  0.00    +0.160 C 
ATOM     19  C   LIG    1       -7.218   4.943  -1.269  0.00  0.00    +0.080 C 
BRANCH  18  20
ATOM     20  C   LIG    1       -8.315   3.636   0.530  0.00  0.00    +0.450 C 
ATOM     21  O   LIG    1       -8.213   2.426   0.542  0.00  0.00    -0.420 OA
BRANCH  20  22
ATOM     22  C   LIG    1       -9.557   4.245   0.837  0.00  0.00    -0.270 A 
ATOM     23  C   LIG    1       -9.962   4.730   2.062  0.00  0.00    +0.150 A 
ATOM     24  N   LIG    1      -11.204   5.239   1.960  0.00  0.00    -0.570 N 
ATOM     25  H   LIG    1      -11.698   5.639   2.692  0.00  0.00    +0.420 HD
ATOM     26  C   LIG    1      -11.681   5.107   0.671  0.00  0.00    +0.090 A 
ATOM     27  C   LIG    1      -12.881   5.460   0.062  0.00  0.00    +0.000 A 
ATOM     28  C   LIG    1      -13.076   5.197  -1.276  0.00  0.00    +0.030 A 
ATOM     29  C   LIG    1      -12.087   4.580  -2.027  0.00  0.00    +0.000 A 
ATOM     30  C   LIG    1      -10.892   4.222  -1.441  0.00  0.00    +0.040 A 
ATOM     31  C   LIG    1       -9.137   4.698   3.323  0.00  0.00    +0.150 C 
ATOM     32  C   LIG    1      -10.681   4.483  -0.091  0.00  0.00    -0.060 A 
ENDBRANCH  20  22
ENDBRANCH  18  20
ENDBRANCH  17  18
ENDBRANCH   1  17
TORSDOF 7
