REMARK  Name = ZINCrD0000070RXd.0
REMARK                            x       y       z     vdW  Elec       q    Type
REMARK                         _______ _______ _______ _____ _____    ______ ____
ROOT
ATOM      1  C   LIG    1        2.437   0.120  -0.626  0.00  0.00    -0.250 A 
ATOM      2  C   LIG    1        1.287  -0.570  -1.029  0.00  0.00    +0.180 A 
ATOM      3  C   LIG    1        0.259   0.150  -1.611  0.00  0.00    -0.090 A 
ATOM      4  C   LIG    1        0.392   1.517  -1.778  0.00  0.00    +0.360 A 
ATOM      5  N   LIG    1        1.483   2.149  -1.392  0.00  0.00    -0.540 NA
ATOM      6  C   LIG    1        2.498   1.510  -0.829  0.00  0.00    +0.450 A 
ENDROOT
BRANCH   1   7
ATOM      7  C   LIG    1        3.562  -0.597  -0.002  0.00  0.00    +0.530 C 
ATOM      8  O   LIG    1        4.508   0.025   0.440  0.00  0.00    -0.520 OA
BRANCH   7   9
ATOM      9  O   LIG    1        3.542  -1.942   0.079  0.00  0.00    -0.320 OA
BRANCH   9  10
ATOM     10  C   LIG    1        4.684  -2.582   0.707  0.00  0.00    +0.270 C 
BRANCH  10  13
ATOM     11  N   LIG    1        5.426  -4.880   1.242  0.00  0.00    -0.720 N 
ATOM     12  H   LIG    1        6.229  -4.497   1.628  0.00  0.00    +0.410 HD
ATOM     13  C   LIG    1        4.486  -4.075   0.707  0.00  0.00    +0.520 C 
ATOM     14  O   LIG    1        3.481  -4.554   0.225  0.00  0.00    -0.510 OA
BRANCH  11  15
ATOM     15  C   LIG    1        5.233  -6.332   1.242  0.00  0.00    +0.310 C 
BRANCH  15  17
ATOM     16  C   LIG    1        6.240  -7.811   2.904  0.00  0.00    +0.050 C 
ATOM     17  C   LIG    1        6.419  -6.996   1.894  0.00  0.00    -0.060 C 
ENDBRANCH  15  17
ENDBRANCH  11  15
ENDBRANCH  10  13
ENDBRANCH   9  10
ENDBRANCH   7   9
ENDBRANCH   1   7
BRANCH   6  18
ATOM     18  N   LIG    1        3.623   2.214  -0.440  0.00  0.00    -0.640 N 
ATOM     19  H   LIG    1        4.400   1.739  -0.104  0.00  0.00    +0.430 HD
BRANCH  18  20
ATOM     20  C   LIG    1        3.642   3.608  -0.530  0.00  0.00    +0.160 A 
ATOM     21  C   LIG    1        2.482   4.337  -0.295  0.00  0.00    +0.060 A 
ATOM     22  C   LIG    1        2.505   5.715  -0.380  0.00  0.00    +0.040 A 
ATOM     23  C   LIG    1        3.678   6.369  -0.710  0.00  0.00    +0.050 A 
ATOM     24  C   LIG    1        4.832   5.647  -0.950  0.00  0.00    -0.160 A 
ATOM     25  C   LIG    1        4.818   4.269  -0.861  0.00  0.00    +0.040 A 
BRANCH  24  26
ATOM     26  C   LIG    1        6.108   6.365  -1.310  0.00  0.00    +0.510 C 
ATOM     27  F   LIG    1        7.204   5.624  -0.854  0.00  0.00    -0.180 F 
ATOM     28  F   LIG    1        6.117   7.628  -0.710  0.00  0.00    -0.180 F 
ATOM     29  F   LIG    1        6.187   6.508  -2.699  0.00  0.00    -0.180 F 
ENDBRANCH  24  26
ENDBRANCH  18  20
ENDBRANCH   6  18
TORSDOF 9
