REMARK  Name = ZINCkj000005jGgL.0
REMARK                            x       y       z     vdW  Elec       q    Type
REMARK                         _______ _______ _______ _____ _____    ______ ____
ROOT
ATOM      1  C   LIG    1       -0.778   1.853   3.474  0.00  0.00    +0.240 C 
ATOM      2  C   LIG    1       -0.979   0.620   4.361  0.00  0.00    +0.010 C 
ATOM      3  C   LIG    1        0.322  -0.186   4.407  0.00  0.00    +0.040 C 
ATOM      4  C   LIG    1        0.682  -0.658   2.997  0.00  0.00    +0.020 C 
ATOM      5  C   LIG    1        0.898   0.556   2.095  0.00  0.00    +0.290 C 
ATOM      6  N   LIG    1       -0.292   1.416   2.159  0.00  0.00    -0.610 N 
ATOM      7  C   LIG    1       -0.927   1.793   1.032  0.00  0.00    +0.530 C 
ATOM      8  O   LIG    1       -1.962   2.421   1.100  0.00  0.00    -0.580 OA
ENDROOT
BRANCH   1  10
ATOM      9  C   LIG    1       -2.522   3.204   4.649  0.00  0.00    +0.080 C 
ATOM     10  C   LIG    1       -2.110   2.588   3.310  0.00  0.00    +0.210 C 
BRANCH  10  11
ATOM     11  N   LIG    1       -3.142   1.640   2.869  0.00  0.00    -0.620 N 
ATOM     12  H   LIG    1       -2.779   1.074   2.117  0.00  0.00    +0.430 HD
ATOM     13  H   LIG    1       -3.951   2.149   2.547  0.00  0.00    +0.440 HD
ATOM     14  H   LIG    1       -3.404   1.046   3.642  0.00  0.00    +0.420 HD
ENDBRANCH  10  11
ENDBRANCH   1  10
BRANCH   7  15
ATOM     15  C   LIG    1       -0.352   1.433  -0.314  0.00  0.00    +0.080 C 
BRANCH  15  16
ATOM     16  C   LIG    1       -1.261   1.975  -1.419  0.00  0.00    +0.200 C 
BRANCH  16  17
ATOM     17  O   LIG    1       -0.716   1.633  -2.695  0.00  0.00    -0.380 OA
BRANCH  17  18
ATOM     18  C   LIG    1       -1.493   2.096  -3.802  0.00  0.00    +0.150 C 
ATOM     19  C   LIG    1       -2.513   1.023  -4.195  0.00  0.00    -0.030 C 
ATOM     20  C   LIG    1       -3.287   1.494  -5.430  0.00  0.00    +0.210 C 
ATOM     21  O   LIG    1       -2.369   1.762  -6.492  0.00  0.00    -0.380 OA
ATOM     22  C   LIG    1       -1.421   2.790  -6.198  0.00  0.00    +0.220 C 
ATOM     23  C   LIG    1       -0.572   2.372  -4.994  0.00  0.00    +0.010 C 
ENDBRANCH  17  18
ENDBRANCH  16  17
ENDBRANCH  15  16
ENDBRANCH   7  15
TORSDOF 6
