REMARK  Name = ZINCqH0000034n8k.0
REMARK                            x       y       z     vdW  Elec       q    Type
REMARK                         _______ _______ _______ _____ _____    ______ ____
ROOT
ATOM      1  C   LIG    1       -1.185  -3.436  -0.004  0.00  0.00    +0.310 C 
ATOM      2  C   LIG    1       -1.823  -3.671  -1.389  0.00  0.00    +0.060 C 
ATOM      3  C   LIG    1       -3.202  -4.293  -1.032  0.00  0.00    +0.040 C 
ATOM      4  C   LIG    1       -3.559  -3.536   0.271  0.00  0.00    +0.260 C 
ATOM      5  N   LIG    1       -2.276  -3.377   0.979  0.00  0.00    -0.600 N 
ATOM      6  C   LIG    1       -2.128  -3.207   2.308  0.00  0.00    +0.540 C 
ATOM      7  O   LIG    1       -1.019  -3.087   2.784  0.00  0.00    -0.530 OA
ENDROOT
BRANCH   1  16
ATOM      8  N   LIG    1        0.932  -2.026  -0.017  0.00  0.00    -0.480 N 
ATOM      9  C   LIG    1        1.235  -0.679  -0.013  0.00  0.00    +0.050 A 
ATOM     10  C   LIG    1        2.418   0.046  -0.021  0.00  0.00    +0.010 A 
ATOM     11  C   LIG    1        2.376   1.424  -0.013  0.00  0.00    +0.030 A 
ATOM     12  C   LIG    1        1.158   2.090   0.002  0.00  0.00    +0.000 A 
ATOM     13  C   LIG    1       -0.017   1.393   0.010  0.00  0.00    +0.070 A 
ATOM     14  C   LIG    1        0.002  -0.004   0.002  0.00  0.00    +0.050 A 
ATOM     15  N   LIG    1       -0.968  -0.954   0.007  0.00  0.00    -0.480 NA
ATOM     16  C   LIG    1       -0.424  -2.135  -0.005  0.00  0.00    +0.280 A 
BRANCH   8  18
ATOM     17  C   LIG    1        2.241  -3.523   1.406  0.00  0.00    +0.030 C 
ATOM     18  C   LIG    1        1.893  -3.132  -0.032  0.00  0.00    +0.290 C 
ENDBRANCH   8  18
ENDBRANCH   1  16
BRANCH   6  19
ATOM     19  C   LIG    1       -3.340  -3.165   3.202  0.00  0.00    +0.080 C 
BRANCH  19  20
ATOM     20  C   LIG    1       -2.897  -2.964   4.652  0.00  0.00    +0.130 C 
BRANCH  20  21
ATOM     21  C   LIG    1       -4.110  -2.922   5.546  0.00  0.00    +0.130 A 
ATOM     22  C   LIG    1       -4.198  -3.789   6.619  0.00  0.00    -0.030 A 
ATOM     23  C   LIG    1       -5.317  -3.743   7.436  0.00  0.00    +0.070 A 
ATOM     24  C   LIG    1       -6.311  -2.822   7.141  0.00  0.00    -0.040 A 
ATOM     25  C   LIG    1       -6.154  -1.986   6.051  0.00  0.00    +0.260 A 
ATOM     26  N   LIG    1       -5.072  -2.055   5.300  0.00  0.00    -0.480 NA
ENDBRANCH  20  21
ENDBRANCH  19  20
ENDBRANCH   6  19
TORSDOF 5
