REMARK  Name = ZINCc70000002wfa.1
REMARK                            x       y       z     vdW  Elec       q    Type
REMARK                         _______ _______ _______ _____ _____    ______ ____
ROOT
ATOM      1  C   LIG    1        0.580  -2.606  -0.188  0.00  0.00    +0.570 A 
ATOM      2  N   LIG    1       -0.631  -2.239   0.203  0.00  0.00    -0.560 NA
ATOM      3  C   LIG    1       -0.950  -0.958   0.308  0.00  0.00    +0.380 A 
ATOM      4  C   LIG    1        0.002  -0.004   0.002  0.00  0.00    -0.280 A 
ATOM      5  C   LIG    1       -0.018   1.505   0.010  0.00  0.00    +0.250 C 
ATOM      6  N   LIG    1        1.402   1.924  -0.001  0.00  0.00    -0.660 NA
ATOM      7  H   LIG    1        1.521   2.785  -0.513  0.00  0.00    +0.350 HD
ATOM      8  C   LIG    1        2.099   0.805  -0.675  0.00  0.00    +0.280 C 
ATOM      9  C   LIG    1        1.261  -0.422  -0.405  0.00  0.00    +0.210 A 
ATOM     10  N   LIG    1        1.514  -1.715  -0.489  0.00  0.00    -0.560 NA
ENDROOT
BRANCH   1  12
ATOM     11  C   LIG    1       -0.141  -4.955   0.041  0.00  0.00    +0.300 C 
ATOM     12  N   LIG    1        0.877  -3.954  -0.286  0.00  0.00    -0.590 N 
ATOM     13  C   LIG    1        2.211  -4.381  -0.718  0.00  0.00    +0.300 C 
ENDBRANCH   1  12
TORSDOF 1
