REMARK  Name = ZINCrg000000nj6z.0
REMARK                            x       y       z     vdW  Elec       q    Type
REMARK                         _______ _______ _______ _____ _____    ______ ____
ROOT
ATOM      1  C   LIG    1       -0.234   5.279   1.023  0.00  0.00    +0.160 A 
ATOM      2  C   LIG    1       -0.931   5.820   2.102  0.00  0.00    +0.020 A 
ATOM      3  C   LIG    1       -1.476   4.970   3.052  0.00  0.00    +0.200 A 
ATOM      4  C   LIG    1       -1.299   3.600   2.882  0.00  0.00    -0.220 A 
ATOM      5  C   LIG    1       -1.843   2.619   3.840  0.00  0.00    +0.570 A 
ATOM      6  N   LIG    1       -1.628   1.307   3.602  0.00  0.00    -0.560 N 
ATOM      7  C   LIG    1       -0.939   0.902   2.524  0.00  0.00    +0.710 A 
ATOM      8  N   LIG    1       -0.423   1.754   1.622  0.00  0.00    -0.530 N 
ATOM      9  C   LIG    1        0.318   1.229   0.472  0.00  0.00    +0.340 C 
ATOM     10  O   LIG    1       -0.774  -0.291   2.355  0.00  0.00    -0.530 OA
ATOM     11  C   LIG    1       -2.156   0.309   4.535  0.00  0.00    +0.360 C 
ATOM     12  O   LIG    1       -2.468   2.982   4.818  0.00  0.00    -0.480 OA
ATOM     13  C   LIG    1       -0.578   3.122   1.770  0.00  0.00    +0.400 A 
ATOM     14  N   LIG    1       -0.081   3.968   0.888  0.00  0.00    -0.480 NA
ENDROOT
BRANCH   1  16
ATOM     15  N   LIG    1        0.932   5.679  -1.098  0.00  0.00    -0.580 N 
ATOM     16  C   LIG    1        0.350   6.188   0.006  0.00  0.00    +0.570 C 
ATOM     17  O   LIG    1        0.302   7.391   0.168  0.00  0.00    -0.510 OA
BRANCH  15  19
ATOM     18  C   LIG    1       -0.494   3.818  -1.795  0.00  0.00    +0.020 C 
ATOM     19  C   LIG    1        0.906   4.234  -1.339  0.00  0.00    +0.250 C 
ATOM     20  C   LIG    1        1.922   3.881  -2.427  0.00  0.00    +0.040 C 
ENDBRANCH  15  19
BRANCH  15  21
ATOM     21  C   LIG    1        1.590   6.571  -2.056  0.00  0.00    +0.350 C 
BRANCH  21  22
ATOM     22  C   LIG    1        0.574   7.088  -3.041  0.00  0.00    -0.160 A 
ATOM     23  C   LIG    1        0.297   6.382  -4.201  0.00  0.00    +0.070 A 
ATOM     24  C   LIG    1       -0.650   6.894  -5.075  0.00  0.00    -0.040 A 
ATOM     25  C   LIG    1       -1.273   8.088  -4.769  0.00  0.00    +0.260 A 
ATOM     26  N   LIG    1       -0.981   8.736  -3.658  0.00  0.00    -0.490 NA
ATOM     27  C   LIG    1       -0.091   8.277  -2.801  0.00  0.00    +0.290 A 
ENDBRANCH  21  22
ENDBRANCH  15  21
ENDBRANCH   1  16
TORSDOF 4
