REMARK  Name = ZINCpk00000kQ6vx.0
REMARK                            x       y       z     vdW  Elec       q    Type
REMARK                         _______ _______ _______ _____ _____    ______ ____
ROOT
ATOM      1  N   LIG    1        3.283   6.001   1.077  0.00  0.00    -0.710 N 
ATOM      2  H   LIG    1        4.178   5.633   1.023  0.00  0.00    +0.410 HD
ATOM      3  C   LIG    1        2.234   5.295   0.608  0.00  0.00    +0.500 C 
ATOM      4  O   LIG    1        1.114   5.755   0.677  0.00  0.00    -0.510 OA
ENDROOT
BRANCH   1   8
ATOM      5  C   LIG    1        4.364  10.345   2.395  0.00  0.00    +0.630 C 
ATOM      6  N   LIG    1        4.078   9.087   2.004  0.00  0.00    -0.640 N 
ATOM      7  C   LIG    1        4.187   7.758   2.635  0.00  0.00    +0.310 C 
ATOM      8  C   LIG    1        3.069   7.323   1.670  0.00  0.00    +0.250 C 
ATOM      9  C   LIG    1        3.526   8.486   0.771  0.00  0.00    +0.270 C 
ATOM     10  O   LIG    1        4.822  10.548   3.504  0.00  0.00    -0.510 OA
BRANCH   5  13
ATOM     11  C   LIG    1        4.921  13.259   3.062  0.00  0.00    +0.170 C 
ATOM     12  C   LIG    1        4.360  12.778   1.748  0.00  0.00    +0.150 A 
ATOM     13  C   LIG    1        4.124  11.469   1.483  0.00  0.00    -0.300 A 
ATOM     14  S   LIG    1        3.469  11.361  -0.149  0.00  0.00    +0.160 S 
ATOM     15  C   LIG    1        3.582  13.059  -0.317  0.00  0.00    +0.250 A 
ATOM     16  N   LIG    1        4.063  13.587   0.762  0.00  0.00    -0.480 NA
ENDBRANCH   5  13
ENDBRANCH   1   8
BRANCH   3  17
ATOM     17  C   LIG    1        2.454   3.935  -0.001  0.00  0.00    +0.170 C 
ATOM     18  C   LIG    1        2.816   4.090  -1.480  0.00  0.00    +0.100 C 
BRANCH  17  19
ATOM     19  C   LIG    1        1.193   3.119   0.124  0.00  0.00    -0.090 A 
ATOM     20  C   LIG    1        1.166   2.011   0.951  0.00  0.00    +0.010 A 
ATOM     21  C   LIG    1        0.010   1.262   1.066  0.00  0.00    +0.050 A 
ATOM     22  C   LIG    1       -1.118   1.615   0.351  0.00  0.00    -0.010 A 
ATOM     23  C   LIG    1       -1.094   2.728  -0.473  0.00  0.00    +0.100 A 
ATOM     24  F   LIG    1       -2.198   3.078  -1.169  0.00  0.00    -0.140 F 
ATOM     25  C   LIG    1        0.065   3.478  -0.589  0.00  0.00    +0.030 A 
ENDBRANCH  17  19
BRANCH  17  26
ATOM     26  O   LIG    1        3.520   3.273   0.683  0.00  0.00    -0.540 OA
ATOM     27  H   LIG    1        3.358   3.140   1.627  0.00  0.00    +0.380 HD
ENDBRANCH  17  26
ENDBRANCH   3  17
TORSDOF 5
