REMARK  Name = ZINCpe00000MJM6h.1
REMARK                            x       y       z     vdW  Elec       q    Type
REMARK                         _______ _______ _______ _____ _____    ______ ____
ROOT
ATOM      1  C   LIG    1        0.033  -3.298  -1.561  0.00  0.00    +0.310 C 
ATOM      2  C   LIG    1        1.480  -3.655  -1.966  0.00  0.00    +0.160 C 
ATOM      3  C   LIG    1        1.867  -4.685  -0.880  0.00  0.00    +0.070 C 
ATOM      4  C   LIG    1        0.543  -5.258  -0.424  0.00  0.00    +0.530 C 
ATOM      5  O   LIG    1        0.411  -6.284   0.209  0.00  0.00    -0.530 OA
ATOM      6  N   LIG    1       -0.468  -4.465  -0.825  0.00  0.00    -0.610 N 
ATOM      7  C   LIG    1       -1.885  -4.729  -0.560  0.00  0.00    +0.310 C 
ENDROOT
BRANCH   1  10
ATOM      8  C   LIG    1       -0.030  -0.323  -2.525  0.00  0.00    +0.150 C 
ATOM      9  C   LIG    1       -0.003  -0.792  -1.093  0.00  0.00    +0.100 A 
ATOM     10  C   LIG    1        0.024  -2.079  -0.676  0.00  0.00    -0.260 A 
ATOM     11  C   LIG    1        0.037  -2.077   0.723  0.00  0.00    +0.250 A 
ATOM     12  N   LIG    1        0.024  -0.834   1.130  0.00  0.00    -0.290 NA
ATOM     13  N   LIG    1        0.002  -0.004   0.002  0.00  0.00    -0.370 N 
ATOM     14  C   LIG    1       -0.018   1.461   0.010  0.00  0.00    +0.360 C 
ENDBRANCH   1  10
BRANCH   2  15
ATOM     15  N   LIG    1        1.518  -4.262  -3.304  0.00  0.00    -0.680 NA
ATOM     16  H   LIG    1        0.778  -3.899  -3.886  0.00  0.00    +0.350 HD
BRANCH  15  17
ATOM     17  C   LIG    1        2.830  -4.064  -3.934  0.00  0.00    +0.290 C 
BRANCH  17  18
ATOM     18  C   LIG    1        2.830  -4.698  -5.301  0.00  0.00    -0.050 A 
ATOM     19  C   LIG    1        2.572  -4.076  -6.477  0.00  0.00    +0.240 A 
ATOM     20  N   LIG    1        2.670  -4.970  -7.462  0.00  0.00    -0.460 NA
ATOM     21  C   LIG    1        2.984  -6.148  -6.948  0.00  0.00    +0.160 A 
ATOM     22  C   LIG    1        3.208  -7.419  -7.515  0.00  0.00    +0.380 A 
ATOM     23  N   LIG    1        3.511  -8.432  -6.739  0.00  0.00    -0.460 NA
ATOM     24  C   LIG    1        3.614  -8.287  -5.415  0.00  0.00    +0.220 A 
ATOM     25  C   LIG    1        3.409  -7.091  -4.824  0.00  0.00    +0.190 A 
ATOM     26  N   LIG    1        3.096  -6.002  -5.587  0.00  0.00    -0.330 N 
ENDBRANCH  17  18
ENDBRANCH  15  17
ENDBRANCH   2  15
TORSDOF 4
