REMARK  Name = ZINCrg00000SjSnX.0
REMARK                            x       y       z     vdW  Elec       q    Type
REMARK                         _______ _______ _______ _____ _____    ______ ____
ROOT
ATOM      1  N   LIG    1       -5.505   1.931   2.158  0.00  0.00    -1.120 NA
ATOM      2  S   LIG    1       -6.920   1.454   2.162  0.00  0.00    +2.290 S 
ATOM      3  C   LIG    1       -7.737   2.119   0.677  0.00  0.00    -0.270 C 
ATOM      4  C   LIG    1       -7.807   3.646   0.815  0.00  0.00    +0.110 C 
ATOM      5  C   LIG    1       -8.624   4.016   2.051  0.00  0.00    +0.080 C 
ATOM      6  C   LIG    1       -8.983   5.507   1.993  0.00  0.00    +0.300 C 
ATOM      7  N   LIG    1       -9.928   5.799   3.083  0.00  0.00    -0.620 N 
ATOM      8  C   LIG    1      -11.114   4.940   3.219  0.00  0.00    +0.250 C 
ATOM      9  C   LIG    1      -10.655   3.477   3.213  0.00  0.00    +0.220 C 
ATOM     10  C   LIG    1       -9.712   6.824   3.931  0.00  0.00    +0.550 C 
ATOM     11  O   LIG    1       -8.728   7.521   3.802  0.00  0.00    -0.530 OA
ATOM     12  C   LIG    1       -7.832   3.739   3.327  0.00  0.00    +0.070 C 
ATOM     13  O   LIG    1       -9.831   3.248   2.067  0.00  0.00    -0.370 OA
ATOM     14  O   LIG    1       -6.894   0.034   2.215  0.00  0.00    -0.920 OA
ATOM     15  C   LIG    1       -7.766   2.228   3.577  0.00  0.00    -0.170 C 
ENDROOT
BRANCH  10  16
ATOM     16  C   LIG    1      -10.694   7.104   5.039  0.00  0.00    -0.070 C 
ATOM     17  C   LIG    1      -11.525   8.385   4.940  0.00  0.00    +0.060 C 
ATOM     18  C   LIG    1      -10.395   8.283   5.967  0.00  0.00    +0.070 C 
ENDBRANCH  10  16
BRANCH   1  20
ATOM     19  O   LIG    1       -5.059   0.761   0.348  0.00  0.00    -0.580 OA
ATOM     20  C   LIG    1       -4.672   1.523   1.213  0.00  0.00    +0.560 C 
BRANCH  20  21
ATOM     21  C   LIG    1       -3.244   2.004   1.209  0.00  0.00    +0.090 C 
BRANCH  21  22
ATOM     22  C   LIG    1       -2.502   1.389   0.021  0.00  0.00    +0.330 C 
BRANCH  22  23
ATOM     23  N   LIG    1       -1.113   1.857   0.017  0.00  0.00    -0.370 N 
ATOM     24  C   LIG    1       -0.013   1.076   0.008  0.00  0.00    +0.220 A 
ATOM     25  C   LIG    1        1.069   1.888   0.002  0.00  0.00    -0.130 A 
ATOM     26  C   LIG    1        0.614   3.211   0.013  0.00  0.00    +0.220 A 
ATOM     27  N   LIG    1       -0.694   3.193   0.025  0.00  0.00    -0.300 NA
ENDBRANCH  22  23
ENDBRANCH  21  22
ENDBRANCH  20  21
ENDBRANCH   1  20
TORSDOF 5
