REMARK  Name = ZINCrH000004mU3t.0
REMARK                            x       y       z     vdW  Elec       q    Type
REMARK                         _______ _______ _______ _____ _____    ______ ____
ROOT
ATOM      1  N   LIG    1        2.405   4.102   0.584  0.00  0.00    -0.730 N 
ATOM      2  H   LIG    1        3.223   3.589   0.489  0.00  0.00    +0.400 HD
ATOM      3  C   LIG    1        2.419   5.276   1.245  0.00  0.00    +0.520 C 
ATOM      4  O   LIG    1        1.396   5.917   1.364  0.00  0.00    -0.510 OA
ENDROOT
BRANCH   1   5
ATOM      5  C   LIG    1        1.155   3.599   0.010  0.00  0.00    +0.310 C 
ATOM      6  C   LIG    1        0.974   4.171  -1.398  0.00  0.00    +0.040 C 
BRANCH   5  11
ATOM      7  C   LIG    1        2.463   0.063  -0.237  0.00  0.00    +0.100 A 
ATOM      8  C   LIG    1        1.288  -0.672  -0.193  0.00  0.00    -0.040 A 
ATOM      9  C   LIG    1        0.072  -0.025  -0.084  0.00  0.00    -0.030 A 
ATOM     10  C   LIG    1        0.028   1.360  -0.018  0.00  0.00    +0.100 A 
ATOM     11  C   LIG    1        1.203   2.095  -0.061  0.00  0.00    -0.080 A 
ATOM     12  C   LIG    1        2.418   1.448  -0.171  0.00  0.00    +0.030 A 
BRANCH   7  14
ATOM     13  C   LIG    1        3.631  -2.002  -0.407  0.00  0.00    +0.250 C 
ATOM     14  O   LIG    1        3.660  -0.575  -0.344  0.00  0.00    -0.320 OA
ENDBRANCH   7  14
BRANCH  10  15
ATOM     15  O   LIG    1       -1.169   1.997   0.084  0.00  0.00    -0.310 OA
ATOM     16  C   LIG    1       -2.340   1.178   0.117  0.00  0.00    +0.250 C 
ENDBRANCH  10  15
ENDBRANCH   5  11
ENDBRANCH   1   5
BRANCH   3  17
ATOM     17  C   LIG    1        3.705   5.793   1.836  0.00  0.00    +0.220 C 
BRANCH  17  18
ATOM     18  O   LIG    1        3.464   7.045   2.481  0.00  0.00    -0.350 OA
BRANCH  18  19
ATOM     19  C   LIG    1        4.626   7.625   3.078  0.00  0.00    +0.310 C 
BRANCH  19  20
ATOM     20  C   LIG    1        4.257   8.935   3.725  0.00  0.00    +0.080 A 
ATOM     21  N   LIG    1        3.864   9.054   4.936  0.00  0.00    -0.450 NA
ATOM     22  C   LIG    1        3.571  10.290   5.385  0.00  0.00    +0.080 A 
ATOM     23  C   LIG    1        3.127  10.705   6.656  0.00  0.00    +0.080 A 
ATOM     24  C   LIG    1        2.880  12.021   6.905  0.00  0.00    +0.030 A 
ATOM     25  C   LIG    1        3.059  12.976   5.915  0.00  0.00    +0.040 A 
ATOM     26  C   LIG    1        3.493  12.600   4.663  0.00  0.00    +0.060 A 
ATOM     27  C   LIG    1        3.751  11.259   4.391  0.00  0.00    -0.180 A 
ATOM     28  S   LIG    1        4.305  10.445   2.931  0.00  0.00    +0.130 S 
ENDBRANCH  19  20
ENDBRANCH  18  19
ENDBRANCH  17  18
ENDBRANCH   3  17
TORSDOF 8
