REMARK  Name = ZINCbu0000000Gx0.0
REMARK                            x       y       z     vdW  Elec       q    Type
REMARK                         _______ _______ _______ _____ _____    ______ ____
ROOT
ATOM      1  C   LIG    1        0.661  -0.592   1.630  0.00  0.00    -0.070 C 
ATOM      2  C   LIG    1       -0.285   0.124   0.661  0.00  0.00    +0.060 C 
ATOM      3  C   LIG    1       -0.380   1.601   1.047  0.00  0.00    +0.250 C 
ATOM      4  N   LIG    1        0.951   2.216   0.978  0.00  0.00    -0.500 N 
ATOM      5  C   LIG    1        1.844   1.582   1.956  0.00  0.00    +0.250 C 
ATOM      6  H   LIG    1        0.876   3.201   1.181  0.00  0.00    +0.430 HD
ATOM      7  H   LIG    1        1.329   2.093   0.050  0.00  0.00    +0.430 HD
ATOM      8  C   LIG    1        0.083  -0.533   3.045  0.00  0.00    +0.030 C 
ATOM      9  C   LIG    1        2.025   0.104   1.604  0.00  0.00    +0.060 C 
ENDROOT
BRANCH   1  10
ATOM     10  C   LIG    1        0.823  -2.052   1.202  0.00  0.00    +0.030 C 
BRANCH  10  12
ATOM     11  C   LIG    1       -1.130  -2.414  -0.313  0.00  0.00    +0.010 C 
ATOM     12  C   LIG    1       -0.556  -2.703   1.075  0.00  0.00    -0.030 C 
ATOM     13  C   LIG    1       -0.426  -4.215   1.270  0.00  0.00    +0.030 C 
ENDBRANCH  10  12
ENDBRANCH   1  10
TORSDOF 2
