REMARK  Name = ZINCbw0000000Hi0.0
REMARK                            x       y       z     vdW  Elec       q    Type
REMARK                         _______ _______ _______ _____ _____    ______ ____
ROOT
ATOM      1  C   LIG    1        2.028   1.134  -1.242  0.00  0.00    -0.140 A 
ATOM      2  C   LIG    1        1.699  -0.052  -1.869  0.00  0.00    +0.060 A 
ATOM      3  C   LIG    1        2.379  -0.445  -3.007  0.00  0.00    +0.050 A 
ATOM      4  C   LIG    1        3.390   0.348  -3.518  0.00  0.00    -0.070 A 
ATOM      5  C   LIG    1        3.721   1.536  -2.891  0.00  0.00    +0.030 A 
ATOM      6 BR   LIG    1        4.320  -0.191  -5.074  0.00  0.00    -0.030 Br
ATOM      7  C   LIG    1        3.037   1.932  -1.756  0.00  0.00    +0.110 A 
ATOM      8  F   LIG    1        3.355   3.095  -1.145  0.00  0.00    -0.130 F 
ENDROOT
BRANCH   1  10
ATOM      9  C   LIG    1        2.064   1.114   1.238  0.00  0.00    +0.020 C 
ATOM     10  C   LIG    1        1.286   1.562  -0.002  0.00  0.00    +0.260 C 
BRANCH  10  11
ATOM     11  O   LIG    1       -0.011   0.963   0.007  0.00  0.00    -0.550 OA
ATOM     12  H   LIG    1        0.002  -0.004   0.002  0.00  0.00    +0.380 HD
ENDBRANCH  10  11
ENDBRANCH   1  10
TORSDOF 2
