REMARK  Name = ZINCqH0000050Fx1.0
REMARK                            x       y       z     vdW  Elec       q    Type
REMARK                         _______ _______ _______ _____ _____    ______ ____
ROOT
ATOM      1  C   LIG    1       -0.324  -5.807   8.739  0.00  0.00    +0.200 C 
ATOM      2  C   LIG    1       -0.518  -5.013   7.473  0.00  0.00    +0.190 A 
ATOM      3  N   LIG    1       -1.266  -3.956   7.332  0.00  0.00    -0.280 NA
ATOM      4  N   LIG    1       -1.202  -3.528   6.122  0.00  0.00    -0.290 NA
ATOM      5  C   LIG    1       -0.401  -4.295   5.419  0.00  0.00    +0.140 A 
ATOM      6  N   LIG    1        0.056  -5.271   6.259  0.00  0.00    -0.460 N 
ENDROOT
BRANCH   5   7
ATOM      7  S   LIG    1        0.001  -4.107   3.714  0.00  0.00    +0.080 S 
BRANCH   7   8
ATOM      8  C   LIG    1       -0.977  -2.636   3.321  0.00  0.00    +0.120 C 
BRANCH   8   9
ATOM      9  C   LIG    1       -0.783  -2.278   1.870  0.00  0.00    +0.530 C 
ATOM     10  N   LIG    1       -1.419  -1.209   1.349  0.00  0.00    -0.600 N 
ATOM     11  C   LIG    1       -2.384  -0.463   2.161  0.00  0.00    +0.300 C 
ATOM     12  O   LIG    1       -0.056  -2.950   1.171  0.00  0.00    -0.520 OA
BRANCH  10  13
ATOM     13  C   LIG    1       -1.145  -0.794  -0.029  0.00  0.00    +0.390 C 
BRANCH  13  14
ATOM     14  C   LIG    1        0.068   0.099  -0.053  0.00  0.00    -0.210 A 
ATOM     15  C   LIG    1        0.043   1.432  -0.025  0.00  0.00    -0.090 A 
ATOM     16  C   LIG    1        1.286   2.040  -0.057  0.00  0.00    +0.000 A 
ATOM     17  C   LIG    1        2.321   1.201  -0.110  0.00  0.00    -0.050 A 
ATOM     18  C   LIG    1       -1.242   2.217   0.037  0.00  0.00    +0.110 C 
ATOM     19  S   LIG    1        1.735  -0.458  -0.123  0.00  0.00    +0.130 S 
ENDBRANCH  13  14
ENDBRANCH  10  13
ENDBRANCH   8   9
ENDBRANCH   7   8
ENDBRANCH   5   7
BRANCH   6  20
ATOM     20  C   LIG    1        0.973  -6.364   5.928  0.00  0.00    +0.370 C 
BRANCH  20  21
ATOM     21  C   LIG    1        2.393  -5.919   6.167  0.00  0.00    -0.120 A 
ATOM     22  C   LIG    1        3.111  -5.324   5.146  0.00  0.00    +0.040 A 
ATOM     23  C   LIG    1        4.412  -4.911   5.367  0.00  0.00    +0.010 A 
ATOM     24  C   LIG    1        4.997  -5.103   6.604  0.00  0.00    +0.020 A 
ATOM     25  C   LIG    1        4.281  -5.702   7.623  0.00  0.00    +0.010 A 
ATOM     26  C   LIG    1        2.978  -6.111   7.404  0.00  0.00    +0.020 A 
ENDBRANCH  20  21
ENDBRANCH   6  20
TORSDOF 7
