REMARK  Name = ZINCpe000027pH49.0
REMARK                            x       y       z     vdW  Elec       q    Type
REMARK                         _______ _______ _______ _____ _____    ______ ____
ROOT
ATOM      1  N   LIG    1       -1.226   1.991   0.019  0.00  0.00    -0.450 N 
ATOM      2  C   LIG    1       -2.363   1.042  -0.095  0.00  0.00    +0.250 C 
ATOM      3  C   LIG    1       -3.538   1.902  -0.606  0.00  0.00    +0.270 C 
ATOM      4  C   LIG    1       -2.878   3.102  -1.317  0.00  0.00    +0.270 C 
ATOM      5  C   LIG    1       -1.359   2.865  -1.176  0.00  0.00    +0.200 C 
ENDROOT
BRANCH   1  11
ATOM      6  C   LIG    1        1.188   2.046   0.002  0.00  0.00    -0.090 A 
ATOM      7  C   LIG    1        2.398   1.345  -0.014  0.00  0.00    +0.150 A 
ATOM      8  C   LIG    1        2.356  -0.039  -0.021  0.00  0.00    -0.040 A 
ATOM      9  C   LIG    1        1.133  -0.683  -0.012  0.00  0.00    +0.330 A 
ATOM     10  N   LIG    1        0.002  -0.004   0.002  0.00  0.00    -0.510 NA
ATOM     11  C   LIG    1       -0.016   1.319   0.009  0.00  0.00    +0.350 A 
BRANCH   6  13
ATOM     12  N   LIG    1        1.165   4.614   0.017  0.00  0.00    -0.390 NA
ATOM     13  C   LIG    1        1.175   3.478   0.010  0.00  0.00    +0.250 C 
ENDBRANCH   6  13
ENDBRANCH   1  11
BRANCH   3  14
ATOM     14  N   LIG    1       -4.357   1.139  -1.551  0.00  0.00    -0.290 N 
ATOM     15  C   LIG    1       -3.912   0.169  -2.382  0.00  0.00    +0.130 A 
ATOM     16  C   LIG    1       -4.995  -0.265  -3.069  0.00  0.00    +0.150 A 
ATOM     17  N   LIG    1       -6.034   0.457  -2.636  0.00  0.00    -0.260 NA
ATOM     18  N   LIG    1       -5.623   1.280  -1.737  0.00  0.00    -0.070 NA
ENDBRANCH   3  14
BRANCH   4  19
ATOM     19  N   LIG    1       -3.259   3.128  -2.731  0.00  0.00    -0.730 N 
ATOM     20  H   LIG    1       -3.566   2.317  -3.166  0.00  0.00    +0.400 HD
ATOM     21  C   LIG    1       -3.184   4.279  -3.428  0.00  0.00    +0.530 C 
ATOM     22  O   LIG    1       -2.800   5.293  -2.885  0.00  0.00    -0.520 OA
BRANCH  21  23
ATOM     23  C   LIG    1       -3.576   4.306  -4.883  0.00  0.00    -0.030 C 
ATOM     24  C   LIG    1       -2.475   3.796  -5.828  0.00  0.00    +0.040 C 
ATOM     25  C   LIG    1       -2.878   4.935  -6.782  0.00  0.00    +0.030 C 
ATOM     26  C   LIG    1       -3.399   5.683  -5.544  0.00  0.00    +0.050 C 
ENDBRANCH  21  23
ENDBRANCH   4  19
TORSDOF 5
