REMARK  Name = ZINCkj000005k7sV.0
REMARK                            x       y       z     vdW  Elec       q    Type
REMARK                         _______ _______ _______ _____ _____    ______ ____
ROOT
ATOM      1  C   LIG    1       -0.470  -1.827  -1.544  0.00  0.00    +0.600 C 
ATOM      2  N   LIG    1        0.006  -0.583  -1.344  0.00  0.00    -0.720 N 
ATOM      3  H   LIG    1        0.352  -0.070  -2.091  0.00  0.00    +0.400 HD
ATOM      4  O   LIG    1       -0.905  -2.470  -0.607  0.00  0.00    -0.490 OA
ENDROOT
BRANCH   1   7
ATOM      5  C   LIG    1       -1.502  -4.723  -2.361  0.00  0.00    +0.160 C 
ATOM      6  C   LIG    1       -0.913  -3.667  -3.260  0.00  0.00    -0.050 A 
ATOM      7  C   LIG    1       -0.466  -2.409  -2.895  0.00  0.00    -0.050 A 
ATOM      8  N   LIG    1       -0.015  -1.817  -4.041  0.00  0.00    -0.360 N 
ATOM      9  H   LIG    1        0.363  -0.926  -4.098  0.00  0.00    +0.450 HD
ATOM     10  N   LIG    1       -0.167  -2.622  -5.031  0.00  0.00    -0.190 NA
ATOM     11  C   LIG    1       -0.703  -3.749  -4.638  0.00  0.00    -0.070 A 
BRANCH  11  12
ATOM     12  C   LIG    1       -1.030  -4.929  -5.517  0.00  0.00    +0.560 C 
ATOM     13  F   LIG    1       -2.415  -5.122  -5.543  0.00  0.00    -0.160 F 
ATOM     14  F   LIG    1       -0.409  -6.075  -5.008  0.00  0.00    -0.160 F 
ATOM     15  F   LIG    1       -0.569  -4.686  -6.815  0.00  0.00    -0.160 F 
ENDBRANCH  11  12
ENDBRANCH   1   7
BRANCH   2  16
ATOM     16  C   LIG    1        0.002  -0.004   0.002  0.00  0.00    +0.260 C 
ATOM     17  C   LIG    1       -0.019   1.535   0.011  0.00  0.00    +0.110 C 
ATOM     18  C   LIG    1        1.512   1.472  -0.004  0.00  0.00    -0.150 C 
ATOM     19  C   LIG    1        2.473   1.941  -1.092  0.00  0.00    +0.140 C 
ATOM     20  C   LIG    1        2.512   2.583   0.298  0.00  0.00    +0.120 C 
ATOM     21  C   LIG    1        1.400   0.086   0.638  0.00  0.00    +0.070 C 
BRANCH  20  22
ATOM     22  N   LIG    1        3.651   2.252   1.165  0.00  0.00    -0.610 N 
ATOM     23  H   LIG    1        3.311   1.947   2.065  0.00  0.00    +0.440 HD
ATOM     24  H   LIG    1        4.231   3.069   1.284  0.00  0.00    +0.440 HD
ATOM     25  H   LIG    1        4.193   1.514   0.743  0.00  0.00    +0.430 HD
ENDBRANCH  20  22
ENDBRANCH   2  16
TORSDOF 4
