REMARK  Name = ZINCpk00000y6ww2.0
REMARK                            x       y       z     vdW  Elec       q    Type
REMARK                         _______ _______ _______ _____ _____    ______ ____
ROOT
ATOM      1  N   LIG    1        0.432   4.102  -1.152  0.00  0.00    -0.710 N 
ATOM      2  H   LIG    1        1.192   3.538  -1.365  0.00  0.00    +0.410 HD
ATOM      3  C   LIG    1        0.602   5.428  -0.987  0.00  0.00    +0.500 C 
ATOM      4  O   LIG    1       -0.348   6.133  -0.720  0.00  0.00    -0.490 OA
ENDROOT
BRANCH   3   5
ATOM      5  C   LIG    1        1.973   6.036  -1.135  0.00  0.00    +0.260 C 
ATOM      6  C   LIG    1        2.937   5.455  -0.057  0.00  0.00    +0.140 C 
ATOM      7  S   LIG    1        4.284   6.708  -0.093  0.00  0.00    -0.250 S 
ATOM      8  C   LIG    1        3.294   8.035  -0.872  0.00  0.00    +0.170 C 
ATOM      9  C   LIG    1        3.220   9.261   0.055  0.00  0.00    +0.090 C 
ATOM     10  C   LIG    1        1.767   9.734  -0.193  0.00  0.00    +0.080 C 
ATOM     11  C   LIG    1        1.037   8.486  -0.637  0.00  0.00    +0.540 C 
ATOM     12  O   LIG    1       -0.167   8.392  -0.753  0.00  0.00    -0.470 OA
ATOM     13  C   LIG    1        3.787   8.403  -2.272  0.00  0.00    +0.080 C 
ATOM     14  N   LIG    1        1.913   7.493  -0.888  0.00  0.00    -0.620 N 
ENDBRANCH   3   5
BRANCH   1  15
ATOM     15  C   LIG    1       -0.901   3.510  -1.008  0.00  0.00    +0.280 C 
BRANCH  15  16
ATOM     16  C   LIG    1       -0.801   1.990  -1.141  0.00  0.00    +0.090 C 
ATOM     17  C   LIG    1       -2.168   1.363  -0.860  0.00  0.00    +0.020 C 
ATOM     18  C   LIG    1       -0.356   1.629  -2.560  0.00  0.00    +0.050 C 
BRANCH  16  22
ATOM     19  C   LIG    1        0.477   1.671   3.602  0.00  0.00    +0.050 C 
ATOM     20  C   LIG    1        0.891   1.352   2.163  0.00  0.00    +0.160 C 
ATOM     21  C   LIG    1       -0.186   1.853   1.198  0.00  0.00    +0.160 C 
ATOM     22  N   LIG    1        0.180   1.477  -0.175  0.00  0.00    -0.520 NA
ATOM     23  C   LIG    1        0.325   0.019  -0.294  0.00  0.00    +0.160 C 
ATOM     24  C   LIG    1        1.397  -0.464   0.686  0.00  0.00    +0.190 C 
ATOM     25  C   LIG    1        2.747   0.152   0.312  0.00  0.00    +0.020 C 
ATOM     26  O   LIG    1        1.040  -0.062   2.011  0.00  0.00    -0.380 OA
ENDBRANCH  16  22
ENDBRANCH  15  16
ENDBRANCH   1  15
TORSDOF 4
