REMARK  Name = ZINCpe000000WH6b.0
REMARK                            x       y       z     vdW  Elec       q    Type
REMARK                         _______ _______ _______ _____ _____    ______ ____
ROOT
ATOM      1  C   LIG    1       -2.539   1.439  -0.347  0.00  0.00    +0.600 C 
ATOM      2  N   LIG    1       -3.528   2.327  -0.124  0.00  0.00    -0.710 N 
ATOM      3  H   LIG    1       -3.325   3.274  -0.065  0.00  0.00    +0.410 HD
ATOM      4  O   LIG    1       -2.793   0.251  -0.420  0.00  0.00    -0.520 OA
ENDROOT
BRANCH   1   8
ATOM      5  C   LIG    1        0.584   3.232  -0.633  0.00  0.00    +0.000 A 
ATOM      6  C   LIG    1        1.041   1.974  -0.817  0.00  0.00    -0.030 A 
ATOM      7  C   LIG    1       -0.066   1.115  -0.731  0.00  0.00    +0.040 A 
ATOM      8  C   LIG    1       -1.157   1.904  -0.502  0.00  0.00    -0.070 A 
ATOM      9  O   LIG    1       -0.740   3.186  -0.440  0.00  0.00    -0.150 OA
BRANCH   5  10
ATOM     10  C   LIG    1        1.427   4.482  -0.644  0.00  0.00    +0.390 C 
BRANCH  10  11
ATOM     11  N   LIG    1        1.497   5.012  -2.008  0.00  0.00    -1.120 NA
ATOM     12  H   LIG    1        1.231   4.457  -2.758  0.00  0.00    +0.420 HD
BRANCH  11  14
ATOM     13  C   LIG    1        3.767   6.531  -1.741  0.00  0.00    -0.280 C 
ATOM     14  S   LIG    1        2.032   6.557  -2.269  0.00  0.00    +2.610 S 
ATOM     15  O   LIG    1        1.253   7.351  -1.384  0.00  0.00    -0.950 OA
ATOM     16  O   LIG    1        1.941   6.726  -3.677  0.00  0.00    -0.950 OA
ENDBRANCH  11  14
ENDBRANCH  10  11
ENDBRANCH   5  10
ENDBRANCH   1   8
BRANCH   2  17
ATOM     17  C   LIG    1       -4.909   1.862   0.031  0.00  0.00    +0.270 C 
BRANCH  17  18
ATOM     18  C   LIG    1       -5.840   3.068   0.167  0.00  0.00    +0.170 C 
ATOM     19  C   LIG    1       -5.802   3.923  -1.117  0.00  0.00    +0.070 C 
ATOM     20  C   LIG    1       -7.255   4.432  -1.221  0.00  0.00    +0.090 C 
ATOM     21  C   LIG    1       -8.090   3.393  -0.502  0.00  0.00    -0.070 A 
ATOM     22  C   LIG    1       -9.453   3.154  -0.543  0.00  0.00    +0.010 A 
ATOM     23  C   LIG    1      -10.003   2.135   0.211  0.00  0.00    +0.020 A 
ATOM     24  C   LIG    1       -9.190   1.351   1.008  0.00  0.00    +0.010 A 
ATOM     25  C   LIG    1       -7.830   1.589   1.050  0.00  0.00    +0.030 A 
ATOM     26  C   LIG    1       -7.277   2.610   0.295  0.00  0.00    -0.140 A 
BRANCH  18  27
ATOM     27  O   LIG    1       -5.468   3.856   1.300  0.00  0.00    -0.540 OA
ATOM     28  H   LIG    1       -5.496   3.375   2.139  0.00  0.00    +0.380 HD
ENDBRANCH  18  27
ENDBRANCH  17  18
ENDBRANCH   2  17
TORSDOF 7
