REMARK  Name = ZINCkj000005iCbh.0
REMARK                            x       y       z     vdW  Elec       q    Type
REMARK                         _______ _______ _______ _____ _____    ______ ____
ROOT
ATOM      1  C   LIG    1        0.022  -0.514   1.420  0.00  0.00    +0.520 C 
ATOM      2  N   LIG    1        0.043  -1.840   1.659  0.00  0.00    -0.730 N 
ATOM      3  H   LIG    1        0.044  -2.466   0.918  0.00  0.00    +0.410 HD
ATOM      4  O   LIG    1        0.021   0.269   2.346  0.00  0.00    -0.510 OA
ENDROOT
BRANCH   2   5
ATOM      5  C   LIG    1        0.063  -2.336   3.037  0.00  0.00    +0.230 C 
ATOM      6  C   LIG    1       -0.528  -3.748   3.082  0.00  0.00    +0.070 C 
ATOM      7  C   LIG    1       -0.431  -4.290   4.510  0.00  0.00    +0.290 C 
ATOM      8  N   LIG    1        0.975  -4.333   4.927  0.00  0.00    -0.510 N 
ATOM      9  C   LIG    1        1.528  -2.974   4.955  0.00  0.00    +0.270 C 
ATOM     10  H   LIG    1        1.502  -4.894   4.274  0.00  0.00    +0.430 HD
ATOM     11  H   LIG    1        1.040  -4.741   5.848  0.00  0.00    +0.440 HD
ATOM     12  C   LIG    1        1.507  -2.381   3.545  0.00  0.00    +0.180 C 
ATOM     13  F   LIG    1        2.277  -3.178   2.692  0.00  0.00    -0.190 F 
ENDBRANCH   2   5
BRANCH   1  14
ATOM     14  C   LIG    1        0.002  -0.004   0.002  0.00  0.00    +0.120 C 
BRANCH  14  17
ATOM     15  C   LIG    1        1.149   3.596   0.010  0.00  0.00    +0.130 A 
ATOM     16  C   LIG    1        1.169   2.209   0.003  0.00  0.00    -0.070 A 
ATOM     17  C   LIG    1       -0.018   1.503   0.010  0.00  0.00    -0.050 A 
ATOM     18  C   LIG    1       -1.225   2.177   0.020  0.00  0.00    -0.020 A 
ATOM     19  C   LIG    1       -1.247   3.560   0.033  0.00  0.00    +0.050 A 
ATOM     20  C   LIG    1       -0.063   4.271   0.026  0.00  0.00    -0.110 A 
ATOM     21  C   LIG    1       -0.088   5.777   0.033  0.00  0.00    +0.100 C 
BRANCH  15  23
ATOM     22  C   LIG    1        3.526   3.533  -0.012  0.00  0.00    +0.240 C 
ATOM     23  O   LIG    1        2.316   4.293   0.004  0.00  0.00    -0.310 OA
ENDBRANCH  15  23
ENDBRANCH  14  17
ENDBRANCH   1  14
TORSDOF 4
