REMARK  Name = ZINCqH000000150r.0
REMARK                            x       y       z     vdW  Elec       q    Type
REMARK                         _______ _______ _______ _____ _____    ______ ____
ROOT
ATOM      1  C   LIG    1        3.698  -0.709   0.211  0.00  0.00    +0.330 C 
ENDROOT
BRANCH   1   2
ATOM      2  C   LIG    1        2.445   0.005  -0.226  0.00  0.00    -0.140 A 
ATOM      3  C   LIG    1        1.309  -0.718  -0.532  0.00  0.00    +0.070 A 
ATOM      4  C   LIG    1        0.159  -0.064  -0.934  0.00  0.00    -0.020 A 
ATOM      5  C   LIG    1        0.143   1.315  -1.030  0.00  0.00    +0.060 A 
ATOM      6  C   LIG    1        1.277   2.043  -0.725  0.00  0.00    -0.070 A 
ATOM      7  C   LIG    1        2.432   1.390  -0.321  0.00  0.00    +0.140 A 
BRANCH   7   8
ATOM      8  O   LIG    1        3.548   2.103  -0.021  0.00  0.00    -0.250 OA
BRANCH   8   9
ATOM      9  C   LIG    1        3.485   3.457  -0.118  0.00  0.00    +0.080 A 
ATOM     10  C   LIG    1        3.809   4.085  -1.312  0.00  0.00    +0.000 A 
ATOM     11  C   LIG    1        3.739   5.461  -1.409  0.00  0.00    +0.020 A 
ATOM     12  C   LIG    1        3.357   6.214  -0.314  0.00  0.00    +0.010 A 
ATOM     13  C   LIG    1        3.039   5.592   0.879  0.00  0.00    +0.020 A 
ATOM     14  C   LIG    1        3.103   4.215   0.980  0.00  0.00    +0.010 A 
ENDBRANCH   8   9
ENDBRANCH   7   8
ENDBRANCH   1   2
BRANCH   1  16
ATOM     15  C   LIG    1        4.863  -1.219   2.290  0.00  0.00    +0.610 C 
ATOM     16  N   LIG    1        3.813  -0.644   1.671  0.00  0.00    -0.710 N 
ATOM     17  H   LIG    1        3.134  -0.188   2.191  0.00  0.00    +0.410 HD
ATOM     18  O   LIG    1        5.715  -1.791   1.638  0.00  0.00    -0.540 OA
BRANCH  15  21
ATOM     19  N   LIG    1        5.715  -1.409   5.795  0.00  0.00    -0.350 N 
ATOM     20  C   LIG    1        5.989  -1.692   4.505  0.00  0.00    +0.300 A 
ATOM     21  C   LIG    1        4.979  -1.154   3.759  0.00  0.00    -0.100 A 
ATOM     22  N   LIG    1        4.112  -0.549   4.590  0.00  0.00    -0.210 NA
ATOM     23  N   LIG    1        4.514  -0.686   5.805  0.00  0.00    -0.060 NA
BRANCH  19  25
ATOM     24  C   LIG    1        7.761  -0.895   7.033  0.00  0.00    +0.070 C 
ATOM     25  C   LIG    1        6.519  -1.785   6.961  0.00  0.00    +0.170 C 
ATOM     26  C   LIG    1        6.947  -3.249   6.834  0.00  0.00    +0.070 C 
ATOM     27  C   LIG    1        5.687  -1.605   8.232  0.00  0.00    +0.080 C 
ENDBRANCH  19  25
ENDBRANCH  15  21
ENDBRANCH   1  16
TORSDOF 6
