REMARK  Name = ZINCpe000000Wio7.0
REMARK                            x       y       z     vdW  Elec       q    Type
REMARK                         _______ _______ _______ _____ _____    ______ ____
ROOT
ATOM      1  C   LIG    1        0.002  -0.004   0.002  0.00  0.00    +0.320 C 
ENDROOT
BRANCH   1   4
ATOM      2  N   LIG    1        1.139   2.192   0.003  0.00  0.00    -0.720 N 
ATOM      3  H   LIG    1        1.986   1.719  -0.008  0.00  0.00    +0.410 HD
ATOM      4  C   LIG    1       -0.018   1.503   0.010  0.00  0.00    +0.510 C 
ATOM      5  O   LIG    1       -1.077   2.095   0.018  0.00  0.00    -0.530 OA
BRANCH   2   6
ATOM      6  C   LIG    1        1.120   3.657   0.011  0.00  0.00    +0.340 C 
BRANCH   6   9
ATOM      7  C   LIG    1        4.511   4.899   1.135  0.00  0.00    +0.320 A 
ATOM      8  C   LIG    1        3.207   4.423   1.185  0.00  0.00    -0.030 A 
ATOM      9  C   LIG    1        2.534   4.179   0.000  0.00  0.00    -0.030 A 
ATOM     10  C   LIG    1        3.188   4.431  -1.197  0.00  0.00    -0.050 A 
ATOM     11  C   LIG    1        4.483   4.909  -1.172  0.00  0.00    +0.300 A 
ATOM     12  N   LIG    1        5.101   5.127  -0.026  0.00  0.00    -0.530 NA
BRANCH   7  14
ATOM     13  C   LIG    1        6.519   5.632   2.171  0.00  0.00    +0.260 C 
ATOM     14  O   LIG    1        5.183   5.138   2.289  0.00  0.00    -0.310 OA
ENDBRANCH   7  14
ENDBRANCH   6   9
ENDBRANCH   2   6
ENDBRANCH   1   4
BRANCH   1  15
ATOM     15  N   LIG    1       -1.372  -0.511   0.012  0.00  0.00    -0.720 N 
ATOM     16  H   LIG    1       -2.118   0.109   0.023  0.00  0.00    +0.410 HD
ATOM     17  C   LIG    1       -1.601  -1.839   0.007  0.00  0.00    +0.570 C 
ATOM     18  O   LIG    1       -0.666  -2.617  -0.006  0.00  0.00    -0.530 OA
BRANCH  17  19
ATOM     19  C   LIG    1       -2.985  -2.350   0.018  0.00  0.00    -0.130 A 
ATOM     20  C   LIG    1       -4.060  -1.459   0.033  0.00  0.00    +0.070 A 
ATOM     21  C   LIG    1       -5.353  -1.938   0.042  0.00  0.00    +0.040 A 
ATOM     22  C   LIG    1       -5.591  -3.305   0.037  0.00  0.00    +0.060 A 
ATOM     23  O   LIG    1       -6.754  -4.017   0.043  0.00  0.00    -0.300 OA
ATOM     24  C   LIG    1       -6.388  -5.350   0.446  0.00  0.00    +0.440 C 
ATOM     25  O   LIG    1       -5.018  -5.473   0.020  0.00  0.00    -0.300 OA
ATOM     26  C   LIG    1       -4.521  -4.201   0.022  0.00  0.00    +0.020 A 
ATOM     27  C   LIG    1       -3.224  -3.727   0.007  0.00  0.00    +0.110 A 
ENDBRANCH  17  19
ENDBRANCH   1  15
TORSDOF 6
