REMARK  Name = ZINCrD0000075smu.0
REMARK                            x       y       z     vdW  Elec       q    Type
REMARK                         _______ _______ _______ _____ _____    ______ ____
ROOT
ATOM      1  C   LIG    1       -1.248   3.146  -0.179  0.00  0.00    -0.130 A 
ATOM      2  C   LIG    1       -0.094   3.914  -0.137  0.00  0.00    +0.190 A 
ATOM      3  C   LIG    1        1.144   3.278  -0.063  0.00  0.00    -0.190 A 
ATOM      4  C   LIG    1        2.491   3.645  -0.003  0.00  0.00    +0.070 A 
ATOM      5  O   LIG    1        3.180   2.494   0.054  0.00  0.00    +0.150 OA
ATOM      6  N   LIG    1        2.478   1.509   0.037  0.00  0.00    -0.360 NA
ATOM      7  C   LIG    1        1.201   1.800  -0.032  0.00  0.00    +0.060 A 
ATOM      8  C   LIG    1       -0.011   1.075  -0.079  0.00  0.00    +0.060 A 
ATOM      9  C   LIG    1       -1.188   1.736  -0.156  0.00  0.00    +0.100 A 
ENDROOT
BRANCH   4  10
ATOM     10  C   LIG    1        3.040   5.012  -0.002  0.00  0.00    -0.040 A 
ATOM     11  C   LIG    1        2.577   5.956  -0.923  0.00  0.00    +0.050 A 
ATOM     12  C   LIG    1        3.092   7.235  -0.912  0.00  0.00    +0.010 A 
ATOM     13  C   LIG    1        4.074   7.582   0.000  0.00  0.00    +0.040 A 
ATOM     14  C   LIG    1        4.542   6.651   0.911  0.00  0.00    +0.010 A 
ATOM     15  C   LIG    1        4.032   5.370   0.917  0.00  0.00    +0.050 A 
ENDBRANCH   4  10
BRANCH   1  16
ATOM     16  C   LIG    1       -2.559   3.813  -0.257  0.00  0.00    +0.520 C 
ATOM     17  O   LIG    1       -2.623   5.027  -0.283  0.00  0.00    -0.500 OA
BRANCH  16  18
ATOM     18  O   LIG    1       -3.688   3.078  -0.299  0.00  0.00    -0.330 OA
BRANCH  18  19
ATOM     19  C   LIG    1       -4.944   3.802  -0.375  0.00  0.00    +0.270 C 
BRANCH  19  21
ATOM     20  O   LIG    1       -5.866   1.630  -0.380  0.00  0.00    -0.500 OA
ATOM     21  C   LIG    1       -6.088   2.822  -0.414  0.00  0.00    +0.530 C 
ATOM     22  N   LIG    1       -7.357   3.270  -0.485  0.00  0.00    -0.730 N 
ATOM     23  H   LIG    1       -7.534   4.223  -0.512  0.00  0.00    +0.410 HD
BRANCH  22  24
ATOM     24  C   LIG    1       -8.469   2.317  -0.523  0.00  0.00    +0.320 C 
BRANCH  24  25
ATOM     25  C   LIG    1       -9.793   3.080  -0.603  0.00  0.00    +0.450 C 
ATOM     26  F   LIG    1       -9.923   3.905   0.519  0.00  0.00    -0.180 F 
ATOM     27  F   LIG    1      -10.854   2.170  -0.638  0.00  0.00    -0.170 F 
ATOM     28  F   LIG    1       -9.810   3.862  -1.762  0.00  0.00    -0.180 F 
ENDBRANCH  24  25
ENDBRANCH  22  24
ENDBRANCH  19  21
ENDBRANCH  18  19
ENDBRANCH  16  18
ENDBRANCH   1  16
TORSDOF 7
