REMARK  Name = ZINCvU0000000DvU.0
REMARK                            x       y       z     vdW  Elec       q    Type
REMARK                         _______ _______ _______ _____ _____    ______ ____
ROOT
ATOM      1  C   LIG    1       -1.188   1.231   1.185  0.00  0.00    +0.530 C 
ATOM      2  N   LIG    1       -0.566   1.131   2.377  0.00  0.00    -0.480 N 
ATOM      3  O   LIG    1       -2.301   1.705   1.120  0.00  0.00    -0.490 OA
ENDROOT
BRANCH   2   4
ATOM      4  C   LIG    1       -1.246   1.475   3.553  0.00  0.00    +0.120 A 
ATOM      5  C   LIG    1       -1.542   2.804   3.823  0.00  0.00    +0.070 A 
ATOM      6  C   LIG    1       -2.219   3.139   4.980  0.00  0.00    +0.040 A 
ATOM      7  C   LIG    1       -2.591   2.152   5.875  0.00  0.00    -0.020 A 
ATOM      8  C   LIG    1       -2.292   0.827   5.612  0.00  0.00    +0.040 A 
ATOM      9 CL   LIG    1       -3.434   2.577   7.332  0.00  0.00    -0.060 Cl
ATOM     10  C   LIG    1       -1.621   0.486   4.454  0.00  0.00    +0.050 A 
ENDBRANCH   2   4
BRANCH   2  11
ATOM     11  C   LIG    1        0.745   0.691   2.439  0.00  0.00    +0.410 C 
ATOM     12  N   LIG    1        1.437   0.297   1.434  0.00  0.00    -0.550 NA
ATOM     13  C   LIG    1        2.802  -0.142   1.626  0.00  0.00    +0.190 C 
ATOM     14  C   LIG    1        3.211  -0.054   3.104  0.00  0.00    +0.110 C 
ATOM     15  C   LIG    1        2.933  -1.592   1.157  0.00  0.00    +0.060 C 
ATOM     16  S   LIG    1        1.713   0.595   3.915  0.00  0.00    -0.150 S 
ENDBRANCH   2  11
BRANCH   1  17
ATOM     17  C   LIG    1       -0.498   0.752  -0.066  0.00  0.00    +0.100 C 
BRANCH  17  18
ATOM     18  C   LIG    1       -1.414   0.977  -1.271  0.00  0.00    +0.120 C 
BRANCH  18  25
ATOM     19  C   LIG    1        0.439   2.720  -3.160  0.00  0.00    +0.150 C 
ATOM     20  C   LIG    1        0.093   1.267  -3.357  0.00  0.00    +0.090 A 
ATOM     21  N   LIG    1        0.510   0.505  -4.337  0.00  0.00    -0.290 NA
ATOM     22  N   LIG    1       -0.039  -0.772  -4.163  0.00  0.00    -0.330 N 
ATOM     23  C   LIG    1       -0.794  -0.750  -3.041  0.00  0.00    +0.100 A 
ATOM     24  C   LIG    1       -1.571  -1.908  -2.471  0.00  0.00    +0.140 C 
ATOM     25  C   LIG    1       -0.725   0.498  -2.523  0.00  0.00    -0.220 A 
BRANCH  22  26
ATOM     26  C   LIG    1        0.160  -1.876  -5.003  0.00  0.00    +0.150 A 
ATOM     27  C   LIG    1        1.420  -2.138  -5.523  0.00  0.00    +0.020 A 
ATOM     28  C   LIG    1        1.614  -3.230  -6.345  0.00  0.00    +0.030 A 
ATOM     29  C   LIG    1        0.551  -4.057  -6.660  0.00  0.00    +0.010 A 
ATOM     30  C   LIG    1       -0.707  -3.796  -6.149  0.00  0.00    +0.030 A 
ATOM     31  C   LIG    1       -0.906  -2.708  -5.321  0.00  0.00    +0.000 A 
ENDBRANCH  22  26
ENDBRANCH  18  25
ENDBRANCH  17  18
ENDBRANCH   1  17
TORSDOF 6
