REMARK  Name = ZINCAx0000000f0W.0
REMARK                            x       y       z     vdW  Elec       q    Type
REMARK                         _______ _______ _______ _____ _____    ______ ____
ROOT
ATOM      1  C   LIG    1       -4.995  -1.113  -2.889  0.00  0.00    +0.280 C 
ATOM      2  C   LIG    1       -6.516  -0.985  -2.658  0.00  0.00    +0.080 C 
ATOM      3  C   LIG    1       -6.688  -1.476  -1.196  0.00  0.00    +0.280 C 
ATOM      4  C   LIG    1       -5.392  -0.950  -0.535  0.00  0.00    +0.270 C 
ATOM      5  N   LIG    1       -4.351  -1.099  -1.568  0.00  0.00    -0.600 N 
ATOM      6  C   LIG    1       -3.027  -1.211  -1.338  0.00  0.00    +0.520 C 
ATOM      7  O   LIG    1       -2.268  -1.428  -2.259  0.00  0.00    -0.490 OA
ENDROOT
BRANCH   3   8
ATOM      8  N   LIG    1       -7.875  -0.881  -0.578  0.00  0.00    -0.570 N 
ATOM      9  C   LIG    1       -8.915  -1.591  -0.099  0.00  0.00    +0.520 C 
ATOM     10  C   LIG    1       -9.896  -0.568   0.439  0.00  0.00    +0.320 C 
ATOM     11  N   LIG    1       -9.233   0.720   0.176  0.00  0.00    -0.730 N 
ATOM     12  H   LIG    1       -9.574   1.603   0.390  0.00  0.00    +0.450 HD
ATOM     13  O   LIG    1       -9.040  -2.797  -0.097  0.00  0.00    -0.460 OA
ATOM     14  C   LIG    1       -8.059   0.434  -0.415  0.00  0.00    +0.700 C 
ATOM     15  O   LIG    1       -7.255   1.277  -0.765  0.00  0.00    -0.530 OA
ENDBRANCH   3   8
BRANCH   1  16
ATOM     16  C   LIG    1       -4.500   0.048  -3.712  0.00  0.00    +0.460 C 
ATOM     17  O   LIG    1       -3.967   0.989  -3.172  0.00  0.00    -0.480 OA
BRANCH  16  19
ATOM     18  C   LIG    1       -4.149   1.188  -5.776  0.00  0.00    +0.260 C 
ATOM     19  O   LIG    1       -4.650   0.037  -5.046  0.00  0.00    -0.360 OA
ENDBRANCH  16  19
ENDBRANCH   1  16
BRANCH   6  20
ATOM     20  C   LIG    1       -2.490  -1.066   0.062  0.00  0.00    +0.350 C 
BRANCH  20  21
ATOM     21  N   LIG    1       -1.026  -1.108   0.031  0.00  0.00    -0.470 N 
ATOM     22  C   LIG    1       -0.175  -0.021  -0.016  0.00  0.00    +0.060 A 
ATOM     23  C   LIG    1       -0.368   1.353  -0.048  0.00  0.00    +0.010 A 
ATOM     24  C   LIG    1        0.723   2.195  -0.093  0.00  0.00    +0.040 A 
ATOM     25  C   LIG    1        2.010   1.679  -0.108  0.00  0.00    +0.000 A 
ATOM     26  C   LIG    1        2.220   0.330  -0.077  0.00  0.00    +0.070 A 
ATOM     27  C   LIG    1        1.130  -0.545  -0.031  0.00  0.00    +0.050 A 
ATOM     28  N   LIG    1        1.020  -1.895   0.007  0.00  0.00    -0.450 NA
ATOM     29  C   LIG    1       -0.246  -2.233   0.043  0.00  0.00    +0.330 A 
BRANCH  29  30
ATOM     30  C   LIG    1       -0.755  -3.620   0.092  0.00  0.00    -0.010 A 
ATOM     31  C   LIG    1       -1.706  -3.985   1.045  0.00  0.00    +0.050 A 
ATOM     32  C   LIG    1       -2.177  -5.281   1.085  0.00  0.00    +0.050 A 
ATOM     33  C   LIG    1       -1.709  -6.220   0.183  0.00  0.00    +0.070 A 
ATOM     34  C   LIG    1       -0.766  -5.866  -0.766  0.00  0.00    -0.030 A 
ATOM     35 CL   LIG    1       -0.185  -7.051  -1.895  0.00  0.00    -0.040 Cl
ATOM     36  C   LIG    1       -0.289  -4.570  -0.821  0.00  0.00    +0.010 A 
ATOM     37 CL   LIG    1        0.889  -4.125  -2.015  0.00  0.00    -0.010 Cl
ENDBRANCH  29  30
ENDBRANCH  20  21
ENDBRANCH   6  20
TORSDOF 6
