REMARK  Name = ZINCqH0000006ZOs.0
REMARK                            x       y       z     vdW  Elec       q    Type
REMARK                         _______ _______ _______ _____ _____    ______ ____
ROOT
ATOM      1  S   LIG    1       -2.266   5.922   0.380  0.00  0.00    +0.160 S 
ENDROOT
BRANCH   1   5
ATOM      2  C   LIG    1       -5.656   7.783   0.698  0.00  0.00    +0.230 A 
ATOM      3  N   LIG    1       -6.042   6.533   0.616  0.00  0.00    -0.270 NA
ATOM      4  N   LIG    1       -5.010   5.773   0.498  0.00  0.00    -0.280 NA
ATOM      5  C   LIG    1       -3.923   6.508   0.509  0.00  0.00    +0.110 A 
ATOM      6  O   LIG    1       -4.306   7.794   0.632  0.00  0.00    -0.200 OA
BRANCH   2  10
ATOM      7  C   LIG    1       -8.183  11.175   1.094  0.00  0.00    +0.160 A 
ATOM      8  C   LIG    1       -8.737   9.903   1.020  0.00  0.00    +0.000 A 
ATOM      9  C   LIG    1       -7.920   8.800   0.891  0.00  0.00    +0.130 A 
ATOM     10  C   LIG    1       -6.535   8.962   0.836  0.00  0.00    -0.070 A 
ATOM     11  C   LIG    1       -5.981  10.242   0.916  0.00  0.00    +0.100 A 
ATOM     12  C   LIG    1       -6.805  11.340   1.039  0.00  0.00    -0.070 A 
BRANCH   7  14
ATOM     13  C   LIG    1       -8.355  13.537   1.291  0.00  0.00    +0.250 C 
ATOM     14  O   LIG    1       -8.991  12.259   1.220  0.00  0.00    -0.310 OA
ENDBRANCH   7  14
ENDBRANCH   2  10
ENDBRANCH   1   5
BRANCH   1  15
ATOM     15  C   LIG    1       -2.572   4.143   0.252  0.00  0.00    +0.110 C 
BRANCH  15  16
ATOM     16  C   LIG    1       -1.258   3.415   0.128  0.00  0.00    +0.540 C 
ATOM     17  N   LIG    1       -1.239   2.072   0.019  0.00  0.00    -0.660 N 
ATOM     18  H   LIG    1       -2.071   1.580  -0.061  0.00  0.00    +0.420 HD
ATOM     19  O   LIG    1       -0.217   4.038   0.127  0.00  0.00    -0.500 OA
BRANCH  17  20
ATOM     20  C   LIG    1       -0.017   1.386   0.021  0.00  0.00    +0.110 A 
ATOM     21  C   LIG    1        1.096   1.951   0.626  0.00  0.00    +0.100 A 
ATOM     22  C   LIG    1        2.301   1.275   0.623  0.00  0.00    +0.010 A 
ATOM     23  C   LIG    1        2.400   0.035   0.015  0.00  0.00    +0.120 A 
ATOM     24  C   LIG    1        1.291  -0.532  -0.590  0.00  0.00    -0.010 A 
ATOM     25  F   LIG    1        3.580  -0.623   0.013  0.00  0.00    -0.130 F 
ATOM     26  C   LIG    1        0.083   0.140  -0.589  0.00  0.00    +0.100 A 
ATOM     27  F   LIG    1       -0.999  -0.413  -1.179  0.00  0.00    -0.130 F 
ENDBRANCH  17  20
ENDBRANCH  15  16
ENDBRANCH   1  15
TORSDOF 6
