REMARK  Name = ZINCpe000000Xr7q.0
REMARK                            x       y       z     vdW  Elec       q    Type
REMARK                         _______ _______ _______ _____ _____    ______ ____
ROOT
ATOM      1  N   LIG    1        0.127   1.363   7.359  0.00  0.00    -0.730 N 
ATOM      2  H   LIG    1        0.778   0.646   7.299  0.00  0.00    +0.400 HD
ATOM      3  C   LIG    1       -0.185   1.892   8.559  0.00  0.00    +0.530 C 
ATOM      4  O   LIG    1       -0.999   2.788   8.633  0.00  0.00    -0.530 OA
ENDROOT
BRANCH   3   5
ATOM      5  C   LIG    1        0.478   1.371   9.807  0.00  0.00    +0.000 C 
ATOM      6  C   LIG    1        0.152  -0.126  10.023  0.00  0.00    +0.080 C 
ATOM      7  C   LIG    1        0.006  -0.261  11.522  0.00  0.00    +0.520 C 
ATOM      8  N   LIG    1       -0.151   0.950  12.083  0.00  0.00    -0.620 N 
ATOM      9  O   LIG    1        0.026  -1.311  12.130  0.00  0.00    -0.520 OA
ATOM     10  C   LIG    1       -0.140   2.012  11.070  0.00  0.00    +0.310 C 
BRANCH   8  11
ATOM     11  C   LIG    1       -0.311   1.181  13.521  0.00  0.00    +0.430 C 
BRANCH  11  12
ATOM     12  C   LIG    1        1.042   1.379  14.152  0.00  0.00    -0.040 A 
ATOM     13  C   LIG    1        1.679   2.555  14.296  0.00  0.00    -0.040 A 
ATOM     14  C   LIG    1        2.909   2.280  14.937  0.00  0.00    -0.070 A 
ATOM     15  C   LIG    1        2.954   0.950  15.138  0.00  0.00    +0.170 A 
ATOM     16  O   LIG    1        1.821   0.410  14.661  0.00  0.00    -0.170 OA
ENDBRANCH  11  12
ENDBRANCH   8  11
ENDBRANCH   3   5
BRANCH   1  17
ATOM     17  C   LIG    1       -0.517   1.870   6.145  0.00  0.00    +0.260 C 
BRANCH  17  18
ATOM     18  C   LIG    1        0.010   1.104   4.930  0.00  0.00    +0.170 C 
BRANCH  18  22
ATOM     19  C   LIG    1       -0.013   1.086   0.008  0.00  0.00    +0.050 C 
ATOM     20  C   LIG    1       -0.729   1.579   1.267  0.00  0.00    +0.160 C 
ATOM     21  C   LIG    1        0.011   1.073   2.508  0.00  0.00    +0.160 C 
ATOM     22  N   LIG    1       -0.636   1.613   3.712  0.00  0.00    -0.530 NA
ATOM     23  C   LIG    1       -0.634   3.083   3.690  0.00  0.00    +0.150 C 
ATOM     24  C   LIG    1       -1.368   3.569   2.437  0.00  0.00    +0.160 C 
ATOM     25  C   LIG    1       -1.300   5.096   2.366  0.00  0.00    +0.050 C 
ATOM     26  O   LIG    1       -0.744   3.009   1.278  0.00  0.00    -0.380 OA
ENDBRANCH  18  22
ENDBRANCH  17  18
ENDBRANCH   1  17
TORSDOF 6
