REMARK  Name = ZINCrH00000No4RC.0
REMARK                            x       y       z     vdW  Elec       q    Type
REMARK                         _______ _______ _______ _____ _____    ______ ____
ROOT
ATOM      1  N   LIG    1        4.536   8.507   0.004  0.00  0.00    -0.720 N 
ATOM      2  H   LIG    1        5.416   8.099  -0.006  0.00  0.00    +0.400 HD
ATOM      3  C   LIG    1        3.434   7.732   0.011  0.00  0.00    +0.520 C 
ATOM      4  O   LIG    1        2.333   8.242   0.024  0.00  0.00    -0.520 OA
ENDROOT
BRANCH   1   6
ATOM      5  C   LIG    1        4.221  10.471  -1.419  0.00  0.00    +0.020 C 
ATOM      6  C   LIG    1        4.405   9.966   0.013  0.00  0.00    +0.230 C 
BRANCH   6   7
ATOM      7  C   LIG    1        5.668  10.588   0.615  0.00  0.00    +0.030 C 
BRANCH   7   8
ATOM      8  C   LIG    1        5.785  10.183   2.085  0.00  0.00    +0.060 C 
BRANCH   8   9
ATOM      9  C   LIG    1        7.028  10.795   2.677  0.00  0.00    -0.080 A 
ATOM     10  C   LIG    1        8.225  10.104   2.637  0.00  0.00    +0.000 A 
ATOM     11  C   LIG    1        9.367  10.668   3.175  0.00  0.00    +0.000 A 
ATOM     12  C   LIG    1        9.309  11.917   3.764  0.00  0.00    +0.000 A 
ATOM     13  C   LIG    1        8.111  12.606   3.809  0.00  0.00    +0.000 A 
ATOM     14  C   LIG    1        6.971  12.044   3.265  0.00  0.00    +0.000 A 
ENDBRANCH   8   9
ENDBRANCH   7   8
ENDBRANCH   6   7
ENDBRANCH   1   6
BRANCH   3  15
ATOM     15  C   LIG    1        3.568   6.231   0.002  0.00  0.00    +0.240 C 
BRANCH  15  16
ATOM     16  O   LIG    1        2.269   5.636   0.011  0.00  0.00    -0.210 OA
BRANCH  16  17
ATOM     17  N   LIG    1        2.283   4.220   0.003  0.00  0.00    -0.340 NA
ATOM     18  C   LIG    1        1.169   3.562   0.010  0.00  0.00    +0.290 C 
BRANCH  18  19
ATOM     19  C   LIG    1        1.185   2.087   0.002  0.00  0.00    -0.090 A 
ATOM     20  C   LIG    1       -0.017   1.374   0.010  0.00  0.00    +0.090 A 
ATOM     21  C   LIG    1        0.002  -0.004   0.002  0.00  0.00    +0.000 A 
ATOM     22  C   LIG    1        1.213  -0.684  -0.014  0.00  0.00    +0.130 A 
ATOM     23  C   LIG    1        2.410   0.021  -0.021  0.00  0.00    -0.060 A 
ATOM     24  C   LIG    1        2.401   1.399  -0.013  0.00  0.00    +0.100 A 
BRANCH  22  25
ATOM     25  O   LIG    1        1.227  -2.042  -0.022  0.00  0.00    -0.320 OA
BRANCH  25  26
ATOM     26  C   LIG    1        2.507  -2.678  -0.038  0.00  0.00    +0.600 C 
ATOM     27  F   LIG    1        3.229  -2.301   1.100  0.00  0.00    -0.200 F 
ATOM     28  F   LIG    1        3.207  -2.288  -1.185  0.00  0.00    -0.200 F 
ENDBRANCH  25  26
ENDBRANCH  22  25
ENDBRANCH  18  19
ENDBRANCH  16  17
ENDBRANCH  15  16
ENDBRANCH   3  15
TORSDOF 10
