REMARK  Name = ZINCtV00001bB3ce.0
REMARK                            x       y       z     vdW  Elec       q    Type
REMARK                         _______ _______ _______ _____ _____    ______ ____
ROOT
ATOM      1  C   LIG    1       -0.185   1.328   4.508  0.00  0.00    -0.110 C 
ATOM      2  C   LIG    1       -0.582   1.713   5.802  0.00  0.00    +0.110 C 
ATOM      3  C   LIG    1        0.186   1.474   7.018  0.00  0.00    -0.120 C 
ATOM      4  C   LIG    1       -0.581   2.039   8.188  0.00  0.00    +0.100 C 
ATOM      5  C   LIG    1       -1.870   2.641   7.613  0.00  0.00    +0.100 C 
ATOM      6  C   LIG    1        1.384   0.852   7.086  0.00  0.00    +0.090 C 
ATOM      7  C   LIG    1       -1.819   2.416   6.122  0.00  0.00    -0.110 C 
ATOM      8  C   LIG    1       -2.762   2.800   5.234  0.00  0.00    +0.080 C 
ENDROOT
BRANCH   6   9
ATOM      9  C   LIG    1        1.980   0.545   8.395  0.00  0.00    -0.060 A 
ATOM     10  C   LIG    1        3.135  -0.241   8.475  0.00  0.00    +0.050 A 
ATOM     11  C   LIG    1        3.691  -0.519   9.705  0.00  0.00    +0.050 A 
ATOM     12  C   LIG    1        3.103  -0.033  10.861  0.00  0.00    -0.080 A 
ATOM     13  C   LIG    1        1.956   0.742  10.790  0.00  0.00    +0.050 A 
ATOM     14 BR   LIG    1        3.869  -0.427  12.544  0.00  0.00    -0.040 Br
ATOM     15  C   LIG    1        1.392   1.033   9.567  0.00  0.00    +0.040 A 
ENDBRANCH   6   9
BRANCH   8  16
ATOM     16  C   LIG    1       -3.854   3.688   5.658  0.00  0.00    -0.050 A 
ATOM     17  C   LIG    1       -4.306   3.664   6.982  0.00  0.00    +0.040 A 
ATOM     18  C   LIG    1       -5.327   4.503   7.373  0.00  0.00    +0.050 A 
ATOM     19  C   LIG    1       -5.913   5.361   6.457  0.00  0.00    -0.080 A 
ATOM     20  C   LIG    1       -5.475   5.386   5.143  0.00  0.00    +0.050 A 
ATOM     21 BR   LIG    1       -7.318   6.503   7.002  0.00  0.00    -0.040 Br
ATOM     22  C   LIG    1       -4.451   4.557   4.738  0.00  0.00    +0.040 A 
ENDBRANCH   8  16
BRANCH   1  23
ATOM     23  C   LIG    1       -0.962   1.756   3.347  0.00  0.00    +0.530 C 
ATOM     24  O   LIG    1       -1.694   0.967   2.780  0.00  0.00    -0.480 OA
BRANCH  23  25
ATOM     25  O   LIG    1       -0.869   3.028   2.905  0.00  0.00    -0.340 OA
BRANCH  25  27
ATOM     26  C   LIG    1       -1.420   4.848   1.413  0.00  0.00    +0.070 C 
ATOM     27  C   LIG    1       -1.657   3.378   1.765  0.00  0.00    +0.190 C 
ENDBRANCH  25  27
ENDBRANCH  23  25
ENDBRANCH   1  23
BRANCH   1  28
ATOM     28  C   LIG    1        0.981   0.515   4.329  0.00  0.00    +0.270 C 
ATOM     29  N   LIG    1        1.905  -0.129   4.187  0.00  0.00    -0.390 NA
ENDBRANCH   1  28
TORSDOF 6
