REMARK  Name = ZINCqH0000001pyC.0
REMARK                            x       y       z     vdW  Elec       q    Type
REMARK                         _______ _______ _______ _____ _____    ______ ____
ROOT
ATOM      1  C   LIG    1        4.323  -2.014   0.705  0.00  0.00    +0.350 C 
ENDROOT
BRANCH   1   2
ATOM      2  C   LIG    1        5.206  -2.644   1.751  0.00  0.00    -0.120 A 
ATOM      3  C   LIG    1        6.561  -2.374   1.765  0.00  0.00    +0.100 A 
ATOM      4  C   LIG    1        7.375  -2.947   2.729  0.00  0.00    +0.010 A 
ATOM      5  C   LIG    1        6.827  -3.806   3.678  0.00  0.00    +0.080 A 
ATOM      6  O   LIG    1        7.825  -4.239   4.503  0.00  0.00    -0.300 OA
ATOM      7  C   LIG    1        8.915  -3.320   4.302  0.00  0.00    +0.440 C 
ATOM      8  C   LIG    1        5.469  -4.080   3.660  0.00  0.00    -0.030 A 
ATOM      9  O   LIG    1        8.717  -2.842   2.958  0.00  0.00    -0.300 OA
ATOM     10  C   LIG    1        4.658  -3.499   2.696  0.00  0.00    +0.140 A 
BRANCH  10  11
ATOM     11  O   LIG    1        3.325  -3.768   2.678  0.00  0.00    -0.300 OA
BRANCH  11  12
ATOM     12  C   LIG    1        2.829  -4.657   3.681  0.00  0.00    +0.600 C 
ATOM     13  F   LIG    1        3.087  -4.122   4.948  0.00  0.00    -0.200 F 
ATOM     14  F   LIG    1        3.464  -5.897   3.561  0.00  0.00    -0.190 F 
ENDBRANCH  11  12
ENDBRANCH  10  11
ENDBRANCH   1   2
BRANCH   1  17
ATOM     15  N   LIG    1        2.204   0.971   1.030  0.00  0.00    -0.620 N 
ATOM     16  C   LIG    1        2.772  -0.143   0.528  0.00  0.00    +0.710 C 
ATOM     17  N   LIG    1        3.622  -0.866   1.284  0.00  0.00    -0.740 N 
ATOM     18  H   LIG    1        3.770  -0.625   2.212  0.00  0.00    +0.400 HD
ATOM     19  O   LIG    1        2.517  -0.497  -0.607  0.00  0.00    -0.580 OA
BRANCH  15  21
ATOM     20  C   LIG    1        2.180   2.238  -1.062  0.00  0.00    +0.020 C 
ATOM     21  C   LIG    1        1.376   1.821   0.172  0.00  0.00    +0.250 C 
ATOM     22  C   LIG    1        0.133   1.045  -0.268  0.00  0.00    +0.020 C 
ENDBRANCH  15  21
BRANCH  15  23
ATOM     23  C   LIG    1        2.416   1.332   2.434  0.00  0.00    +0.270 C 
BRANCH  23  24
ATOM     24  C   LIG    1        3.656   2.220   2.551  0.00  0.00    -0.040 C 
ATOM     25  C   LIG    1        3.369   3.713   2.324  0.00  0.00    +0.020 C 
ATOM     26  C   LIG    1        4.351   3.994   3.477  0.00  0.00    +0.010 C 
ATOM     27  C   LIG    1        4.017   2.587   4.000  0.00  0.00    +0.010 C 
ENDBRANCH  23  24
ENDBRANCH  15  23
ENDBRANCH   1  17
TORSDOF 7
