REMARK  Name = ZINCAx0000000c42.0
REMARK                            x       y       z     vdW  Elec       q    Type
REMARK                         _______ _______ _______ _____ _____    ______ ____
ROOT
ATOM      1  C   LIG    1        2.175   1.962   5.829  0.00  0.00    +0.160 C 
ENDROOT
BRANCH   1   2
ATOM      2  C   LIG    1        3.034   0.700   5.934  0.00  0.00    +0.030 C 
ATOM      3  C   LIG    1        2.790  -0.223   7.124  0.00  0.00    -0.120 C 
ATOM      4  C   LIG    1        2.661  -1.751   7.133  0.00  0.00    +0.050 C 
ATOM      5  C   LIG    1        1.199  -1.542   7.564  0.00  0.00    +0.010 C 
ATOM      6  C   LIG    1        1.641  -0.184   8.138  0.00  0.00    +0.050 C 
ATOM      7  C   LIG    1        4.048   0.629   7.073  0.00  0.00    -0.140 C 
ATOM      8  C   LIG    1        4.492   1.747   8.022  0.00  0.00    +0.040 C 
ATOM      9  C   LIG    1        5.883   1.631   7.373  0.00  0.00    +0.020 C 
ATOM     10  C   LIG    1        5.513   0.181   7.016  0.00  0.00    +0.070 C 
ENDBRANCH   1   2
BRANCH   1  11
ATOM     11  N   LIG    1        1.432   1.945   4.562  0.00  0.00    -0.510 NA
ATOM     12  C   LIG    1        0.564   3.124   4.446  0.00  0.00    +0.180 C 
ATOM     13  C   LIG    1       -0.324   2.979   3.205  0.00  0.00    +0.300 C 
ATOM     14  N   LIG    1        0.538   2.724   2.041  0.00  0.00    -0.620 N 
ATOM     15  C   LIG    1        1.527   1.639   2.132  0.00  0.00    +0.290 C 
ATOM     16  C   LIG    1        0.421   3.461   0.918  0.00  0.00    +0.520 C 
ATOM     17  O   LIG    1       -0.404   4.348   0.859  0.00  0.00    -0.510 OA
ATOM     18  C   LIG    1        2.346   1.840   3.417  0.00  0.00    +0.180 C 
BRANCH  16  19
ATOM     19  C   LIG    1        1.315   3.182  -0.263  0.00  0.00    +0.200 C 
BRANCH  19  20
ATOM     20  O   LIG    1        1.001   4.088  -1.322  0.00  0.00    -0.350 OA
BRANCH  20  21
ATOM     21  C   LIG    1        1.795   3.908  -2.496  0.00  0.00    +0.130 C 
ATOM     22  C   LIG    1        1.893   5.232  -3.293  0.00  0.00    +0.030 C 
ATOM     23  C   LIG    1        1.766   4.739  -4.757  0.00  0.00    +0.210 C 
ATOM     24  O   LIG    1        0.806   3.664  -4.668  0.00  0.00    -0.370 OA
ATOM     25  C   LIG    1        1.107   2.931  -3.469  0.00  0.00    +0.180 C 
ENDBRANCH  20  21
ENDBRANCH  19  20
ENDBRANCH  16  19
ENDBRANCH   1  11
BRANCH   1  27
ATOM     26  O   LIG    1        0.052   1.665   6.816  0.00  0.00    -0.510 OA
ATOM     27  C   LIG    1        1.204   2.005   6.981  0.00  0.00    +0.540 C 
ATOM     28  N   LIG    1        1.617   2.422   8.194  0.00  0.00    -0.740 N 
ATOM     29  H   LIG    1        2.553   2.624   8.345  0.00  0.00    +0.400 HD
BRANCH  28  30
ATOM     30  C   LIG    1        0.650   2.569   9.286  0.00  0.00    +0.320 C 
BRANCH  30  31
ATOM     31  C   LIG    1        1.362   3.045  10.526  0.00  0.00    -0.120 A 
ATOM     32  C   LIG    1        1.876   2.126  11.422  0.00  0.00    +0.070 A 
ATOM     33  C   LIG    1        2.534   2.561  12.557  0.00  0.00    -0.010 A 
ATOM     34  C   LIG    1        2.667   3.917  12.803  0.00  0.00    +0.110 A 
ATOM     35  C   LIG    1        2.147   4.836  11.908  0.00  0.00    -0.010 A 
ATOM     36  F   LIG    1        3.304   4.343  13.915  0.00  0.00    -0.140 F 
ATOM     37  C   LIG    1        1.495   4.399  10.770  0.00  0.00    +0.070 A 
ENDBRANCH  30  31
ENDBRANCH  28  30
ENDBRANCH   1  27
TORSDOF 8
