REMARK  Name = ZINCrH00000tj1lM.1
REMARK                            x       y       z     vdW  Elec       q    Type
REMARK                         _______ _______ _______ _____ _____    ______ ____
ROOT
ATOM      1  C   LIG    1        1.524  -0.884  -0.094  0.00  0.00    -0.660 A 
ATOM      2  C   LIG    1        2.836  -0.473   0.061  0.00  0.00    +0.110 A 
ATOM      3  C   LIG    1        3.118   0.836   0.405  0.00  0.00    +0.020 A 
ATOM      4  C   LIG    1        2.089   1.738   0.597  0.00  0.00    +0.050 A 
ATOM      5  C   LIG    1        0.771   1.329   0.442  0.00  0.00    +0.120 A 
ATOM      6  C   LIG    1        0.491   0.014   0.095  0.00  0.00    +0.140 A 
ENDROOT
BRANCH   5   7
ATOM      7  N   LIG    1       -0.273   2.242   0.628  0.00  0.00    -0.680 N 
ATOM      8  H   LIG    1       -0.160   3.168   0.364  0.00  0.00    +0.410 HD
ATOM      9  C   LIG    1       -1.435   1.834   1.175  0.00  0.00    +0.510 C 
ATOM     10  O   LIG    1       -1.608   0.660   1.427  0.00  0.00    -0.500 OA
BRANCH   9  11
ATOM     11  C   LIG    1       -2.520   2.836   1.473  0.00  0.00    +0.170 C 
BRANCH  11  12
ATOM     12  C   LIG    1       -3.706   2.128   2.075  0.00  0.00    -0.170 A 
ATOM     13  C   LIG    1       -3.897   1.921   3.379  0.00  0.00    +0.020 A 
ATOM     14  C   LIG    1       -5.063   1.246   3.698  0.00  0.00    +0.000 A 
ATOM     15  C   LIG    1       -5.819   0.907   2.654  0.00  0.00    -0.040 A 
ATOM     16  S   LIG    1       -5.055   1.456   1.168  0.00  0.00    +0.110 S 
ENDBRANCH  11  12
ENDBRANCH   9  11
ENDBRANCH   5   7
BRANCH   1  17
ATOM     17  S   LIG    1        1.171  -2.553  -0.534  0.00  0.00    +2.690 S 
ATOM     18  O   LIG    1       -0.154  -2.813  -0.089  0.00  0.00    -0.940 OA
ATOM     19  O   LIG    1        2.293  -3.322  -0.124  0.00  0.00    -0.950 OA
BRANCH  17  20
ATOM     20  N   LIG    1        1.131  -2.626  -2.188  0.00  0.00    -1.050 N 
ATOM     21  H   LIG    1        0.320  -2.904  -2.642  0.00  0.00    +0.430 HD
BRANCH  20  27
ATOM     22  C   LIG    1        2.134  -1.644  -4.159  0.00  0.00    +0.110 A 
ATOM     23  C   LIG    1        3.262  -1.307  -4.887  0.00  0.00    -0.060 A 
ATOM     24  C   LIG    1        4.519  -1.619  -4.400  0.00  0.00    +0.040 A 
ATOM     25  C   LIG    1        4.653  -2.262  -3.184  0.00  0.00    +0.010 A 
ATOM     26  C   LIG    1        3.531  -2.597  -2.448  0.00  0.00    +0.030 A 
ATOM     27  C   LIG    1        2.268  -2.288  -2.930  0.00  0.00    +0.130 A 
BRANCH  22  29
ATOM     28  C   LIG    1        0.837  -0.684  -5.906  0.00  0.00    +0.250 C 
ATOM     29  O   LIG    1        0.898  -1.344  -4.640  0.00  0.00    -0.320 OA
ENDBRANCH  22  29
ENDBRANCH  20  27
ENDBRANCH  17  20
ENDBRANCH   1  17
TORSDOF 7
