REMARK  Name = ZINCvU0000000JZ2.0
REMARK                            x       y       z     vdW  Elec       q    Type
REMARK                         _______ _______ _______ _____ _____    ______ ____
ROOT
ATOM      1  N   LIG    1        2.965  -1.503   0.915  0.00  0.00    -0.530 N 
ATOM      2  C   LIG    1        2.132  -0.531   0.582  0.00  0.00    +0.560 C 
ATOM      3  C   LIG    1        2.747   0.615  -0.099  0.00  0.00    -0.220 C 
ATOM      4  S   LIG    1        4.471   0.205  -0.191  0.00  0.00    +0.010 S 
ATOM      5  C   LIG    1        2.135   1.737  -0.552  0.00  0.00    +0.220 C 
ATOM      6  O   LIG    1        0.940  -0.585   0.820  0.00  0.00    -0.470 OA
ATOM      7  C   LIG    1        4.292  -1.362   0.618  0.00  0.00    +0.380 C 
ATOM      8  N   LIG    1        5.250  -2.222   0.881  0.00  0.00    -0.450 NA
ENDROOT
BRANCH   8   9
ATOM      9  C   LIG    1        6.554  -1.892   0.628  0.00  0.00    +0.090 A 
ATOM     10  C   LIG    1        7.080  -0.691   1.108  0.00  0.00    -0.010 A 
ATOM     11  C   LIG    1        8.396  -0.367   0.852  0.00  0.00    -0.070 A 
ATOM     12  C   LIG    1        9.192  -1.225   0.114  0.00  0.00    +0.020 A 
ATOM     13  C   LIG    1        8.677  -2.415  -0.368  0.00  0.00    +0.030 A 
ATOM     14  C   LIG    1        8.967   0.926   1.374  0.00  0.00    +0.090 C 
ATOM     15  C   LIG    1        7.364  -2.754  -0.117  0.00  0.00    -0.070 A 
ATOM     16  C   LIG    1        6.804  -4.050  -0.643  0.00  0.00    +0.100 C 
ENDBRANCH   8   9
BRANCH   5  17
ATOM     17  C   LIG    1        0.668   1.828  -0.546  0.00  0.00    -0.090 A 
ATOM     18  C   LIG    1       -0.107   0.722  -0.910  0.00  0.00    +0.140 A 
ATOM     19  C   LIG    1       -1.482   0.817  -0.907  0.00  0.00    +0.030 A 
ATOM     20  C   LIG    1       -2.097   2.000  -0.535  0.00  0.00    -0.000 A 
ATOM     21  C   LIG    1       -1.337   3.099  -0.173  0.00  0.00    -0.050 A 
ATOM     22  C   LIG    1       -3.601   2.093  -0.529  0.00  0.00    +0.130 C 
ATOM     23  C   LIG    1        0.039   3.022  -0.176  0.00  0.00    +0.130 A 
BRANCH  21  24
ATOM     24  N   LIG    1       -2.005   4.361   0.217  0.00  0.00    +0.020 N 
ATOM     25  O   LIG    1       -1.549   5.037   1.123  0.00  0.00    -0.160 OA
ATOM     26  O   LIG    1       -3.011   4.724  -0.366  0.00  0.00    -0.140 OA
ENDBRANCH  21  24
ENDBRANCH   5  17
BRANCH   1  27
ATOM     27  C   LIG    1        2.476  -2.704   1.596  0.00  0.00    +0.310 C 
BRANCH  27  28
ATOM     28  C   LIG    1        2.524  -2.488   3.110  0.00  0.00    +0.040 C 
BRANCH  28  29
ATOM     29  C   LIG    1        2.014  -3.743   3.821  0.00  0.00    +0.100 C 
BRANCH  29  31
ATOM     30  C   LIG    1        1.439  -5.054   6.273  0.00  0.00    +0.140 C 
ATOM     31  S   LIG    1        2.071  -3.486   5.616  0.00  0.00    -0.260 S 
ENDBRANCH  29  31
ENDBRANCH  28  29
ENDBRANCH  27  28
ENDBRANCH   1  27
TORSDOF 7
