REMARK  Name = ZINCqH0000033NdA.0
REMARK                            x       y       z     vdW  Elec       q    Type
REMARK                         _______ _______ _______ _____ _____    ______ ____
ROOT
ATOM      1  C   LIG    1        1.969  -4.140  -0.033  0.00  0.00    +0.090 A 
ATOM      2  C   LIG    1        2.365  -2.842  -0.020  0.00  0.00    +0.090 A 
ATOM      3  N   LIG    1        1.237  -2.081   0.004  0.00  0.00    -0.210 N 
ATOM      4  N   LIG    1        0.196  -2.833   0.010  0.00  0.00    -0.230 NA
ATOM      5  C   LIG    1        0.551  -4.104  -0.017  0.00  0.00    -0.020 A 
ENDROOT
BRANCH   3   6
ATOM      6  C   LIG    1        1.214  -0.680   0.024  0.00  0.00    +0.130 A 
ATOM      7  C   LIG    1        0.002  -0.004   0.047  0.00  0.00    +0.030 A 
ATOM      8  C   LIG    1       -0.017   1.377   0.068  0.00  0.00    +0.040 A 
ATOM      9  C   LIG    1        1.170   2.086   0.065  0.00  0.00    +0.020 A 
ATOM     10  C   LIG    1        2.379   1.416   0.042  0.00  0.00    +0.050 A 
ATOM     11  C   LIG    1        2.405   0.035   0.021  0.00  0.00    +0.010 A 
ENDBRANCH   3   6
BRANCH   5  12
ATOM     12  C   LIG    1       -0.354  -5.268  -0.021  0.00  0.00    +0.610 C 
ATOM     13  N   LIG    1       -1.689  -5.082  -0.004  0.00  0.00    -0.660 N 
ATOM     14  H   LIG    1       -2.054  -4.187   0.079  0.00  0.00    +0.420 HD
ATOM     15  O   LIG    1        0.103  -6.394  -0.042  0.00  0.00    -0.490 OA
BRANCH  13  16
ATOM     16  C   LIG    1       -2.545  -6.176  -0.104  0.00  0.00    +0.180 A 
ATOM     17  C   LIG    1       -3.753  -6.051  -0.786  0.00  0.00    -0.030 A 
ATOM     18  C   LIG    1       -4.593  -7.123  -0.892  0.00  0.00    +0.090 A 
ATOM     19  C   LIG    1       -4.244  -8.345  -0.304  0.00  0.00    -0.190 A 
ATOM     20  C   LIG    1       -3.030  -8.464   0.386  0.00  0.00    +0.100 A 
ATOM     21  C   LIG    1       -2.193  -7.389   0.482  0.00  0.00    +0.010 A 
BRANCH  19  22
ATOM     22  C   LIG    1       -5.147  -9.498  -0.410  0.00  0.00    +0.390 C 
ATOM     23  O   LIG    1       -4.842 -10.556   0.100  0.00  0.00    -0.460 OA
ATOM     24  C   LIG    1       -6.452  -9.367  -1.152  0.00  0.00    +0.060 C 
ENDBRANCH  19  22
ENDBRANCH  13  16
ENDBRANCH   5  12
BRANCH   1  25
ATOM     25  O   LIG    1        2.765  -5.244  -0.057  0.00  0.00    -0.270 OA
BRANCH  25  27
ATOM     26  C   LIG    1        4.902  -6.373  -0.097  0.00  0.00    +0.070 C 
ATOM     27  C   LIG    1        4.177  -5.025  -0.070  0.00  0.00    +0.170 C 
ENDBRANCH  25  27
ENDBRANCH   1  25
TORSDOF 6
