REMARK  Name = ZINCnE000008Jb5U.0
REMARK                            x       y       z     vdW  Elec       q    Type
REMARK                         _______ _______ _______ _____ _____    ______ ____
ROOT
ATOM      1  C   LIG    1       -8.569   7.687   1.261  0.00  0.00    +0.140 A 
ATOM      2  C   LIG    1       -7.942   7.474   0.066  0.00  0.00    -0.030 A 
ATOM      3  C   LIG    1       -6.614   7.017   0.050  0.00  0.00    +0.020 A 
ATOM      4  C   LIG    1       -5.938   6.787  -1.160  0.00  0.00    -0.010 A 
ATOM      5  C   LIG    1       -4.649   6.349  -1.138  0.00  0.00    +0.120 A 
ATOM      6  C   LIG    1       -3.991   6.115   0.068  0.00  0.00    -0.620 A 
ATOM      7  C   LIG    1       -4.615   6.327   1.259  0.00  0.00    +0.160 A 
ATOM      8  C   LIG    1       -5.944   6.783   1.277  0.00  0.00    -0.110 A 
ATOM      9  C   LIG    1       -6.619   7.013   2.489  0.00  0.00    +0.090 A 
ATOM     10  C   LIG    1       -7.905   7.455   2.470  0.00  0.00    -0.080 A 
ENDROOT
BRANCH   6  11
ATOM     11  S   LIG    1       -2.325   5.543   0.051  0.00  0.00    +2.600 S 
ATOM     12  O   LIG    1       -1.779   5.933  -1.202  0.00  0.00    -1.020 OA
ATOM     13  O   LIG    1       -1.758   5.921   1.298  0.00  0.00    -1.030 OA
BRANCH  11  14
ATOM     14  N   LIG    1       -2.375   3.887   0.043  0.00  0.00    -1.080 NA
BRANCH  14  15
ATOM     15  C   LIG    1       -1.187   3.152   0.029  0.00  0.00    +0.230 A 
ATOM     16  C   LIG    1       -1.217   1.760   0.017  0.00  0.00    -0.030 A 
ATOM     17  C   LIG    1       -0.013   1.076   0.008  0.00  0.00    -0.010 A 
ATOM     18  C   LIG    1        1.170   1.791   0.001  0.00  0.00    +0.110 A 
ATOM     19  N   LIG    1        1.165   3.110   0.008  0.00  0.00    -0.450 NA
ATOM     20  C   LIG    1        0.042   3.800   0.022  0.00  0.00    +0.070 A 
ENDBRANCH  14  15
ENDBRANCH  11  14
ENDBRANCH   6  11
BRANCH   1  21
ATOM     21  O   LIG    1       -9.853   8.129   1.276  0.00  0.00    -0.320 OA
BRANCH  21  23
ATOM     22  C   LIG    1      -11.891   8.828   2.371  0.00  0.00    +0.070 C 
ATOM     23  C   LIG    1      -10.455   8.333   2.556  0.00  0.00    +0.170 C 
ENDBRANCH  21  23
ENDBRANCH   1  21
TORSDOF 5
