REMARK  Name = ZINCvU00000008gl.0
REMARK                            x       y       z     vdW  Elec       q    Type
REMARK                         _______ _______ _______ _____ _____    ______ ____
ROOT
ATOM      1  N   LIG    1        2.042   0.667   0.127  0.00  0.00    -0.410 N 
ATOM      2  C   LIG    1        1.200   1.745   0.120  0.00  0.00    +0.150 A 
ATOM      3  N   LIG    1       -0.029   1.278   0.146  0.00  0.00    -0.290 NA
ATOM      4  N   LIG    1       -0.014  -0.006   0.169  0.00  0.00    -0.260 NA
ATOM      5  C   LIG    1        1.224  -0.442   0.159  0.00  0.00    +0.230 A 
ENDROOT
BRANCH   1  12
ATOM      6  C   LIG    1        3.425   0.729   2.614  0.00  0.00    +0.110 C 
ATOM      7  C   LIG    1        4.157   0.717   1.296  0.00  0.00    -0.060 A 
ATOM      8  C   LIG    1        5.538   0.736   1.272  0.00  0.00    +0.030 A 
ATOM      9  C   LIG    1        6.210   0.725   0.064  0.00  0.00    +0.050 A 
ATOM     10  C   LIG    1        5.502   0.694  -1.124  0.00  0.00    +0.030 A 
ATOM     11  C   LIG    1        4.121   0.668  -1.106  0.00  0.00    +0.040 A 
ATOM     12  C   LIG    1        3.443   0.686   0.106  0.00  0.00    +0.090 A 
ENDBRANCH   1  12
BRANCH   5  13
ATOM     13  C   LIG    1        1.659  -1.854   0.178  0.00  0.00    -0.020 A 
ATOM     14  C   LIG    1        2.986  -2.175   0.471  0.00  0.00    +0.040 A 
ATOM     15  C   LIG    1        3.384  -3.495   0.493  0.00  0.00    +0.030 A 
ATOM     16  C   LIG    1        2.474  -4.501   0.213  0.00  0.00    -0.020 A 
ATOM     17  C   LIG    1        1.158  -4.189  -0.084  0.00  0.00    +0.030 A 
ATOM     18 CL   LIG    1        2.985  -6.160   0.236  0.00  0.00    -0.060 Cl
ATOM     19  C   LIG    1        0.747  -2.872  -0.103  0.00  0.00    +0.090 A 
ENDBRANCH   5  13
BRANCH   2  20
ATOM     20  S   LIG    1        1.673   3.442   0.081  0.00  0.00    +0.100 S 
BRANCH  20  21
ATOM     21  C   LIG    1        0.041   4.224   0.090  0.00  0.00    +0.110 C 
BRANCH  21  22
ATOM     22  C   LIG    1        0.202   5.722   0.060  0.00  0.00    +0.540 C 
ATOM     23  N   LIG    1       -0.887   6.517   0.061  0.00  0.00    -0.600 N 
ATOM     24  C   LIG    1       -2.234   5.940  -0.042  0.00  0.00    +0.230 C 
ATOM     25  C   LIG    1       -3.080   6.463   1.129  0.00  0.00    +0.020 C 
ATOM     26  C   LIG    1       -3.050   7.993   1.130  0.00  0.00    +0.020 C 
ATOM     27  C   LIG    1       -1.610   8.476   1.322  0.00  0.00    +0.020 C 
ATOM     28  C   LIG    1       -2.872   6.361  -1.368  0.00  0.00    +0.020 C 
ATOM     29  C   LIG    1       -0.748   7.976   0.159  0.00  0.00    +0.210 C 
ATOM     30  C   LIG    1        0.717   8.336   0.410  0.00  0.00    +0.050 C 
ATOM     31  O   LIG    1        1.311   6.213   0.034  0.00  0.00    -0.520 OA
ENDBRANCH  21  22
ENDBRANCH  20  21
ENDBRANCH   2  20
TORSDOF 5
