REMARK  Name = ZINCpk00000xWUX3.0
REMARK                            x       y       z     vdW  Elec       q    Type
REMARK                         _______ _______ _______ _____ _____    ______ ____
ROOT
ATOM      1  C   LIG    1        1.362   2.058   0.042  0.00  0.00    +0.140 C 
ATOM      2  C   LIG    1        2.013   1.646  -1.283  0.00  0.00    +0.290 C 
ATOM      3  N   LIG    1        1.976   0.178  -1.381  0.00  0.00    -0.610 N 
ATOM      4  C   LIG    1        0.690  -0.498  -1.148  0.00  0.00    +0.270 C 
ATOM      5  C   LIG    1        0.104   0.019   0.170  0.00  0.00    +0.240 C 
ATOM      6  C   LIG    1        3.087  -0.526  -1.675  0.00  0.00    +0.610 C 
ATOM      7  O   LIG    1        4.128   0.054  -1.921  0.00  0.00    -0.500 OA
ATOM      8  O   LIG    1        0.074   1.448   0.144  0.00  0.00    -0.380 OA
ENDROOT
BRANCH   6   9
ATOM      9  C   LIG    1        3.042  -1.995  -1.699  0.00  0.00    -0.030 A 
ATOM     10  C   LIG    1        4.120  -2.808  -1.844  0.00  0.00    +0.090 A 
ATOM     11  C   LIG    1        3.604  -4.176  -1.807  0.00  0.00    -0.120 A 
ATOM     12  C   LIG    1        4.191  -5.440  -1.899  0.00  0.00    +0.060 A 
ATOM     13  C   LIG    1        3.398  -6.565  -1.831  0.00  0.00    +0.090 A 
ATOM     14  C   LIG    1        2.022  -6.444  -1.672  0.00  0.00    +0.040 A 
ATOM     15  C   LIG    1        1.431  -5.202  -1.578  0.00  0.00    +0.070 A 
ATOM     16  F   LIG    1        3.959  -7.790  -1.920  0.00  0.00    -0.130 F 
ATOM     17  C   LIG    1        2.211  -4.054  -1.645  0.00  0.00    +0.050 A 
ATOM     18  O   LIG    1        1.922  -2.739  -1.585  0.00  0.00    -0.180 OA
ENDBRANCH   6   9
BRANCH   1  19
ATOM     19  C   LIG    1        1.211   3.580   0.086  0.00  0.00    +0.280 C 
BRANCH  19  21
ATOM     20  C   LIG    1        1.683   3.662   2.436  0.00  0.00    +0.310 C 
ATOM     21  N   LIG    1        0.693   3.984   1.399  0.00  0.00    -0.360 N 
ATOM     22  H   LIG    1       -0.165   3.489   1.589  0.00  0.00    +0.430 HD
BRANCH  21  23
ATOM     23  C   LIG    1        0.435   5.430   1.401  0.00  0.00    +0.160 C 
BRANCH  23  24
ATOM     24  C   LIG    1       -0.210   5.824   2.705  0.00  0.00    +0.490 C 
ATOM     25  O   LIG    1       -0.508   6.988   2.910  0.00  0.00    -0.640 OA
ATOM     26  O   LIG    1       -0.435   4.978   3.554  0.00  0.00    -0.670 OA
ENDBRANCH  23  24
ENDBRANCH  21  23
ENDBRANCH  19  21
ENDBRANCH   1  19
TORSDOF 5
