REMARK  Name = ZINCpk00000xWUX3.1
REMARK                            x       y       z     vdW  Elec       q    Type
REMARK                         _______ _______ _______ _____ _____    ______ ____
ROOT
ATOM      1  C   LIG    1        2.189   1.234   1.430  0.00  0.00    +0.140 C 
ATOM      2  C   LIG    1        2.284  -0.285   1.247  0.00  0.00    +0.290 C 
ATOM      3  N   LIG    1        0.920  -0.835   1.214  0.00  0.00    -0.610 N 
ATOM      4  C   LIG    1       -0.053  -0.215   0.300  0.00  0.00    +0.270 C 
ATOM      5  C   LIG    1       -0.034   1.301   0.529  0.00  0.00    +0.240 C 
ATOM      6  C   LIG    1        0.571  -1.875   1.997  0.00  0.00    +0.610 C 
ATOM      7  O   LIG    1        1.405  -2.413   2.701  0.00  0.00    -0.500 OA
ATOM      8  O   LIG    1        1.312   1.773   0.439  0.00  0.00    -0.380 OA
ENDROOT
BRANCH   6   9
ATOM      9  C   LIG    1       -0.816  -2.360   2.000  0.00  0.00    -0.030 A 
ATOM     10  C   LIG    1       -1.314  -3.299   2.846  0.00  0.00    +0.090 A 
ATOM     11  C   LIG    1       -2.723  -3.460   2.488  0.00  0.00    -0.120 A 
ATOM     12  C   LIG    1       -3.764  -4.256   2.971  0.00  0.00    +0.060 A 
ATOM     13  C   LIG    1       -5.011  -4.170   2.392  0.00  0.00    +0.090 A 
ATOM     14  C   LIG    1       -5.233  -3.297   1.333  0.00  0.00    +0.040 A 
ATOM     15  C   LIG    1       -4.214  -2.506   0.848  0.00  0.00    +0.070 A 
ATOM     16  F   LIG    1       -6.023  -4.937   2.854  0.00  0.00    -0.130 F 
ATOM     17  C   LIG    1       -2.948  -2.577   1.416  0.00  0.00    +0.050 A 
ATOM     18  O   LIG    1       -1.786  -1.943   1.160  0.00  0.00    -0.180 OA
ENDBRANCH   6   9
BRANCH   1  19
ATOM     19  C   LIG    1        3.579   1.855   1.275  0.00  0.00    +0.280 C 
BRANCH  19  21
ATOM     20  C   LIG    1        4.806   3.916   1.265  0.00  0.00    +0.320 C 
ATOM     21  N   LIG    1        3.504   3.297   1.547  0.00  0.00    -0.360 N 
ATOM     22  H   LIG    1        2.799   3.713   0.958  0.00  0.00    +0.430 HD
BRANCH  21  23
ATOM     23  C   LIG    1        3.154   3.512   2.957  0.00  0.00    +0.150 C 
BRANCH  23  24
ATOM     24  C   LIG    1        2.956   4.985   3.206  0.00  0.00    +0.490 C 
ATOM     25  O   LIG    1        2.658   5.380   4.321  0.00  0.00    -0.640 OA
ATOM     26  O   LIG    1        3.095   5.782   2.294  0.00  0.00    -0.670 OA
ENDBRANCH  23  24
ENDBRANCH  21  23
ENDBRANCH  19  21
ENDBRANCH   1  19
TORSDOF 5
