REMARK  Name = ZINCpe00000MAgI6.0
REMARK                            x       y       z     vdW  Elec       q    Type
REMARK                         _______ _______ _______ _____ _____    ______ ____
ROOT
ATOM      1  O   LIG    1        5.117   3.575  -3.689  0.00  0.00    -0.500 OA
ATOM      2  C   LIG    1        5.618   3.926  -2.642  0.00  0.00    +0.530 C 
ATOM      3  N   LIG    1        5.085   3.523  -1.471  0.00  0.00    -0.730 N 
ATOM      4  H   LIG    1        5.485   3.804  -0.634  0.00  0.00    +0.400 HD
ENDROOT
BRANCH   2   5
ATOM      5  C   LIG    1        6.836   4.814  -2.649  0.00  0.00    +0.140 C 
ATOM      6  C   LIG    1        6.485   6.168  -2.028  0.00  0.00    +0.220 C 
ATOM      7  O   LIG    1        7.628   7.028  -2.100  0.00  0.00    -0.350 OA
ATOM      8  C   LIG    1        8.134   7.185  -3.425  0.00  0.00    +0.050 C 
ATOM      9  C   LIG    1        8.431   5.849  -4.105  0.00  0.00    +0.250 C 
ATOM     10  C   LIG    1        9.283   8.195  -3.530  0.00  0.00    +0.060 C 
ATOM     11  C   LIG    1        8.639   8.668  -4.845  0.00  0.00    +0.030 C 
ATOM     12  C   LIG    1        7.304   8.141  -4.291  0.00  0.00    +0.010 C 
ATOM     13  O   LIG    1        7.277   5.007  -3.996  0.00  0.00    -0.350 OA
ENDBRANCH   2   5
BRANCH   3  14
ATOM     14  C   LIG    1        3.901   2.661  -1.464  0.00  0.00    +0.270 C 
BRANCH  14  15
ATOM     15  C   LIG    1        3.503   2.353  -0.019  0.00  0.00    +0.300 C 
BRANCH  15  16
ATOM     16  N   LIG    1        2.319   1.490  -0.012  0.00  0.00    -0.550 N 
ATOM     17  C   LIG    1        1.080   2.048   0.003  0.00  0.00    +0.570 A 
ATOM     18  N   LIG    1       -0.016   1.352   0.009  0.00  0.00    -0.520 NA
ATOM     19  C   LIG    1        0.002  -0.004   0.002  0.00  0.00    +0.150 A 
ATOM     20  C   LIG    1       -1.176  -0.753   0.009  0.00  0.00    +0.030 A 
ATOM     21  C   LIG    1       -1.111  -2.128   0.000  0.00  0.00    +0.070 A 
ATOM     22  C   LIG    1        0.114  -2.781  -0.015  0.00  0.00    +0.010 A 
ATOM     23  C   LIG    1        1.291  -2.065  -0.022  0.00  0.00    +0.100 A 
ATOM     24  C   LIG    1        1.247  -0.672  -0.013  0.00  0.00    -0.200 A 
ATOM     25  C   LIG    1        2.469   0.145  -0.021  0.00  0.00    +0.550 A 
ATOM     26  O   LIG    1        3.573  -0.368  -0.034  0.00  0.00    -0.500 OA
ENDBRANCH  15  16
ENDBRANCH  14  15
ENDBRANCH   3  14
TORSDOF 4
