REMARK  Name = ZINCqH0000037yNx.0
REMARK                            x       y       z     vdW  Elec       q    Type
REMARK                         _______ _______ _______ _____ _____    ______ ____
ROOT
ATOM      1  C   LIG    1        3.201   0.022  -0.061  0.00  0.00    +0.600 C 
ATOM      2  N   LIG    1        3.538  -0.568   1.102  0.00  0.00    -0.710 N 
ATOM      3  H   LIG    1        3.374  -0.112   1.943  0.00  0.00    +0.400 HD
ATOM      4  O   LIG    1        3.315  -0.588  -1.108  0.00  0.00    -0.530 OA
ENDROOT
BRANCH   1   7
ATOM      5  C   LIG    1        4.945   2.597  -0.073  0.00  0.00    +0.150 C 
ATOM      6  C   LIG    1        3.439   2.544  -0.072  0.00  0.00    +0.130 A 
ATOM      7  C   LIG    1        2.695   1.401  -0.066  0.00  0.00    -0.230 A 
ATOM      8  C   LIG    1        1.282   1.823  -0.066  0.00  0.00    -0.070 A 
ATOM      9  C   LIG    1        0.068   1.140  -0.062  0.00  0.00    +0.050 A 
ATOM     10  C   LIG    1       -1.113   1.849  -0.069  0.00  0.00    -0.010 A 
ATOM     11  C   LIG    1       -1.097   3.236  -0.069  0.00  0.00    +0.030 A 
ATOM     12  C   LIG    1        0.096   3.924  -0.073  0.00  0.00    -0.010 A 
ATOM     13  C   LIG    1        1.300   3.227  -0.072  0.00  0.00    +0.090 A 
ATOM     14  N   LIG    1        2.621   3.623  -0.075  0.00  0.00    -0.580 N 
ATOM     15  H   LIG    1        2.922   4.546  -0.079  0.00  0.00    +0.420 HD
ENDBRANCH   1   7
BRANCH   2  16
ATOM     16  C   LIG    1        4.153  -1.898   1.098  0.00  0.00    +0.340 C 
BRANCH  16  17
ATOM     17  C   LIG    1        4.330  -2.374   2.517  0.00  0.00    -0.130 A 
ATOM     18  C   LIG    1        5.579  -2.356   3.111  0.00  0.00    +0.090 A 
ATOM     19  C   LIG    1        5.697  -2.803   4.421  0.00  0.00    -0.040 A 
ATOM     20  C   LIG    1        4.573  -3.248   5.087  0.00  0.00    +0.280 A 
ATOM     21  N   LIG    1        3.393  -3.254   4.495  0.00  0.00    -0.510 NA
ATOM     22  C   LIG    1        3.239  -2.831   3.250  0.00  0.00    +0.310 A 
BRANCH  22  23
ATOM     23  N   LIG    1        1.977  -2.849   2.667  0.00  0.00    -0.480 N 
ATOM     24  C   LIG    1        1.094  -1.859   3.296  0.00  0.00    +0.190 C 
ATOM     25  C   LIG    1       -0.234  -1.804   2.538  0.00  0.00    +0.020 C 
ATOM     26  C   LIG    1       -0.888  -3.188   2.563  0.00  0.00    +0.010 C 
ATOM     27  C   LIG    1        0.072  -4.209   1.946  0.00  0.00    +0.020 C 
ATOM     28  C   LIG    1        1.391  -4.194   2.722  0.00  0.00    +0.180 C 
ENDBRANCH  22  23
ENDBRANCH  16  17
ENDBRANCH   2  16
TORSDOF 4
