REMARK  Name = ZINCpe000000Waby.0
REMARK                            x       y       z     vdW  Elec       q    Type
REMARK                         _______ _______ _______ _____ _____    ______ ____
ROOT
ATOM      1  C   LIG    1        3.203   3.771  -0.007  0.00  0.00    +0.080 C 
ENDROOT
BRANCH   1   2
ATOM      2  C   LIG    1        4.484   4.606  -0.014  0.00  0.00    +0.040 C 
BRANCH   2   7
ATOM      3  C   LIG    1        7.192   7.998  -0.631  0.00  0.00    +0.150 C 
ATOM      4  C   LIG    1        6.297   9.115  -0.032  0.00  0.00    +0.070 C 
ATOM      5  C   LIG    1        4.902   8.457   0.004  0.00  0.00    +0.230 C 
ATOM      6  N   LIG    1        5.105   7.000  -0.006  0.00  0.00    -0.620 N 
ATOM      7  C   LIG    1        4.130   6.071  -0.002  0.00  0.00    +0.520 C 
ATOM      8  O   LIG    1        2.966   6.413   0.010  0.00  0.00    -0.480 OA
ATOM      9  C   LIG    1        6.554   6.726  -0.015  0.00  0.00    +0.240 C 
BRANCH   3  11
ATOM     10  C   LIG    1        9.509   7.667  -1.149  0.00  0.00    +0.200 C 
ATOM     11  O   LIG    1        8.549   8.146  -0.205  0.00  0.00    -0.370 OA
ENDBRANCH   3  11
BRANCH   5  12
ATOM     12  C   LIG    1        4.096   8.878  -1.227  0.00  0.00    +0.150 C 
BRANCH  12  13
ATOM     13  O   LIG    1        2.773   8.345  -1.136  0.00  0.00    -0.530 OA
ATOM     14  H   LIG    1        2.205   8.572  -1.884  0.00  0.00    +0.370 HD
ENDBRANCH  12  13
ENDBRANCH   5  12
ENDBRANCH   2   7
ENDBRANCH   1   2
BRANCH   1  15
ATOM     15  C   LIG    1        3.563   2.284  -0.019  0.00  0.00    +0.120 C 
BRANCH  15  16
ATOM     16  C   LIG    1        2.300   1.461  -0.012  0.00  0.00    +0.390 A 
ATOM     17  N   LIG    1        1.160   2.083   0.002  0.00  0.00    -0.510 NA
ATOM     18  C   LIG    1       -0.017   1.409   0.010  0.00  0.00    +0.150 A 
ATOM     19  C   LIG    1       -1.243   2.076   0.031  0.00  0.00    +0.030 A 
ATOM     20  C   LIG    1       -2.414   1.351   0.033  0.00  0.00    +0.070 A 
ATOM     21  C   LIG    1       -2.392  -0.037   0.026  0.00  0.00    -0.010 A 
ATOM     22  C   LIG    1       -1.194  -0.718   0.010  0.00  0.00    +0.100 A 
ATOM     23  C   LIG    1        0.002  -0.004   0.002  0.00  0.00    -0.200 A 
ATOM     24  C   LIG    1        1.310  -0.676  -0.014  0.00  0.00    +0.550 A 
ATOM     25  O   LIG    1        1.397  -1.891  -0.021  0.00  0.00    -0.510 OA
ATOM     26  N   LIG    1        2.413   0.107  -0.020  0.00  0.00    -0.650 N 
ATOM     27  H   LIG    1        3.293  -0.301  -0.031  0.00  0.00    +0.420 HD
ENDBRANCH  15  16
ENDBRANCH   1  15
TORSDOF 7
