REMARK  Name = ZINCqH00000502GZ.0
REMARK                            x       y       z     vdW  Elec       q    Type
REMARK                         _______ _______ _______ _____ _____    ______ ____
ROOT
ATOM      1  C   LIG    1        2.428   5.996  -1.669  0.00  0.00    +0.170 C 
ATOM      2  C   LIG    1        0.988   6.127  -2.095  0.00  0.00    +0.180 A 
ATOM      3  C   LIG    1        0.536   6.559  -3.327  0.00  0.00    -0.290 A 
ATOM      4  C   LIG    1       -0.876   6.530  -3.286  0.00  0.00    +0.310 A 
ATOM      5  N   LIG    1       -1.237   6.103  -2.107  0.00  0.00    -0.290 NA
ATOM      6  N   LIG    1       -0.090   5.842  -1.349  0.00  0.00    -0.350 N 
ENDROOT
BRANCH   3   7
ATOM      7  C   LIG    1        1.369   6.977  -4.467  0.00  0.00    +0.560 C 
ATOM      8  O   LIG    1        2.581   6.955  -4.375  0.00  0.00    -0.510 OA
BRANCH   7   9
ATOM      9  O   LIG    1        0.789   7.384  -5.613  0.00  0.00    -0.350 OA
BRANCH   9  10
ATOM     10  C   LIG    1        1.672   7.781  -6.695  0.00  0.00    +0.400 C 
BRANCH  10  11
ATOM     11  C   LIG    1        0.850   8.202  -7.886  0.00  0.00    +0.240 A 
ATOM     12  N   LIG    1        0.430   9.411  -8.109  0.00  0.00    -0.450 NA
ATOM     13  C   LIG    1       -0.275   9.423  -9.272  0.00  0.00    +0.020 A 
ATOM     14  C   LIG    1       -0.940  10.419  -9.989  0.00  0.00    +0.090 A 
ATOM     15  C   LIG    1       -1.584  10.100 -11.164  0.00  0.00    +0.020 A 
ATOM     16  C   LIG    1       -1.575   8.797 -11.639  0.00  0.00    +0.050 A 
ATOM     17  C   LIG    1       -0.922   7.803 -10.941  0.00  0.00    +0.040 A 
ATOM     18  C   LIG    1       -0.269   8.105  -9.756  0.00  0.00    +0.020 A 
ATOM     19  O   LIG    1        0.441   7.379  -8.865  0.00  0.00    -0.210 OA
ENDBRANCH  10  11
ENDBRANCH   9  10
ENDBRANCH   7   9
ENDBRANCH   3   7
BRANCH   6  20
ATOM     20  C   LIG    1       -0.070   5.347   0.030  0.00  0.00    +0.390 C 
BRANCH  20  21
ATOM     21  C   LIG    1       -0.050   3.840   0.022  0.00  0.00    -0.120 A 
ATOM     22  C   LIG    1        1.156   3.165   0.008  0.00  0.00    +0.020 A 
ATOM     23  C   LIG    1        1.175   1.783   0.000  0.00  0.00    +0.010 A 
ATOM     24  C   LIG    1       -0.013   1.076   0.008  0.00  0.00    +0.020 A 
ATOM     25  C   LIG    1       -1.219   1.751   0.017  0.00  0.00    +0.010 A 
ATOM     26  C   LIG    1       -1.238   3.133   0.030  0.00  0.00    +0.040 A 
ENDBRANCH  20  21
ENDBRANCH   6  20
TORSDOF 6
