REMARK  Name = ZINCtV000002Kb3g.0
REMARK                            x       y       z     vdW  Elec       q    Type
REMARK                         _______ _______ _______ _____ _____    ______ ____
ROOT
ATOM      1  C   LIG    1        3.610   3.211   0.109  0.00  0.00    +0.250 C 
ENDROOT
BRANCH   1   4
ATOM      2  N   LIG    1        5.948   3.621   0.804  0.00  0.00    -0.670 N 
ATOM      3  H   LIG    1        6.197   2.805   0.343  0.00  0.00    +0.410 HD
ATOM      4  C   LIG    1        4.673   4.053   0.766  0.00  0.00    +0.510 C 
ATOM      5  O   LIG    1        4.380   5.122   1.261  0.00  0.00    -0.500 OA
BRANCH   2  12
ATOM      6  C   LIG    1       12.271   7.036   3.320  0.00  0.00    +0.190 C 
ATOM      7  C   LIG    1       11.002   6.373   2.849  0.00  0.00    +0.090 A 
ATOM      8  N   LIG    1        9.882   6.447   3.462  0.00  0.00    -0.470 NA
ATOM      9  C   LIG    1        8.827   5.803   2.925  0.00  0.00    +0.070 A 
ATOM     10  C   LIG    1        7.497   5.718   3.385  0.00  0.00    +0.100 A 
ATOM     11  C   LIG    1        6.569   5.007   2.688  0.00  0.00    +0.040 A 
ATOM     12  C   LIG    1        6.914   4.349   1.509  0.00  0.00    +0.170 A 
ATOM     13  C   LIG    1        8.213   4.412   1.040  0.00  0.00    +0.040 A 
ATOM     14  C   LIG    1        9.171   5.141   1.741  0.00  0.00    -0.170 A 
ATOM     15  S   LIG    1       10.880   5.430   1.432  0.00  0.00    +0.100 S 
ENDBRANCH   2  12
ENDBRANCH   1   4
BRANCH   1  16
ATOM     16  C   LIG    1        3.653   3.425  -1.405  0.00  0.00    -0.010 C 
ATOM     17  C   LIG    1        3.272   4.872  -1.726  0.00  0.00    +0.030 C 
ATOM     18  C   LIG    1        2.663   2.476  -2.083  0.00  0.00    +0.030 C 
ENDBRANCH   1  16
BRANCH   1  19
ATOM     19  N   LIG    1        2.293   3.599   0.621  0.00  0.00    -0.710 N 
ATOM     20  H   LIG    1        2.079   4.536   0.746  0.00  0.00    +0.420 HD
BRANCH  19  21
ATOM     21  C   LIG    1        1.346   2.618   0.929  0.00  0.00    +0.260 A 
ATOM     22  C   LIG    1        1.617   1.282   0.665  0.00  0.00    -0.050 A 
ATOM     23  C   LIG    1        0.680   0.315   0.971  0.00  0.00    +0.130 A 
ATOM     24  C   LIG    1       -0.530   0.676   1.534  0.00  0.00    -0.230 A 
ATOM     25  C   LIG    1       -0.802   2.005   1.803  0.00  0.00    +0.140 A 
ATOM     26  C   LIG    1        0.131   2.978   1.500  0.00  0.00    -0.120 A 
ATOM     27 CL   LIG    1       -0.214   4.647   1.830  0.00  0.00    -0.050 Cl
BRANCH  24  28
ATOM     28  C   LIG    1       -1.553  -0.382   1.861  0.00  0.00    +0.520 C 
ATOM     29  F   LIG    1       -1.423  -1.449   0.966  0.00  0.00    -0.180 F 
ATOM     30  F   LIG    1       -2.837   0.163   1.754  0.00  0.00    -0.180 F 
ATOM     31  F   LIG    1       -1.348  -0.840   3.167  0.00  0.00    -0.180 F 
ENDBRANCH  24  28
ENDBRANCH  19  21
ENDBRANCH   1  19
TORSDOF 6
