REMARK  Name = ZINCpe00000MJLAZ.0
REMARK                            x       y       z     vdW  Elec       q    Type
REMARK                         _______ _______ _______ _____ _____    ______ ____
ROOT
ATOM      1  C   LIG    1       -1.034   5.585  -3.771  0.00  0.00    -0.140 A 
ATOM      2  C   LIG    1       -1.645   4.445  -3.445  0.00  0.00    -0.010 A 
ATOM      3  C   LIG    1       -1.329   3.951  -2.192  0.00  0.00    +0.170 A 
ATOM      4  C   LIG    1       -0.467   4.694  -1.496  0.00  0.00    -0.800 A 
ATOM      5  S   LIG    1        0.002   6.098  -2.446  0.00  0.00    +0.230 S 
ENDROOT
BRANCH   4   6
ATOM      6  S   LIG    1        0.117   4.323   0.125  0.00  0.00    +2.710 S 
ATOM      7  O   LIG    1        0.537   5.557   0.692  0.00  0.00    -0.940 OA
ATOM      8  O   LIG    1       -0.864   3.486   0.723  0.00  0.00    -0.940 OA
BRANCH   6   9
ATOM      9  N   LIG    1        1.480   3.399  -0.045  0.00  0.00    -0.990 NA
ATOM     10  C   LIG    1        2.828   3.993   0.025  0.00  0.00    +0.280 C 
ATOM     11  C   LIG    1        3.643   3.530  -1.185  0.00  0.00    +0.220 C 
ATOM     12  O   LIG    1        3.567   2.105  -1.314  0.00  0.00    -0.360 OA
ATOM     13  C   LIG    1        2.240   1.630  -1.520  0.00  0.00    +0.140 C 
ATOM     14  C   LIG    1        2.200   0.121  -1.752  0.00  0.00    +0.030 C 
ATOM     15  C   LIG    1        0.736  -0.304  -1.927  0.00  0.00    +0.220 C 
ATOM     16  O   LIG    1       -0.031   0.093  -0.791  0.00  0.00    -0.360 OA
ATOM     17  C   LIG    1       -0.035   1.501  -0.527  0.00  0.00    +0.230 C 
ATOM     18  C   LIG    1        1.402   1.951  -0.274  0.00  0.00    +0.190 C 
ENDBRANCH   6   9
ENDBRANCH   4   6
BRANCH   1  19
ATOM     19  C   LIG    1       -1.204   6.320  -5.076  0.00  0.00    +0.120 C 
BRANCH  19  20
ATOM     20  C   LIG    1       -2.357   7.318  -4.952  0.00  0.00    +0.300 C 
BRANCH  20  22
ATOM     21  C   LIG    1       -3.486   8.967  -6.346  0.00  0.00    +0.650 C 
ATOM     22  N   LIG    1       -2.523   8.032  -6.220  0.00  0.00    -0.710 N 
ATOM     23  H   LIG    1       -1.940   7.832  -6.969  0.00  0.00    +0.410 HD
ATOM     24  O   LIG    1       -4.216   9.217  -5.408  0.00  0.00    -0.570 OA
BRANCH  21  26
ATOM     25  C   LIG    1       -4.695  10.617  -7.575  0.00  0.00    +0.300 C 
ATOM     26  O   LIG    1       -3.638   9.624  -7.512  0.00  0.00    -0.370 OA
ENDBRANCH  21  26
ENDBRANCH  20  22
ENDBRANCH  19  20
ENDBRANCH   1  19
TORSDOF 6
