REMARK  Name = ZINCrH000004sGM0.0
REMARK                            x       y       z     vdW  Elec       q    Type
REMARK                         _______ _______ _______ _____ _____    ______ ____
ROOT
ATOM      1  C   LIG    1        2.574  -1.234   0.776  0.00  0.00    +0.600 C 
ATOM      2  N   LIG    1        2.251  -2.349   1.462  0.00  0.00    -0.720 N 
ATOM      3  H   LIG    1        1.510  -2.335   2.088  0.00  0.00    +0.410 HD
ATOM      4  O   LIG    1        3.503  -1.251  -0.008  0.00  0.00    -0.530 OA
ENDROOT
BRANCH   1  11
ATOM      5  C   LIG    1        3.206   1.023   2.915  0.00  0.00    +0.160 C 
ATOM      6  C   LIG    1        2.071   1.018   1.923  0.00  0.00    +0.110 A 
ATOM      7  N   LIG    1        1.166   1.947   1.790  0.00  0.00    -0.290 NA
ATOM      8  N   LIG    1        0.286   1.579   0.766  0.00  0.00    -0.340 N 
ATOM      9  C   LIG    1        0.679   0.393   0.273  0.00  0.00    +0.130 A 
ATOM     10  C   LIG    1        0.015  -0.373  -0.842  0.00  0.00    +0.140 C 
ATOM     11  C   LIG    1        1.801   0.005   0.976  0.00  0.00    -0.290 A 
BRANCH   8  12
ATOM     12  C   LIG    1       -0.865   2.358   0.305  0.00  0.00    +0.180 C 
ATOM     13  C   LIG    1       -0.766   2.569  -1.208  0.00  0.00    +0.050 C 
ATOM     14  C   LIG    1       -0.877   3.717   1.009  0.00  0.00    +0.070 C 
ATOM     15  C   LIG    1       -2.156   1.604   0.631  0.00  0.00    +0.050 C 
ENDBRANCH   8  12
ENDBRANCH   1  11
BRANCH   2  16
ATOM     16  C   LIG    1        3.019  -3.580   1.263  0.00  0.00    +0.270 C 
BRANCH  16  17
ATOM     17  C   LIG    1        2.561  -4.636   2.271  0.00  0.00    +0.040 C 
BRANCH  17  18
ATOM     18  C   LIG    1        3.234  -5.949   1.965  0.00  0.00    -0.070 A 
ATOM     19  C   LIG    1        4.538  -5.966   1.506  0.00  0.00    +0.020 A 
ATOM     20  C   LIG    1        5.157  -7.171   1.229  0.00  0.00    +0.000 A 
ATOM     21  C   LIG    1        4.470  -8.357   1.403  0.00  0.00    +0.000 A 
ATOM     22  C   LIG    1        3.164  -8.339   1.856  0.00  0.00    +0.000 A 
ATOM     23  C   LIG    1        2.546  -7.135   2.137  0.00  0.00    +0.000 A 
ENDBRANCH  17  18
BRANCH  17  24
ATOM     24  C   LIG    1        2.936  -4.188   3.685  0.00  0.00    -0.050 C 
ATOM     25  C   LIG    1        2.220  -2.876   4.011  0.00  0.00    +0.030 C 
ATOM     26  C   LIG    1        4.449  -3.977   3.768  0.00  0.00    +0.030 C 
BRANCH  24  27
ATOM     27  C   LIG    1        2.515  -5.262   4.689  0.00  0.00    +0.180 C 
BRANCH  27  28
ATOM     28  O   LIG    1        2.757  -4.794   6.017  0.00  0.00    -0.570 OA
ATOM     29  H   LIG    1        2.513  -5.426   6.708  0.00  0.00    +0.380 HD
ENDBRANCH  27  28
ENDBRANCH  24  27
ENDBRANCH  17  24
ENDBRANCH  16  17
ENDBRANCH   2  16
TORSDOF 8
