REMARK  Name = ZINCrH000004sX68.0
REMARK                            x       y       z     vdW  Elec       q    Type
REMARK                         _______ _______ _______ _____ _____    ______ ____
ROOT
ATOM      1  C   LIG    1        0.437   5.340   4.752  0.00  0.00    +0.340 C 
ATOM      2  N   LIG    1        0.479   3.886   4.576  0.00  0.00    -0.450 N 
ATOM      3  C   LIG    1       -0.084   3.187   3.526  0.00  0.00    +0.030 A 
ATOM      4  C   LIG    1        0.149   1.860   3.699  0.00  0.00    +0.020 A 
ATOM      5  C   LIG    1        0.893   1.704   4.893  0.00  0.00    -0.120 A 
ATOM      6  C   LIG    1        1.411   0.591   5.566  0.00  0.00    +0.140 A 
ATOM      7  C   LIG    1        2.099   0.761   6.732  0.00  0.00    -0.210 A 
ATOM      8  C   LIG    1        2.290   2.031   7.261  0.00  0.00    +0.090 A 
ATOM      9  C   LIG    1        1.789   3.142   6.619  0.00  0.00    +0.010 A 
ATOM     10  C   LIG    1        1.085   2.994   5.428  0.00  0.00    +0.130 A 
ENDROOT
BRANCH   3  11
ATOM     11  C   LIG    1       -0.823   3.784   2.403  0.00  0.00    +0.590 C 
ATOM     12  N   LIG    1       -0.838   3.169   1.204  0.00  0.00    -0.600 N 
ATOM     13  C   LIG    1        0.027   2.010   0.946  0.00  0.00    +0.300 C 
ATOM     14  C   LIG    1        0.848   2.279  -0.319  0.00  0.00    +0.070 C 
ATOM     15  C   LIG    1       -0.096   2.627  -1.472  0.00  0.00    +0.100 C 
ATOM     16  C   LIG    1       -0.880   3.896  -1.125  0.00  0.00    +0.020 C 
ATOM     17  C   LIG    1       -1.721   3.644   0.130  0.00  0.00    +0.320 C 
ATOM     18  O   LIG    1       -1.419   4.833   2.556  0.00  0.00    -0.530 OA
BRANCH  15  19
ATOM     19  C   LIG    1        0.719   2.864  -2.745  0.00  0.00    +0.420 C 
ATOM     20  F   LIG    1        1.611   3.921  -2.537  0.00  0.00    -0.180 F 
ATOM     21  F   LIG    1       -0.145   3.182  -3.799  0.00  0.00    -0.180 F 
ATOM     22  F   LIG    1        1.434   1.704  -3.062  0.00  0.00    -0.170 F 
ENDBRANCH  15  19
BRANCH  15  23
ATOM     23  O   LIG    1       -1.008   1.547  -1.683  0.00  0.00    -0.520 OA
ATOM     24  H   LIG    1       -1.638   1.699  -2.401  0.00  0.00    +0.390 HD
ENDBRANCH  15  23
ENDBRANCH   3  11
BRANCH   7  25
ATOM     25  C   LIG    1        2.656  -0.439   7.453  0.00  0.00    +0.510 C 
ATOM     26  F   LIG    1        3.559  -1.106   6.618  0.00  0.00    -0.180 F 
ATOM     27  F   LIG    1        1.611  -1.304   7.795  0.00  0.00    -0.180 F 
ATOM     28  F   LIG    1        3.315  -0.022   8.614  0.00  0.00    -0.180 F 
ENDBRANCH   7  25
TORSDOF 4
