REMARK  Name = ZINCvU0000000ISr.0
REMARK                            x       y       z     vdW  Elec       q    Type
REMARK                         _______ _______ _______ _____ _____    ______ ____
ROOT
ATOM      1  C   LIG    1       -4.937  -3.263  -0.142  0.00  0.00    +0.570 C 
ATOM      2  N   LIG    1       -4.954  -4.608  -0.224  0.00  0.00    -0.610 N 
ATOM      3  C   LIG    1       -3.700  -5.370  -0.296  0.00  0.00    +0.290 C 
ATOM      4  C   LIG    1       -3.708  -6.431   0.814  0.00  0.00    +0.040 C 
ATOM      5  C   LIG    1       -4.970  -7.286   0.685  0.00  0.00    +0.120 C 
ATOM      6  C   LIG    1       -6.208  -6.402   0.856  0.00  0.00    +0.040 C 
ATOM      7  C   LIG    1       -6.228  -5.340  -0.249  0.00  0.00    +0.270 C 
ATOM      8  O   LIG    1       -3.880  -2.674  -0.022  0.00  0.00    -0.520 OA
ENDROOT
BRANCH   5   9
ATOM      9  C   LIG    1       -4.965  -8.353   1.750  0.00  0.00    +0.250 A 
ATOM     10  N   LIG    1       -4.936  -8.125   3.029  0.00  0.00    -0.470 NA
ATOM     11  C   LIG    1       -4.944  -9.316   3.687  0.00  0.00    +0.020 A 
ATOM     12  C   LIG    1       -4.926  -9.675   5.035  0.00  0.00    +0.080 A 
ATOM     13  C   LIG    1       -4.935 -11.006   5.388  0.00  0.00    +0.020 A 
ATOM     14  C   LIG    1       -4.962 -11.991   4.411  0.00  0.00    +0.050 A 
ATOM     15  C   LIG    1       -4.980 -11.651   3.075  0.00  0.00    +0.050 A 
ATOM     16  C   LIG    1       -4.972 -10.316   2.702  0.00  0.00    +0.010 A 
ATOM     17  O   LIG    1       -4.984  -9.674   1.513  0.00  0.00    -0.210 OA
ENDBRANCH   5   9
BRANCH   1  21
ATOM     18  C   LIG    1       -8.504  -1.053  -0.255  0.00  0.00    +0.380 A 
ATOM     19  C   LIG    1       -8.432  -2.235  -0.991  0.00  0.00    -0.020 A 
ATOM     20  C   LIG    1       -7.276  -2.968  -0.972  0.00  0.00    +0.110 A 
ATOM     21  C   LIG    1       -6.202  -2.504  -0.198  0.00  0.00    -0.190 A 
ATOM     22  C   LIG    1       -6.346  -1.315   0.518  0.00  0.00    +0.340 A 
ATOM     23  N   LIG    1       -7.473  -0.637   0.469  0.00  0.00    -0.490 NA
BRANCH  18  25
ATOM     24  C   LIG    1      -10.674  -0.486   0.776  0.00  0.00    +0.310 C 
ATOM     25  N   LIG    1       -9.670  -0.306  -0.276  0.00  0.00    -0.590 N 
BRANCH  25  26
ATOM     26  C   LIG    1       -9.889   0.620  -1.300  0.00  0.00    +0.210 A 
ATOM     27  C   LIG    1       -8.889   0.881  -2.228  0.00  0.00    -0.070 A 
ATOM     28  C   LIG    1       -9.110   1.793  -3.241  0.00  0.00    +0.050 A 
ATOM     29  C   LIG    1      -10.322   2.453  -3.326  0.00  0.00    -0.050 A 
ATOM     30  C   LIG    1      -11.318   2.199  -2.401  0.00  0.00    +0.040 A 
ATOM     31  C   LIG    1      -11.106   1.285  -1.389  0.00  0.00    -0.050 A 
ENDBRANCH  25  26
ENDBRANCH  18  25
ENDBRANCH   1  21
TORSDOF 4
