REMARK  Name = ZINC560000003WjE.0
REMARK                            x       y       z     vdW  Elec       q    Type
REMARK                         _______ _______ _______ _____ _____    ______ ____
ROOT
ATOM      1  C   LIG    1       -0.013   1.086   0.008  0.00  0.00    +0.190 C 
ATOM      2  C   LIG    1       -0.718   1.572   1.248  0.00  0.00    +0.450 C 
ATOM      3  O   LIG    1       -1.159   0.776   2.043  0.00  0.00    -0.490 OA
ENDROOT
BRANCH   2   4
ATOM      4  O   LIG    1       -0.857   2.889   1.469  0.00  0.00    -0.190 OA
BRANCH   4   5
ATOM      5  O   LIG    1       -1.456   3.232   2.523  0.00  0.00    -0.380 OA
ATOM      6  H   LIG    1       -1.531   4.189   2.638  0.00  0.00    +0.410 HD
ENDBRANCH   4   5
ENDBRANCH   2   4
TORSDOF 2
