REMARK  Name = ZINCvU0000000HMh.0
REMARK                            x       y       z     vdW  Elec       q    Type
REMARK                         _______ _______ _______ _____ _____    ______ ____
ROOT
ATOM      1  C   LIG    1        2.584   0.625  -2.326  0.00  0.00    +0.510 C 
ATOM      2  N   LIG    1        2.788   0.472  -3.650  0.00  0.00    -0.650 N 
ATOM      3  H   LIG    1        3.577   0.854  -4.066  0.00  0.00    +0.400 HD
ATOM      4  O   LIG    1        1.598   0.148  -1.806  0.00  0.00    -0.470 OA
ENDROOT
BRANCH   2   5
ATOM      5  C   LIG    1        1.866  -0.235  -4.421  0.00  0.00    +0.310 A 
ATOM      6  C   LIG    1        0.785  -0.919  -3.955  0.00  0.00    -0.100 A 
ATOM      7  C   LIG    1        0.127  -1.478  -5.054  0.00  0.00    +0.250 A 
ATOM      8  N   LIG    1        0.785  -1.153  -6.137  0.00  0.00    -0.270 NA
ATOM      9  N   LIG    1        1.886  -0.370  -5.766  0.00  0.00    -0.380 N 
BRANCH   9  10
ATOM     10  C   LIG    1        2.882   0.202  -6.676  0.00  0.00    +0.390 C 
BRANCH  10  11
ATOM     11  C   LIG    1        2.495   1.617  -7.019  0.00  0.00    -0.100 A 
ATOM     12  C   LIG    1        3.085   2.675  -6.353  0.00  0.00    +0.040 A 
ATOM     13  C   LIG    1        2.731   3.974  -6.668  0.00  0.00    +0.040 A 
ATOM     14  C   LIG    1        1.787   4.216  -7.647  0.00  0.00    +0.060 A 
ATOM     15  C   LIG    1        1.195   3.158  -8.315  0.00  0.00    -0.030 A 
ATOM     16 CL   LIG    1        0.009   3.461  -9.545  0.00  0.00    -0.040 Cl
ATOM     17  C   LIG    1        1.554   1.858  -8.003  0.00  0.00    -0.010 A 
ATOM     18 CL   LIG    1        0.818   0.529  -8.844  0.00  0.00    -0.020 Cl
ENDBRANCH  10  11
ENDBRANCH   9  10
ENDBRANCH   2   5
BRANCH   1  19
ATOM     19  C   LIG    1        3.581   1.389  -1.494  0.00  0.00    +0.070 C 
BRANCH  19  31
ATOM     20  C   LIG    1       -0.595   2.306   0.314  0.00  0.00    +0.100 C 
ATOM     21  C   LIG    1        0.690   1.525   0.209  0.00  0.00    +0.510 C 
ATOM     22  N   LIG    1        1.863   2.173   0.065  0.00  0.00    -0.560 N 
ATOM     23  C   LIG    1        1.890   3.561   0.019  0.00  0.00    +0.240 C 
ATOM     24  C   LIG    1        2.951   4.219   0.501  0.00  0.00    -0.040 C 
ATOM     25  C   LIG    1        4.088   3.453   1.048  0.00  0.00    -0.030 A 
ATOM     26  C   LIG    1        5.079   4.085   1.797  0.00  0.00    +0.020 A 
ATOM     27  C   LIG    1        6.123   3.343   2.312  0.00  0.00    +0.020 A 
ATOM     28  C   LIG    1        6.186   1.979   2.087  0.00  0.00    +0.010 A 
ATOM     29  C   LIG    1        5.207   1.347   1.338  0.00  0.00    +0.030 A 
ATOM     30  C   LIG    1        4.165   2.078   0.812  0.00  0.00    -0.110 A 
ATOM     31  C   LIG    1        3.115   1.415  -0.036  0.00  0.00    +0.320 C 
ATOM     32  O   LIG    1        0.668   0.313   0.250  0.00  0.00    -0.480 OA
ENDBRANCH  19  31
ENDBRANCH   1  19
TORSDOF 5
