REMARK  Name = ZINCvU00000009hw.0
REMARK                            x       y       z     vdW  Elec       q    Type
REMARK                         _______ _______ _______ _____ _____    ______ ____
ROOT
ATOM      1  C   LIG    1        1.000  -0.246   0.616  0.00  0.00    -0.120 C 
ATOM      2  C   LIG    1       -0.003   0.337  -0.394  0.00  0.00    +0.040 C 
ATOM      3  C   LIG    1        0.700   1.689  -0.192  0.00  0.00    -0.080 C 
ATOM      4  C   LIG    1        0.113   2.520   0.951  0.00  0.00    +0.050 C 
ATOM      5  C   LIG    1        0.870   2.490  -1.485  0.00  0.00    +0.040 C 
ATOM      6  C   LIG    1        1.952   0.890   0.207  0.00  0.00    +0.060 C 
ENDROOT
BRANCH   1   7
ATOM      7  C   LIG    1        0.535  -0.159   2.047  0.00  0.00    +0.550 C 
ATOM      8  N   LIG    1       -0.650  -0.691   2.404  0.00  0.00    -0.600 N 
ATOM      9  C   LIG    1       -1.613  -1.084   1.387  0.00  0.00    +0.270 C 
ATOM     10  C   LIG    1       -2.542   0.021   0.969  0.00  0.00    +0.030 C 
ATOM     11  C   LIG    1       -3.697   0.264   1.907  0.00  0.00    +0.090 C 
ATOM     12  C   LIG    1       -4.195  -1.163   2.271  0.00  0.00    +0.030 C 
ATOM     13  C   LIG    1       -3.355  -1.758   3.370  0.00  0.00    +0.030 C 
ATOM     14  C   LIG    1       -2.479  -0.761   4.099  0.00  0.00    +0.070 C 
ATOM     15  S   LIG    1       -3.042   0.884   3.505  0.00  0.00    -0.270 S 
ATOM     16  C   LIG    1       -0.987  -0.876   3.846  0.00  0.00    +0.300 C 
ATOM     17  O   LIG    1        1.228   0.390   2.877  0.00  0.00    -0.530 OA
ENDBRANCH   1   7
BRANCH   1  18
ATOM     18  C   LIG    1        1.509  -1.639   0.240  0.00  0.00    +0.300 C 
BRANCH  18  20
ATOM     19  C   LIG    1        3.068  -3.294   1.115  0.00  0.00    +0.520 C 
ATOM     20  N   LIG    1        2.426  -2.120   1.276  0.00  0.00    -0.730 N 
ATOM     21  H   LIG    1        2.571  -1.593   2.077  0.00  0.00    +0.400 HD
ATOM     22  O   LIG    1        2.954  -3.911   0.077  0.00  0.00    -0.520 OA
BRANCH  19  23
ATOM     23  C   LIG    1        3.929  -3.840   2.225  0.00  0.00    +0.130 C 
BRANCH  23  31
ATOM     24  C   LIG    1        8.938  -3.548  -0.696  0.00  0.00    +0.150 C 
ATOM     25  C   LIG    1        7.867  -4.433  -0.113  0.00  0.00    -0.170 A 
ATOM     26  C   LIG    1        6.807  -3.994   0.530  0.00  0.00    +0.040 A 
ATOM     27  C   LIG    1        5.899  -5.042   1.009  0.00  0.00    -0.080 A 
ATOM     28  C   LIG    1        6.343  -6.291   0.684  0.00  0.00    -0.260 A 
ATOM     29  S   LIG    1        5.215  -7.513   1.284  0.00  0.00    +0.170 S 
ATOM     30  C   LIG    1        4.162  -6.293   1.970  0.00  0.00    -0.030 A 
ATOM     31  C   LIG    1        4.633  -5.085   1.749  0.00  0.00    -0.040 A 
ATOM     32  S   LIG    1        7.868  -6.182  -0.203  0.00  0.00    +0.160 S 
ENDBRANCH  23  31
ENDBRANCH  19  23
ENDBRANCH  18  20
ENDBRANCH   1  18
TORSDOF 5
