REMARK  Name = ZINCrg000000q99U.0
REMARK                            x       y       z     vdW  Elec       q    Type
REMARK                         _______ _______ _______ _____ _____    ______ ____
ROOT
ATOM      1  C   LIG    1       -0.008   1.223  -0.021  0.00  0.00    +0.690 C 
ATOM      2  N   LIG    1       -1.186   1.877  -0.001  0.00  0.00    -0.600 N 
ATOM      3  C   LIG    1       -1.226   3.346   0.021  0.00  0.00    +0.280 C 
ATOM      4  C   LIG    1       -2.114   3.827  -1.137  0.00  0.00    +0.020 C 
ATOM      5  C   LIG    1       -3.487   3.160  -1.032  0.00  0.00    +0.050 C 
ATOM      6  C   LIG    1       -3.328   1.642  -1.146  0.00  0.00    -0.030 C 
ATOM      7  C   LIG    1       -2.454   1.135   0.006  0.00  0.00    +0.300 C 
ATOM      8  O   LIG    1        0.012   0.004  -0.034  0.00  0.00    -0.620 OA
ENDROOT
BRANCH   6   9
ATOM      9  C   LIG    1       -4.683   0.987  -1.075  0.00  0.00    +0.530 C 
ATOM     10  N   LIG    1       -4.933  -0.125  -1.795  0.00  0.00    -0.620 N 
ATOM     11  C   LIG    1       -3.868  -0.780  -2.571  0.00  0.00    +0.250 C 
ATOM     12  C   LIG    1       -3.866  -2.276  -2.213  0.00  0.00    +0.220 C 
ATOM     13  O   LIG    1       -5.185  -2.799  -2.379  0.00  0.00    -0.380 OA
ATOM     14  C   LIG    1       -6.162  -2.211  -1.516  0.00  0.00    +0.220 C 
ATOM     15  C   LIG    1       -6.280  -0.716  -1.834  0.00  0.00    +0.260 C 
ATOM     16  O   LIG    1       -5.549   1.460  -0.371  0.00  0.00    -0.530 OA
ENDBRANCH   6   9
BRANCH   1  21
ATOM     17  N   LIG    1        4.486   0.793  -0.099  0.00  0.00    -0.390 N 
ATOM     18  C   LIG    1        3.806  -0.390  -0.100  0.00  0.00    +0.340 A 
ATOM     19  C   LIG    1        2.482  -0.135  -0.076  0.00  0.00    -0.110 A 
ATOM     20  C   LIG    1        2.302   1.266  -0.059  0.00  0.00    +0.500 A 
ATOM     21  N   LIG    1        1.140   1.911  -0.033  0.00  0.00    -0.680 NA
ATOM     22  N   LIG    1        3.551   1.837  -0.078  0.00  0.00    -0.480 N 
ATOM     23  H   LIG    1        3.749   2.787  -0.077  0.00  0.00    +0.450 HD
BRANCH  17  24
ATOM     24  C   LIG    1        5.943   0.946  -0.120  0.00  0.00    +0.350 C 
BRANCH  24  25
ATOM     25  C   LIG    1        6.486   0.859   1.307  0.00  0.00    +0.010 C 
BRANCH  25  26
ATOM     26  C   LIG    1        8.008   1.019   1.285  0.00  0.00    +0.170 C 
BRANCH  26  28
ATOM     27  C   LIG    1        9.934   1.076   2.709  0.00  0.00    +0.200 C 
ATOM     28  O   LIG    1        8.515   0.938   2.618  0.00  0.00    -0.390 OA
ENDBRANCH  26  28
ENDBRANCH  25  26
ENDBRANCH  24  25
ENDBRANCH  17  24
ENDBRANCH   1  21
TORSDOF 6
