REMARK  Name = ZINCnE000001GLP3.1
REMARK                            x       y       z     vdW  Elec       q    Type
REMARK                         _______ _______ _______ _____ _____    ______ ____
ROOT
ATOM      1  S   LIG    1        1.406   2.240   0.001  0.00  0.00    +2.600 S 
ATOM      2  O   LIG    1        2.017   1.984  -1.256  0.00  0.00    -1.030 OA
ATOM      3  O   LIG    1        2.041   1.971   1.243  0.00  0.00    -1.030 OA
ENDROOT
BRANCH   1   7
ATOM      4  C   LIG    1        0.345   6.642   0.034  0.00  0.00    +0.160 A 
ATOM      5  C   LIG    1        0.519   5.960   1.230  0.00  0.00    -0.050 A 
ATOM      6  C   LIG    1        0.842   4.617   1.217  0.00  0.00    +0.160 A 
ATOM      7  C   LIG    1        0.993   3.953   0.014  0.00  0.00    -0.650 A 
ATOM      8  C   LIG    1        0.825   4.632  -1.179  0.00  0.00    +0.160 A 
ATOM      9  C   LIG    1        0.496   5.973  -1.171  0.00  0.00    -0.100 A 
BRANCH   4  10
ATOM     10  O   LIG    1        0.027   7.964   0.045  0.00  0.00    -0.320 OA
BRANCH  10  12
ATOM     11  C   LIG    1       -0.490  10.075  -1.012  0.00  0.00    +0.070 C 
ATOM     12  C   LIG    1       -0.137   8.601  -1.224  0.00  0.00    +0.170 C 
ENDBRANCH  10  12
ENDBRANCH   4  10
ENDBRANCH   1   7
BRANCH   1  13
ATOM     13  N   LIG    1       -0.017   1.393   0.010  0.00  0.00    -1.080 NA
BRANCH  13  14
ATOM     14  C   LIG    1        0.002  -0.004   0.002  0.00  0.00    +0.230 A 
ATOM     15  C   LIG    1       -1.183  -0.715   0.009  0.00  0.00    -0.050 A 
ATOM     16  C   LIG    1       -1.110  -2.120   0.001  0.00  0.00    -0.040 A 
ATOM     17  C   LIG    1       -2.272  -2.910   0.008  0.00  0.00    +0.000 A 
ATOM     18  C   LIG    1       -2.162  -4.267  -0.001  0.00  0.00    -0.010 A 
ATOM     19  C   LIG    1       -0.913  -4.883  -0.016  0.00  0.00    -0.050 A 
ATOM     20  C   LIG    1        0.233  -4.148  -0.022  0.00  0.00    +0.060 A 
ATOM     21  C   LIG    1        0.162  -2.744  -0.014  0.00  0.00    +0.040 A 
ATOM     22  N   LIG    1        1.273  -2.000  -0.020  0.00  0.00    -0.450 NA
ATOM     23  C   LIG    1        1.222  -0.692  -0.019  0.00  0.00    +0.170 A 
ENDBRANCH  13  14
ENDBRANCH   1  13
TORSDOF 5
