REMARK  Name = ZINCvU0000000GKL.0
REMARK                            x       y       z     vdW  Elec       q    Type
REMARK                         _______ _______ _______ _____ _____    ______ ____
ROOT
ATOM      1  C   LIG    1        2.158   5.503  -0.655  0.00  0.00    +0.500 C 
ATOM      2  N   LIG    1        1.145   4.777  -0.143  0.00  0.00    -0.610 N 
ATOM      3  C   LIG    1        0.082   5.417   0.646  0.00  0.00    +0.290 C 
ATOM      4  C   LIG    1       -1.241   5.280  -0.114  0.00  0.00    +0.100 C 
ATOM      5  C   LIG    1       -1.376   3.860  -0.621  0.00  0.00    -0.170 A 
ATOM      6  C   LIG    1       -0.362   2.982  -0.743  0.00  0.00    -0.110 A 
ATOM      7  C   LIG    1       -0.750   1.743  -1.242  0.00  0.00    +0.020 A 
ATOM      8  C   LIG    1       -2.044   1.612  -1.516  0.00  0.00    -0.040 A 
ATOM      9  S   LIG    1       -2.879   3.114  -1.149  0.00  0.00    +0.100 S 
ATOM     10  C   LIG    1        1.073   3.325  -0.359  0.00  0.00    +0.340 C 
ATOM     11  O   LIG    1        3.068   4.949  -1.235  0.00  0.00    -0.470 OA
ENDROOT
BRANCH  10  12
ATOM     12  C   LIG    1        2.008   2.927  -1.472  0.00  0.00    -0.040 A 
ATOM     13  C   LIG    1        1.822   3.433  -2.744  0.00  0.00    +0.020 A 
ATOM     14  C   LIG    1        2.682   3.072  -3.764  0.00  0.00    -0.010 A 
ATOM     15  C   LIG    1        3.723   2.197  -3.513  0.00  0.00    +0.000 A 
ATOM     16  C   LIG    1        3.906   1.687  -2.241  0.00  0.00    +0.010 A 
ATOM     17  C   LIG    1        3.048   2.052  -1.221  0.00  0.00    +0.000 A 
ENDBRANCH  10  12
BRANCH   1  18
ATOM     18  C   LIG    1        2.161   7.003  -0.507  0.00  0.00    +0.050 C 
BRANCH  18  30
ATOM     19  C   LIG    1        3.397   6.085  -4.834  0.00  0.00    +0.090 C 
ATOM     20  C   LIG    1        3.750   6.408  -3.405  0.00  0.00    +0.520 C 
ATOM     21  N   LIG    1        3.078   7.374  -2.747  0.00  0.00    -0.560 N 
ATOM     22  C   LIG    1        2.156   8.165  -3.422  0.00  0.00    +0.240 C 
ATOM     23  C   LIG    1        1.975   9.436  -3.045  0.00  0.00    -0.040 C 
ATOM     24  C   LIG    1        2.739   9.963  -1.897  0.00  0.00    -0.030 A 
ATOM     25  C   LIG    1        2.803  11.335  -1.653  0.00  0.00    +0.020 A 
ATOM     26  C   LIG    1        3.542  11.804  -0.586  0.00  0.00    +0.010 A 
ATOM     27  C   LIG    1        4.216  10.920   0.237  0.00  0.00    +0.000 A 
ATOM     28  C   LIG    1        4.150   9.556   0.004  0.00  0.00    +0.030 A 
ATOM     29  C   LIG    1        3.412   9.075  -1.054  0.00  0.00    -0.100 A 
ATOM     30  C   LIG    1        3.318   7.593  -1.316  0.00  0.00    +0.320 C 
ATOM     31  O   LIG    1        4.638   5.799  -2.847  0.00  0.00    -0.480 OA
ENDBRANCH  18  30
ENDBRANCH   1  18
TORSDOF 3
