REMARK  Name = ZINCpe000000ZE6T.0
REMARK                            x       y       z     vdW  Elec       q    Type
REMARK                         _______ _______ _______ _____ _____    ______ ____
ROOT
ATOM      1  C   LIG    1        3.010   2.610  -1.750  0.00  0.00    +0.520 C 
ATOM      2  N   LIG    1        2.003   1.821  -1.325  0.00  0.00    -0.720 N 
ATOM      3  H   LIG    1        1.668   1.112  -1.896  0.00  0.00    +0.410 HD
ATOM      4  O   LIG    1        3.429   3.496  -1.037  0.00  0.00    -0.480 OA
ENDROOT
BRANCH   2   5
ATOM      5  C   LIG    1        1.415   2.035  -0.001  0.00  0.00    +0.280 C 
ATOM      6  C   LIG    1       -0.018   1.501   0.010  0.00  0.00    +0.140 C 
ATOM      7  C   LIG    1        0.002  -0.004   0.002  0.00  0.00    -0.190 A 
ATOM      8  C   LIG    1       -0.991  -0.718  -0.635  0.00  0.00    +0.300 A 
ATOM      9  N   LIG    1       -0.976  -2.038  -0.630  0.00  0.00    -0.500 NA
ATOM     10  C   LIG    1       -0.027  -2.725  -0.024  0.00  0.00    +0.300 A 
ATOM     11  C   LIG    1        1.005  -2.083   0.632  0.00  0.00    -0.070 A 
ATOM     12  C   LIG    1        1.028  -0.691   0.643  0.00  0.00    +0.210 A 
ATOM     13  N   LIG    1        2.062   0.002   1.262  0.00  0.00    -0.660 N 
ATOM     14  H   LIG    1        2.662  -0.467   1.864  0.00  0.00    +0.420 HD
ATOM     15  C   LIG    1        2.239   1.316   1.035  0.00  0.00    +0.510 C 
ATOM     16  O   LIG    1        3.071   1.928   1.670  0.00  0.00    -0.480 OA
ENDBRANCH   2   5
BRANCH   1  20
ATOM     17  O   LIG    1        6.624   3.151  -4.522  0.00  0.00    -0.440 OA
ATOM     18  C   LIG    1        5.410   3.130  -4.467  0.00  0.00    +0.530 C 
ATOM     19  O   LIG    1        4.752   3.284  -3.290  0.00  0.00    -0.330 OA
ATOM     20  C   LIG    1        3.615   2.390  -3.113  0.00  0.00    +0.200 C 
ATOM     21  C   LIG    1        2.569   2.682  -4.189  0.00  0.00    +0.110 C 
ATOM     22  C   LIG    1        3.214   2.711  -5.550  0.00  0.00    -0.040 A 
ATOM     23  C   LIG    1        2.444   2.523  -6.680  0.00  0.00    +0.020 A 
ATOM     24  C   LIG    1        3.030   2.557  -7.934  0.00  0.00    +0.050 A 
ATOM     25  C   LIG    1        4.388   2.780  -8.067  0.00  0.00    +0.010 A 
ATOM     26  C   LIG    1        5.171   2.969  -6.945  0.00  0.00    +0.090 A 
ATOM     27  C   LIG    1        4.585   2.933  -5.681  0.00  0.00    -0.170 A 
ENDBRANCH   1  20
TORSDOF 2
