REMARK  Name = ZINCrH000004osSd.0
REMARK                            x       y       z     vdW  Elec       q    Type
REMARK                         _______ _______ _______ _____ _____    ______ ____
ROOT
ATOM      1  N   LIG    1       -4.293  -4.535  -0.961  0.00  0.00    -0.610 N 
ATOM      2  C   LIG    1       -4.141  -4.228  -2.264  0.00  0.00    +0.520 C 
ATOM      3  O   LIG    1       -4.156  -3.069  -2.620  0.00  0.00    -0.500 OA
ATOM      4  C   LIG    1       -4.275  -5.935  -0.531  0.00  0.00    +0.290 C 
ENDROOT
BRANCH   1   6
ATOM      5  C   LIG    1       -5.524  -3.899   1.054  0.00  0.00    +0.060 C 
ATOM      6  C   LIG    1       -4.476  -3.468   0.026  0.00  0.00    +0.290 C 
BRANCH   6   7
ATOM      7  C   LIG    1       -3.168  -3.199   0.724  0.00  0.00    -0.100 A 
ATOM      8  C   LIG    1       -2.871  -1.923   1.166  0.00  0.00    +0.060 A 
ATOM      9  C   LIG    1       -1.673  -1.674   1.806  0.00  0.00    +0.030 A 
ATOM     10  C   LIG    1       -0.767  -2.706   2.007  0.00  0.00    +0.150 A 
ATOM     11  C   LIG    1       -1.066  -3.986   1.557  0.00  0.00    +0.000 A 
ATOM     12  C   LIG    1       -2.268  -4.230   0.922  0.00  0.00    +0.050 A 
BRANCH  10  13
ATOM     13  N   LIG    1        0.450  -2.457   2.656  0.00  0.00    -0.330 N 
ATOM     14  C   LIG    1        1.423  -3.350   2.921  0.00  0.00    +0.480 A 
ATOM     15  N   LIG    1        2.392  -2.724   3.538  0.00  0.00    -0.540 NA
ATOM     16  C   LIG    1        2.078  -1.437   3.684  0.00  0.00    +0.440 A 
ATOM     17  N   LIG    1        0.898  -1.225   3.160  0.00  0.00    -0.310 NA
ENDBRANCH  10  13
ENDBRANCH   6   7
ENDBRANCH   1   6
BRANCH   2  18
ATOM     18  C   LIG    1       -3.952  -5.326  -3.280  0.00  0.00    +0.240 C 
BRANCH  18  19
ATOM     19  O   LIG    1       -3.814  -4.752  -4.581  0.00  0.00    -0.280 OA
BRANCH  19  20
ATOM     20  C   LIG    1       -3.635  -5.612  -5.619  0.00  0.00    +0.110 A 
ATOM     21  C   LIG    1       -3.588  -6.978  -5.388  0.00  0.00    -0.030 A 
ATOM     22  C   LIG    1       -3.411  -7.851  -6.445  0.00  0.00    +0.090 A 
ATOM     23  C   LIG    1       -3.270  -7.364  -7.731  0.00  0.00    -0.100 A 
ATOM     24  C   LIG    1       -3.312  -6.000  -7.965  0.00  0.00    +0.070 A 
ATOM     25 BR   LIG    1       -3.020  -8.561  -9.173  0.00  0.00    -0.030 Br
ATOM     26  C   LIG    1       -3.494  -5.123  -6.912  0.00  0.00    +0.080 A 
ATOM     27  F   LIG    1       -3.535  -3.792  -7.139  0.00  0.00    -0.120 F 
ENDBRANCH  19  20
ENDBRANCH  18  19
ENDBRANCH   2  18
TORSDOF 6
