REMARK  Name = ZINCvU0000000IDM.0
REMARK                            x       y       z     vdW  Elec       q    Type
REMARK                         _______ _______ _______ _____ _____    ______ ____
ROOT
ATOM      1  C   LIG    1       -3.909  -4.427   0.011  0.00  0.00    +0.170 A 
ATOM      2  C   LIG    1       -4.277  -5.858   0.064  0.00  0.00    -0.240 A 
ATOM      3  C   LIG    1       -5.707  -6.204   0.066  0.00  0.00    +0.010 A 
ATOM      4  C   LIG    1       -6.124  -7.530   0.115  0.00  0.00    +0.020 A 
ATOM      5  C   LIG    1       -7.483  -7.827   0.116  0.00  0.00    +0.040 A 
ATOM      6  C   LIG    1       -8.421  -6.814   0.069  0.00  0.00    +0.010 A 
ATOM      7  C   LIG    1       -8.026  -5.485   0.020  0.00  0.00    +0.050 A 
ATOM      8  C   LIG    1       -6.663  -5.164   0.018  0.00  0.00    -0.070 A 
ATOM      9  C   LIG    1       -6.242  -3.814  -0.031  0.00  0.00    +0.110 A 
ATOM     10  C   LIG    1       -4.906  -3.469  -0.029  0.00  0.00    -0.010 A 
ENDROOT
BRANCH   1  11
ATOM     11  O   LIG    1       -2.610  -4.058   0.006  0.00  0.00    -0.290 OA
BRANCH  11  13
ATOM     12  O   LIG    1       -2.569  -4.389  -2.180  0.00  0.00    -0.450 OA
ATOM     13  C   LIG    1       -1.991  -4.016  -1.186  0.00  0.00    +0.460 C 
BRANCH  13  14
ATOM     14  C   LIG    1       -0.577  -3.504  -1.284  0.00  0.00    +0.300 C 
BRANCH  14  15
ATOM     15  O   LIG    1       -0.144  -3.558  -2.645  0.00  0.00    -0.290 OA
BRANCH  15  16
ATOM     16  C   LIG    1        1.118  -3.129  -2.909  0.00  0.00    +0.130 A 
ATOM     17  C   LIG    1        1.603  -3.154  -4.208  0.00  0.00    -0.010 A 
ATOM     18  C   LIG    1        2.887  -2.717  -4.473  0.00  0.00    +0.050 A 
ATOM     19  C   LIG    1        3.687  -2.255  -3.445  0.00  0.00    -0.020 A 
ATOM     20  C   LIG    1        3.206  -2.229  -2.149  0.00  0.00    +0.050 A 
ATOM     21  C   LIG    1        1.923  -2.665  -1.879  0.00  0.00    -0.080 A 
ENDBRANCH  15  16
ENDBRANCH  14  15
ENDBRANCH  13  14
ENDBRANCH  11  13
ENDBRANCH   1  11
BRANCH   2  22
ATOM     22  S   LIG    1       -3.076  -7.076   0.120  0.00  0.00    +0.200 S 
BRANCH  22  23
ATOM     23  C   LIG    1       -2.874  -7.227   1.864  0.00  0.00    -0.070 A 
ATOM     24  C   LIG    1       -3.627  -6.427   2.730  0.00  0.00    +0.020 A 
ATOM     25  C   LIG    1       -3.468  -6.554   4.093  0.00  0.00    +0.110 A 
ATOM     26  C   LIG    1       -2.556  -7.463   4.606  0.00  0.00    +0.020 A 
ATOM     27  C   LIG    1       -1.802  -8.255   3.753  0.00  0.00    +0.130 A 
ATOM     28  C   LIG    1       -1.955  -8.143   2.389  0.00  0.00    -0.000 A 
BRANCH  28  29
ATOM     29  N   LIG    1       -1.149  -8.990   1.480  0.00  0.00    -0.010 N 
ATOM     30  O   LIG    1       -1.297  -8.882   0.176  0.00  0.00    -0.170 OA
ATOM     31  O   LIG    1       -0.285  -9.851   1.976  0.00  0.00    -0.170 OA
ENDBRANCH  28  29
ENDBRANCH  22  23
ENDBRANCH   2  22
TORSDOF 8
