REMARK  Name = ZINCrH000004qJt8.0
REMARK                            x       y       z     vdW  Elec       q    Type
REMARK                         _______ _______ _______ _____ _____    ______ ____
ROOT
ATOM      1  N   LIG    1       -7.004   3.403  -3.043  0.00  0.00    -0.670 N 
ATOM      2  H   LIG    1       -7.650   3.090  -2.390  0.00  0.00    +0.400 HD
ATOM      3  C   LIG    1       -5.927   4.107  -2.642  0.00  0.00    +0.710 C 
ATOM      4  N   LIG    1       -5.707   4.311  -1.328  0.00  0.00    -0.610 N 
ATOM      5  C   LIG    1       -6.637   3.767  -0.336  0.00  0.00    +0.290 C 
ATOM      6  O   LIG    1       -5.155   4.558  -3.465  0.00  0.00    -0.570 OA
ENDROOT
BRANCH   1  13
ATOM      7  C   LIG    1       -8.388   1.019  -3.744  0.00  0.00    +0.080 C 
ATOM      8  C   LIG    1       -7.861   1.968  -4.789  0.00  0.00    -0.070 A 
ATOM      9  C   LIG    1       -8.045   1.691  -6.129  0.00  0.00    -0.050 A 
ATOM     10  C   LIG    1       -7.559   2.566  -7.092  0.00  0.00    +0.200 A 
ATOM     11  C   LIG    1       -6.889   3.720  -6.707  0.00  0.00    -0.060 A 
ATOM     12  C   LIG    1       -6.710   3.999  -5.366  0.00  0.00    +0.080 A 
ATOM     13  C   LIG    1       -7.191   3.122  -4.404  0.00  0.00    +0.100 A 
BRANCH  10  14
ATOM     14  N   LIG    1       -7.745   2.286  -8.450  0.00  0.00    -0.640 N 
ATOM     15  C   LIG    1       -7.233   3.209  -9.466  0.00  0.00    +0.280 C 
ATOM     16  C   LIG    1       -8.453   1.069  -8.856  0.00  0.00    +0.280 C 
ENDBRANCH  10  14
ENDBRANCH   1  13
BRANCH   4  17
ATOM     17  C   LIG    1       -4.536   5.076  -0.892  0.00  0.00    +0.350 C 
BRANCH  17  18
ATOM     18  C   LIG    1       -3.373   4.141  -0.684  0.00  0.00    +0.490 C 
ATOM     19  N   LIG    1       -2.182   4.625  -0.280  0.00  0.00    -0.680 N 
ATOM     20  H   LIG    1       -2.090   5.566  -0.064  0.00  0.00    +0.410 HD
ATOM     21  O   LIG    1       -3.508   2.952  -0.882  0.00  0.00    -0.500 OA
BRANCH  19  22
ATOM     22  C   LIG    1       -1.079   3.771  -0.172  0.00  0.00    +0.140 A 
ATOM     23  C   LIG    1       -0.697   2.987  -1.253  0.00  0.00    -0.070 A 
ATOM     24  C   LIG    1        0.389   2.142  -1.141  0.00  0.00    +0.000 A 
ATOM     25  C   LIG    1        1.102   2.083   0.042  0.00  0.00    +0.000 A 
ATOM     26  C   LIG    1        0.727   2.865   1.119  0.00  0.00    +0.010 A 
ATOM     27  C   LIG    1       -1.470   3.056  -2.545  0.00  0.00    +0.090 C 
ATOM     28  C   LIG    1       -0.361   3.709   1.016  0.00  0.00    -0.090 A 
ATOM     29  C   LIG    1       -0.769   4.561   2.189  0.00  0.00    +0.090 C 
ENDBRANCH  19  22
ENDBRANCH  17  18
ENDBRANCH   4  17
TORSDOF 5
