REMARK  Name = ZINCtj00000riCxd.0
REMARK                            x       y       z     vdW  Elec       q    Type
REMARK                         _______ _______ _______ _____ _____    ______ ____
ROOT
ATOM      1  C   LIG    1       -5.640  -0.938  -1.970  0.00  0.00    +0.110 C 
ATOM      2  C   LIG    1       -6.042  -1.492  -3.340  0.00  0.00    +0.060 C 
ATOM      3  C   LIG    1       -7.532  -1.837  -3.335  0.00  0.00    +0.040 C 
ATOM      4  C   LIG    1       -8.346  -0.567  -3.070  0.00  0.00    +0.260 C 
ATOM      5  N   LIG    1       -7.866   0.051  -1.827  0.00  0.00    -0.600 N 
ATOM      6  C   LIG    1       -8.725   0.346  -0.830  0.00  0.00    +0.600 C 
ATOM      7  O   LIG    1       -8.330   0.933   0.159  0.00  0.00    -0.530 OA
ATOM      8  C   LIG    1       -6.433   0.343  -1.690  0.00  0.00    +0.260 C 
ENDROOT
BRANCH   6   9
ATOM      9  C   LIG    1      -10.139  -0.042  -0.940  0.00  0.00    -0.230 A 
ATOM     10  C   LIG    1      -10.980   0.202  -1.981  0.00  0.00    +0.280 A 
ATOM     11  O   LIG    1      -12.189  -0.307  -1.718  0.00  0.00    -0.180 OA
ATOM     12  C   LIG    1      -12.221  -0.898  -0.506  0.00  0.00    +0.070 A 
ATOM     13  C   LIG    1      -13.219  -1.550   0.206  0.00  0.00    +0.010 A 
ATOM     14  C   LIG    1      -12.948  -2.067   1.460  0.00  0.00    +0.140 A 
ATOM     15  C   LIG    1      -11.680  -1.939   2.018  0.00  0.00    -0.010 A 
ATOM     16  C   LIG    1      -10.680  -1.295   1.323  0.00  0.00    +0.080 A 
ATOM     17  C   LIG    1      -10.944  -0.772   0.061  0.00  0.00    -0.100 A 
BRANCH  14  18
ATOM     18  O   LIG    1      -13.928  -2.704   2.153  0.00  0.00    -0.490 OA
ATOM     19  H   LIG    1      -13.973  -3.655   1.986  0.00  0.00    +0.400 HD
ENDBRANCH  14  18
ENDBRANCH   6   9
BRANCH   1  20
ATOM     20  O   LIG    1       -5.927  -1.907  -0.960  0.00  0.00    -0.530 OA
ATOM     21  H   LIG    1       -5.699  -1.622  -0.065  0.00  0.00    +0.370 HD
ENDBRANCH   1  20
BRANCH   1  22
ATOM     22  C   LIG    1       -4.143  -0.623  -1.966  0.00  0.00    +0.280 C 
BRANCH  22  24
ATOM     23  C   LIG    1       -2.481   0.260  -0.418  0.00  0.00    +0.510 C 
ATOM     24  N   LIG    1       -3.760  -0.090  -0.656  0.00  0.00    -0.710 N 
ATOM     25  H   LIG    1       -4.428   0.012   0.040  0.00  0.00    +0.410 HD
ATOM     26  O   LIG    1       -1.646   0.133  -1.289  0.00  0.00    -0.500 OA
BRANCH  23  32
ATOM     27  C   LIG    1       -1.359   2.461  -0.662  0.00  0.00    +0.320 C 
ATOM     28  N   LIG    1       -1.405   2.106   0.762  0.00  0.00    -0.380 N 
ATOM     29  C   LIG    1       -0.029   1.982   1.289  0.00  0.00    +0.270 C 
ATOM     30  C   LIG    1       -0.100   0.818   2.309  0.00  0.00    +0.080 C 
ATOM     31  C   LIG    1       -1.094  -0.148   1.614  0.00  0.00    +0.100 C 
ATOM     32  C   LIG    1       -2.087   0.809   0.929  0.00  0.00    +0.150 C 
ATOM     33  H   LIG    1       -1.902   2.819   1.274  0.00  0.00    +0.430 HD
ENDBRANCH  23  32
ENDBRANCH  22  24
ENDBRANCH   1  22
TORSDOF 6
