REMARK  Name = ZINCtj00000riCxd.1
REMARK                            x       y       z     vdW  Elec       q    Type
REMARK                         _______ _______ _______ _____ _____    ______ ____
ROOT
ATOM      1  C   LIG    1       -2.060   5.436   1.493  0.00  0.00    +0.110 C 
ATOM      2  C   LIG    1       -0.727   6.182   1.407  0.00  0.00    +0.060 C 
ATOM      3  C   LIG    1        0.423   5.173   1.371  0.00  0.00    +0.040 C 
ATOM      4  C   LIG    1        0.282   4.288   0.133  0.00  0.00    +0.260 C 
ATOM      5  N   LIG    1       -1.055   3.680   0.129  0.00  0.00    -0.600 N 
ATOM      6  C   LIG    1       -1.202   2.345   0.021  0.00  0.00    +0.600 C 
ATOM      7  O   LIG    1       -2.315   1.860  -0.055  0.00  0.00    -0.530 OA
ATOM      8  C   LIG    1       -2.229   4.555   0.251  0.00  0.00    +0.260 C 
ENDROOT
BRANCH   6   9
ATOM      9  C   LIG    1       -0.017   1.474  -0.006  0.00  0.00    -0.220 A 
ATOM     10  C   LIG    1        1.090   1.618  -0.782  0.00  0.00    +0.280 A 
ATOM     11  O   LIG    1        1.954   0.627  -0.530  0.00  0.00    -0.180 OA
ATOM     12  C   LIG    1        1.476  -0.214   0.410  0.00  0.00    +0.070 A 
ATOM     13  C   LIG    1        1.984  -1.364   0.999  0.00  0.00    +0.010 A 
ATOM     14  C   LIG    1        1.246  -2.031   1.960  0.00  0.00    +0.140 A 
ATOM     15  C   LIG    1       -0.005  -1.559   2.344  0.00  0.00    -0.010 A 
ATOM     16  C   LIG    1       -0.521  -0.418   1.768  0.00  0.00    +0.080 A 
ATOM     17  C   LIG    1        0.214   0.258   0.800  0.00  0.00    -0.100 A 
BRANCH  14  18
ATOM     18  O   LIG    1        1.746  -3.157   2.534  0.00  0.00    -0.490 OA
ATOM     19  H   LIG    1        2.269  -2.993   3.331  0.00  0.00    +0.400 HD
ENDBRANCH  14  18
ENDBRANCH   6   9
BRANCH   1  20
ATOM     20  O   LIG    1       -2.074   4.618   2.664  0.00  0.00    -0.530 OA
ATOM     21  H   LIG    1       -2.891   4.113   2.781  0.00  0.00    +0.370 HD
ENDBRANCH   1  20
BRANCH   1  22
ATOM     22  C   LIG    1       -3.208   6.447   1.562  0.00  0.00    +0.280 C 
BRANCH  22  24
ATOM     23  C   LIG    1       -5.639   6.421   1.711  0.00  0.00    +0.510 C 
ATOM     24  N   LIG    1       -4.484   5.731   1.641  0.00  0.00    -0.710 N 
ATOM     25  H   LIG    1       -4.497   4.761   1.643  0.00  0.00    +0.410 HD
ATOM     26  O   LIG    1       -5.623   7.634   1.708  0.00  0.00    -0.520 OA
BRANCH  23  32
ATOM     27  C   LIG    1       -8.637   6.878   0.533  0.00  0.00    +0.330 C 
ATOM     28  N   LIG    1       -8.068   6.653   1.869  0.00  0.00    -0.380 N 
ATOM     29  C   LIG    1       -9.080   6.030   2.764  0.00  0.00    +0.280 C 
ATOM     30  C   LIG    1       -8.220   5.357   3.863  0.00  0.00    +0.080 C 
ATOM     31  C   LIG    1       -6.998   4.834   3.074  0.00  0.00    +0.090 C 
ATOM     32  C   LIG    1       -6.952   5.686   1.792  0.00  0.00    +0.170 C 
ATOM     33  H   LIG    1       -7.746   7.525   2.263  0.00  0.00    +0.430 HD
ENDBRANCH  23  32
ENDBRANCH  22  24
ENDBRANCH   1  22
TORSDOF 6
