REMARK  Name = ZINCqH0000032eEb.0
REMARK                            x       y       z     vdW  Elec       q    Type
REMARK                         _______ _______ _______ _____ _____    ______ ____
ROOT
ATOM      1  C   LIG    1       -1.624   0.529  -7.167  0.00  0.00    +0.520 C 
ATOM      2  N   LIG    1       -2.155   0.768  -8.382  0.00  0.00    -0.730 N 
ATOM      3  H   LIG    1       -2.991   1.254  -8.459  0.00  0.00    +0.400 HD
ATOM      4  O   LIG    1       -0.579  -0.078  -7.070  0.00  0.00    -0.520 OA
ENDROOT
BRANCH   2   5
ATOM      5  C   LIG    1       -1.468   0.295  -9.587  0.00  0.00    +0.280 C 
ATOM      6  C   LIG    1       -1.864  -1.157  -9.863  0.00  0.00    +0.040 C 
BRANCH   5   7
ATOM      7  C   LIG    1       -1.863   1.155 -10.760  0.00  0.00    -0.040 A 
ATOM      8  C   LIG    1       -3.174   1.570 -10.903  0.00  0.00    -0.010 A 
ATOM      9  C   LIG    1       -3.536   2.361 -11.977  0.00  0.00    +0.130 A 
ATOM     10  C   LIG    1       -2.588   2.731 -12.913  0.00  0.00    -0.660 A 
ATOM     11  C   LIG    1       -1.278   2.312 -12.773  0.00  0.00    +0.130 A 
ATOM     12  C   LIG    1       -0.916   1.524 -11.697  0.00  0.00    +0.010 A 
BRANCH  10  13
ATOM     13  S   LIG    1       -3.050   3.735 -14.285  0.00  0.00    +2.500 S 
ATOM     14  O   LIG    1       -1.851   4.407 -14.647  0.00  0.00    -0.940 OA
ATOM     15  O   LIG    1       -4.184   4.458 -13.824  0.00  0.00    -0.940 OA
ATOM     16  C   LIG    1       -3.530   2.551 -15.572  0.00  0.00    -0.260 C 
ENDBRANCH  10  13
ENDBRANCH   5   7
ENDBRANCH   2   5
BRANCH   1  17
ATOM     17  C   LIG    1       -2.330   1.015  -5.927  0.00  0.00    +0.100 C 
BRANCH  17  21
ATOM     18  C   LIG    1       -0.077  -0.103  -2.474  0.00  0.00    -0.080 A 
ATOM     19  C   LIG    1       -1.042  -0.956  -2.976  0.00  0.00    +0.000 A 
ATOM     20  C   LIG    1       -1.775  -0.592  -4.090  0.00  0.00    +0.020 A 
ATOM     21  C   LIG    1       -1.536   0.621  -4.709  0.00  0.00    -0.070 A 
ATOM     22  C   LIG    1       -0.567   1.472  -4.211  0.00  0.00    +0.020 A 
ATOM     23  C   LIG    1        0.163   1.110  -3.093  0.00  0.00    +0.010 A 
BRANCH  18  24
ATOM     24  C   LIG    1        0.718  -0.497  -1.257  0.00  0.00    +0.060 C 
BRANCH  24  26
ATOM     25  C   LIG    1       -0.019   1.526   0.010  0.00  0.00    +0.010 C 
ATOM     26  C   LIG    1        0.002  -0.004   0.002  0.00  0.00    -0.020 C 
ATOM     27  C   LIG    1        0.742  -0.511   1.242  0.00  0.00    +0.020 C 
ENDBRANCH  24  26
ENDBRANCH  18  24
ENDBRANCH  17  21
ENDBRANCH   1  17
TORSDOF 7
