REMARK  Name = ZINCrH000004tfyu.0
REMARK                            x       y       z     vdW  Elec       q    Type
REMARK                         _______ _______ _______ _____ _____    ______ ____
ROOT
ATOM      1  C   LIG    1        0.738  -0.493  -1.249  0.00  0.00    +0.180 C 
ATOM      2  C   LIG    1        0.002  -0.004   0.002  0.00  0.00    +0.050 C 
ATOM      3  C   LIG    1       -0.019   1.526   0.010  0.00  0.00    +0.230 C 
ATOM      4  N   LIG    1        1.359   2.036   0.000  0.00  0.00    -0.470 N 
ATOM      5  C   LIG    1        2.070   1.619  -1.215  0.00  0.00    +0.210 C 
ATOM      6  C   LIG    1        2.153   0.091  -1.260  0.00  0.00    +0.040 C 
ENDROOT
BRANCH   4   7
ATOM      7  C   LIG    1        1.379   3.418   0.139  0.00  0.00    +0.310 A 
ATOM      8  C   LIG    1        2.593   4.099   0.159  0.00  0.00    +0.160 A 
ATOM      9  N   LIG    1        2.612   5.413   0.286  0.00  0.00    -0.380 NA
ATOM     10  C   LIG    1        1.480   6.084   0.406  0.00  0.00    +0.180 A 
ATOM     11  C   LIG    1        0.265   5.410   0.392  0.00  0.00    +0.310 A 
ATOM     12  N   LIG    1        0.241   4.092   0.259  0.00  0.00    -0.540 NA
BRANCH  11  13
ATOM     13  O   LIG    1       -0.895   6.102   0.514  0.00  0.00    -0.290 OA
BRANCH  13  14
ATOM     14  C   LIG    1       -2.107   5.345   0.491  0.00  0.00    +0.180 C 
ATOM     15  C   LIG    1       -2.603   5.220  -0.951  0.00  0.00    +0.000 C 
ATOM     16  C   LIG    1       -3.901   4.409  -0.976  0.00  0.00    +0.020 C 
ATOM     17  C   LIG    1       -4.961   5.118  -0.131  0.00  0.00    +0.020 C 
ATOM     18  C   LIG    1       -4.465   5.242   1.311  0.00  0.00    +0.020 C 
ATOM     19  C   LIG    1       -3.168   6.053   1.336  0.00  0.00    +0.020 C 
ENDBRANCH  13  14
ENDBRANCH  11  13
ENDBRANCH   4   7
BRANCH   1  20
ATOM     20  O   LIG    1        0.810  -1.920  -1.234  0.00  0.00    -0.290 OA
BRANCH  20  27
ATOM     21  F   LIG    1        0.959  -4.662  -1.348  0.00  0.00    -0.120 F 
ATOM     22  C   LIG    1        0.905  -3.937  -2.486  0.00  0.00    +0.030 A 
ATOM     23  C   LIG    1        0.920  -4.566  -3.721  0.00  0.00    +0.090 A 
ATOM     24  C   LIG    1        0.869  -3.780  -4.864  0.00  0.00    -0.030 A 
ATOM     25  C   LIG    1        0.801  -2.408  -4.739  0.00  0.00    +0.300 A 
ATOM     26  N   LIG    1        0.784  -1.837  -3.549  0.00  0.00    -0.520 NA
ATOM     27  C   LIG    1        0.830  -2.549  -2.436  0.00  0.00    +0.300 A 
ENDBRANCH  20  27
ENDBRANCH   1  20
TORSDOF 5
