REMARK  Name = ZINCrg00000SQerF.0
REMARK                            x       y       z     vdW  Elec       q    Type
REMARK                         _______ _______ _______ _____ _____    ______ ____
ROOT
ATOM      1  C   LIG    1        2.235  -1.138  -6.580  0.00  0.00    +0.520 C 
ATOM      2  N   LIG    1        2.479  -0.641  -5.352  0.00  0.00    -0.610 N 
ATOM      3  C   LIG    1        3.836  -0.236  -4.954  0.00  0.00    +0.250 C 
ATOM      4  C   LIG    1        4.162  -0.895  -3.608  0.00  0.00    +0.230 C 
ATOM      5  O   LIG    1        3.115  -0.607  -2.678  0.00  0.00    -0.350 OA
ATOM      6  C   LIG    1        1.839  -1.132  -3.052  0.00  0.00    +0.190 C 
ATOM      7  C   LIG    1        1.394  -0.485  -4.369  0.00  0.00    +0.300 C 
ATOM      8  O   LIG    1        1.126  -1.540  -6.863  0.00  0.00    -0.500 OA
ENDROOT
BRANCH   1  14
ATOM      9  C   LIG    1        4.138  -2.543  -7.509  0.00  0.00    -0.140 C 
ATOM     10  C   LIG    1        4.856  -2.709  -8.885  0.00  0.00    +0.100 C 
ATOM     11  C   LIG    1        3.355  -2.620  -9.370  0.00  0.00    +0.080 C 
ATOM     12  O   LIG    1        2.812  -1.331  -8.951  0.00  0.00    -0.310 OA
ATOM     13  C   LIG    1        2.992  -3.124 -10.769  0.00  0.00    +0.130 C 
ATOM     14  C   LIG    1        3.341  -1.196  -7.603  0.00  0.00    +0.210 C 
ATOM     15  C   LIG    1        3.128  -3.537  -8.144  0.00  0.00    +0.070 C 
BRANCH   9  16
ATOM     16  C   LIG    1        4.859  -2.871  -6.227  0.00  0.00    +0.500 C 
ATOM     17  O   LIG    1        4.526  -3.832  -5.575  0.00  0.00    -0.480 OA
BRANCH  16  18
ATOM     18  O   LIG    1        5.872  -2.095  -5.809  0.00  0.00    -0.350 OA
BRANCH  18  20
ATOM     19  C   LIG    1        7.648  -1.490  -4.258  0.00  0.00    +0.070 C 
ATOM     20  C   LIG    1        6.606  -2.542  -4.639  0.00  0.00    +0.210 C 
ENDBRANCH  18  20
ENDBRANCH  16  18
ENDBRANCH   9  16
ENDBRANCH   1  14
BRANCH   6  21
ATOM     21  C   LIG    1        0.832  -0.823  -1.974  0.00  0.00    +0.480 C 
ATOM     22  O   LIG    1        1.150  -0.142  -1.028  0.00  0.00    -0.470 OA
BRANCH  21  23
ATOM     23  O   LIG    1       -0.418  -1.303  -2.066  0.00  0.00    -0.350 OA
BRANCH  23  24
ATOM     24  C   LIG    1       -1.335  -0.965  -0.992  0.00  0.00    +0.120 C 
ATOM     25  C   LIG    1       -2.700  -1.597  -1.269  0.00  0.00    +0.080 C 
ATOM     26  C   LIG    1       -0.786  -1.498   0.333  0.00  0.00    +0.030 C 
ATOM     27  C   LIG    1       -1.483   0.555  -0.908  0.00  0.00    +0.040 C 
ENDBRANCH  23  24
ENDBRANCH  21  23
ENDBRANCH   6  21
TORSDOF 7
