REMARK  Name = ZINCrH00000No4vq.0
REMARK                            x       y       z     vdW  Elec       q    Type
REMARK                         _______ _______ _______ _____ _____    ______ ____
ROOT
ATOM      1  C   LIG    1        6.064   3.475  -0.039  0.00  0.00    -0.670 A 
ATOM      2  C   LIG    1        6.088   2.091  -0.045  0.00  0.00    +0.120 A 
ATOM      3  C   LIG    1        4.907   1.378  -0.037  0.00  0.00    +0.020 A 
ATOM      4  C   LIG    1        3.685   2.057  -0.022  0.00  0.00    -0.020 A 
ATOM      5  C   LIG    1        3.670   3.456  -0.020  0.00  0.00    +0.010 A 
ATOM      6  C   LIG    1        4.859   4.154  -0.023  0.00  0.00    +0.120 A 
ENDROOT
BRANCH   1   7
ATOM      7  S   LIG    1        7.578   4.377  -0.049  0.00  0.00    +2.690 S 
ATOM      8  O   LIG    1        8.568   3.506   0.481  0.00  0.00    -0.950 OA
ATOM      9  O   LIG    1        7.289   5.653   0.504  0.00  0.00    -0.950 OA
BRANCH   7  10
ATOM     10  N   LIG    1        7.984   4.635  -1.634  0.00  0.00    -1.000 NA
BRANCH  10  12
ATOM     11  C   LIG    1        8.593   6.922  -2.251  0.00  0.00    +0.010 C 
ATOM     12  C   LIG    1        7.514   5.839  -2.324  0.00  0.00    +0.280 C 
ENDBRANCH  10  12
BRANCH  10  13
ATOM     13  C   LIG    1        8.812   3.659  -2.347  0.00  0.00    +0.290 C 
ATOM     14  C   LIG    1        7.912   2.690  -3.115  0.00  0.00    +0.010 C 
ENDBRANCH  10  13
ENDBRANCH   7  10
ENDBRANCH   1   7
BRANCH   4  15
ATOM     15  C   LIG    1        2.420   1.304  -0.014  0.00  0.00    +0.110 C 
ATOM     16  C   LIG    1        1.244   1.962   0.001  0.00  0.00    -0.070 C 
BRANCH  16  17
ATOM     17  C   LIG    1       -0.014   1.213   0.009  0.00  0.00    +0.550 C 
ATOM     18  N   LIG    1       -1.191   1.871   0.018  0.00  0.00    -0.720 N 
ATOM     19  H   LIG    1       -1.204   2.841   0.023  0.00  0.00    +0.400 HD
ATOM     20  O   LIG    1        0.002  -0.004   0.002  0.00  0.00    -0.540 OA
BRANCH  18  21
ATOM     21  C   LIG    1       -2.449   1.121   0.020  0.00  0.00    +0.320 C 
BRANCH  21  22
ATOM     22  C   LIG    1       -3.608   2.085   0.030  0.00  0.00    -0.110 A 
ATOM     23  C   LIG    1       -4.137   2.515   1.233  0.00  0.00    +0.050 A 
ATOM     24  C   LIG    1       -5.197   3.403   1.243  0.00  0.00    +0.030 A 
ATOM     25  C   LIG    1       -5.735   3.852   0.050  0.00  0.00    -0.030 A 
ATOM     26  C   LIG    1       -5.208   3.416  -1.153  0.00  0.00    +0.030 A 
ATOM     27 CL   LIG    1       -7.070   4.960   0.062  0.00  0.00    -0.060 Cl
ATOM     28  C   LIG    1       -4.145   2.533  -1.162  0.00  0.00    +0.050 A 
ENDBRANCH  21  22
ENDBRANCH  18  21
ENDBRANCH  16  17
ENDBRANCH   4  15
TORSDOF 8
