REMARK  Name = ZINCrD000000Aay5.0
REMARK                            x       y       z     vdW  Elec       q    Type
REMARK                         _______ _______ _______ _____ _____    ______ ____
ROOT
ATOM      1  C   LIG    1        3.323   3.475  -1.078  0.00  0.00    +0.240 C 
ATOM      2  C   LIG    1        1.924   4.096  -1.049  0.00  0.00    +0.020 C 
ATOM      3  C   LIG    1        1.131   3.504   0.120  0.00  0.00    +0.280 C 
ATOM      4  N   LIG    1        1.138   2.039   0.002  0.00  0.00    -0.630 N 
ATOM      5  C   LIG    1        2.429   1.347  -0.118  0.00  0.00    +0.300 C 
ATOM      6  C   LIG    1       -0.016   1.344   0.009  0.00  0.00    +0.710 C 
ATOM      7  N   LIG    1       -1.196   1.996   0.029  0.00  0.00    -0.740 N 
ATOM      8  H   LIG    1       -1.214   2.962   0.112  0.00  0.00    +0.400 HD
ATOM      9  O   LIG    1        0.006   0.128   0.003  0.00  0.00    -0.580 OA
ATOM     10  C   LIG    1        3.207   1.964  -1.290  0.00  0.00    +0.010 C 
ENDROOT
BRANCH   1  13
ATOM     11  O   LIG    1        6.014   3.611  -1.156  0.00  0.00    -0.530 OA
ATOM     12  C   LIG    1        5.442   4.082  -2.116  0.00  0.00    +0.510 C 
ATOM     13  N   LIG    1        4.096   4.064  -2.174  0.00  0.00    -0.730 N 
ATOM     14  H   LIG    1        3.638   4.441  -2.942  0.00  0.00    +0.400 HD
BRANCH  12  15
ATOM     15  C   LIG    1        6.237   4.688  -3.244  0.00  0.00    +0.040 C 
BRANCH  15  16
ATOM     16  C   LIG    1        7.731   4.580  -2.930  0.00  0.00    +0.000 C 
ATOM     17  C   LIG    1        8.083   5.476  -1.725  0.00  0.00    +0.020 C 
ATOM     18  C   LIG    1        9.483   6.044  -2.072  0.00  0.00    +0.000 C 
ATOM     19  C   LIG    1        9.384   6.290  -3.598  0.00  0.00    -0.010 C 
ATOM     20  C   LIG    1        8.558   5.096  -4.121  0.00  0.00    +0.010 C 
ENDBRANCH  15  16
ENDBRANCH  12  15
ENDBRANCH   1  13
BRANCH   7  21
ATOM     21  C   LIG    1       -2.449   1.245  -0.073  0.00  0.00    +0.350 C 
BRANCH  21  22
ATOM     22  C   LIG    1       -3.613   2.201  -0.027  0.00  0.00    -0.120 A 
ATOM     23  C   LIG    1       -4.318   2.375   1.149  0.00  0.00    +0.050 A 
ATOM     24  C   LIG    1       -5.383   3.259   1.193  0.00  0.00    +0.090 A 
ATOM     25  C   LIG    1       -5.750   3.958   0.056  0.00  0.00    +0.030 A 
ATOM     26  C   LIG    1       -5.048   3.780  -1.121  0.00  0.00    +0.020 A 
ATOM     27  F   LIG    1       -6.069   3.433   2.344  0.00  0.00    -0.130 F 
ATOM     28  C   LIG    1       -3.979   2.902  -1.164  0.00  0.00    +0.110 A 
ATOM     29  F   LIG    1       -3.294   2.727  -2.315  0.00  0.00    -0.130 F 
ENDBRANCH  21  22
ENDBRANCH   7  21
TORSDOF 5
