REMARK  Name = ZINCvU0000000BCu.0
REMARK                            x       y       z     vdW  Elec       q    Type
REMARK                         _______ _______ _______ _____ _____    ______ ____
ROOT
ATOM      1  N   LIG    1        1.266   1.806  -0.049  0.00  0.00    -0.420 N 
ATOM      2  C   LIG    1        2.119   0.713  -0.071  0.00  0.00    +0.060 A 
ATOM      3  C   LIG    1        3.497   0.569  -0.096  0.00  0.00    +0.010 A 
ATOM      4  C   LIG    1        4.057  -0.692  -0.115  0.00  0.00    +0.030 A 
ATOM      5  C   LIG    1        3.249  -1.819  -0.109  0.00  0.00    +0.010 A 
ATOM      6  C   LIG    1        1.877  -1.696  -0.084  0.00  0.00    +0.060 A 
ATOM      7  C   LIG    1        1.295  -0.426  -0.065  0.00  0.00    +0.060 A 
ATOM      8  N   LIG    1        0.009   0.010  -0.039  0.00  0.00    -0.490 NA
ATOM      9  C   LIG    1       -0.013   1.321  -0.030  0.00  0.00    +0.260 A 
ENDROOT
BRANCH   1  13
ATOM     10  C   LIG    1        2.391   5.823  -0.042  0.00  0.00    +0.150 A 
ATOM     11  C   LIG    1        1.734   5.285   1.055  0.00  0.00    +0.000 A 
ATOM     12  C   LIG    1        1.362   3.955   1.054  0.00  0.00    +0.080 A 
ATOM     13  C   LIG    1        1.645   3.157  -0.046  0.00  0.00    +0.070 A 
ATOM     14  C   LIG    1        2.307   3.694  -1.142  0.00  0.00    +0.070 A 
ATOM     15  C   LIG    1        2.673   5.026  -1.141  0.00  0.00    -0.060 A 
BRANCH  10  17
ATOM     16  C   LIG    1        3.430   7.620  -1.202  0.00  0.00    +0.250 C 
ATOM     17  O   LIG    1        2.757   7.132  -0.040  0.00  0.00    -0.310 OA
ENDBRANCH  10  17
ENDBRANCH   1  13
BRANCH   9  18
ATOM     18  S   LIG    1       -1.471   2.309  -0.004  0.00  0.00    +0.080 S 
BRANCH  18  19
ATOM     19  C   LIG    1       -2.732   1.011   0.003  0.00  0.00    +0.020 C 
ATOM     20  C   LIG    1       -2.633   0.211   1.304  0.00  0.00    +0.090 C 
BRANCH  19  21
ATOM     21  C   LIG    1       -4.099   1.637  -0.099  0.00  0.00    +0.540 C 
ATOM     22  N   LIG    1       -5.149   0.899  -0.511  0.00  0.00    -0.650 N 
ATOM     23  H   LIG    1       -5.013  -0.016  -0.804  0.00  0.00    +0.420 HD
ATOM     24  O   LIG    1       -4.254   2.804   0.190  0.00  0.00    -0.510 OA
BRANCH  22  25
ATOM     25  C   LIG    1       -6.435   1.454  -0.517  0.00  0.00    +0.110 A 
ATOM     26  C   LIG    1       -6.612   2.797  -0.812  0.00  0.00    +0.070 A 
ATOM     27  C   LIG    1       -7.882   3.342  -0.818  0.00  0.00    -0.010 A 
ATOM     28  C   LIG    1       -8.979   2.551  -0.529  0.00  0.00    +0.040 A 
ATOM     29  C   LIG    1       -8.810   1.211  -0.234  0.00  0.00    -0.060 A 
ATOM     30  C   LIG    1       -7.541   0.656  -0.232  0.00  0.00    +0.110 A 
BRANCH  30  31
ATOM     31  O   LIG    1       -7.375  -0.663   0.052  0.00  0.00    -0.320 OA
ATOM     32  C   LIG    1       -8.554  -1.420   0.334  0.00  0.00    +0.250 C 
ENDBRANCH  30  31
ENDBRANCH  22  25
ENDBRANCH  19  21
ENDBRANCH  18  19
ENDBRANCH   9  18
TORSDOF 7
