REMARK  Name = ZINCvU0000000JG4.0
REMARK                            x       y       z     vdW  Elec       q    Type
REMARK                         _______ _______ _______ _____ _____    ______ ____
ROOT
ATOM      1  N   LIG    1        2.885   0.820   1.490  0.00  0.00    -0.970 NA
ENDROOT
BRANCH   1   2
ATOM      2  S   LIG    1        2.685   1.531   0.008  0.00  0.00    +2.690 S 
ATOM      3  O   LIG    1        3.742   2.470  -0.132  0.00  0.00    -0.950 OA
ATOM      4  O   LIG    1        2.456   0.476  -0.916  0.00  0.00    -0.930 OA
BRANCH   2   5
ATOM      5  C   LIG    1        1.194   2.466   0.075  0.00  0.00    -0.670 A 
ATOM      6  C   LIG    1        1.240   3.846   0.010  0.00  0.00    +0.160 A 
ATOM      7  C   LIG    1        0.070   4.581   0.061  0.00  0.00    +0.020 A 
ATOM      8  C   LIG    1       -1.148   3.935   0.179  0.00  0.00    +0.030 A 
ATOM      9  C   LIG    1       -1.195   2.554   0.241  0.00  0.00    +0.030 A 
ATOM     10 CL   LIG    1       -2.617   4.857   0.244  0.00  0.00    -0.040 Cl
ATOM     11  C   LIG    1       -0.024   1.819   0.194  0.00  0.00    +0.090 A 
ATOM     12 CL   LIG    1       -0.082   0.086   0.276  0.00  0.00    -0.030 Cl
ENDBRANCH   2   5
ENDBRANCH   1   2
BRANCH   1  13
ATOM     13  C   LIG    1        3.453   1.588   2.601  0.00  0.00    +0.360 C 
BRANCH  13  15
ATOM     14  O   LIG    1        1.183   1.964   3.125  0.00  0.00    -0.490 OA
ATOM     15  C   LIG    1        2.338   2.170   3.431  0.00  0.00    +0.490 C 
ATOM     16  N   LIG    1        2.626   2.920   4.513  0.00  0.00    -0.670 N 
ATOM     17  H   LIG    1        3.546   3.028   4.798  0.00  0.00    +0.420 HD
BRANCH  16  18
ATOM     18  C   LIG    1        1.594   3.543   5.227  0.00  0.00    +0.150 A 
ATOM     19  C   LIG    1        0.357   2.925   5.343  0.00  0.00    +0.030 A 
ATOM     20  C   LIG    1       -0.658   3.541   6.054  0.00  0.00    +0.110 A 
ATOM     21  C   LIG    1       -0.444   4.777   6.639  0.00  0.00    +0.010 A 
ATOM     22  C   LIG    1        0.786   5.398   6.520  0.00  0.00    +0.050 A 
ATOM     23  F   LIG    1       -1.861   2.937   6.172  0.00  0.00    -0.130 F 
ATOM     24  C   LIG    1        1.806   4.785   5.816  0.00  0.00    +0.060 A 
ATOM     25  F   LIG    1        3.007   5.392   5.700  0.00  0.00    -0.130 F 
ENDBRANCH  16  18
ENDBRANCH  13  15
ENDBRANCH   1  13
BRANCH   1  26
ATOM     26  C   LIG    1        2.493  -0.578   1.691  0.00  0.00    +0.360 C 
BRANCH  26  27
ATOM     27  C   LIG    1        3.717  -1.456   1.633  0.00  0.00    -0.110 A 
ATOM     28  C   LIG    1        4.128  -1.991   0.427  0.00  0.00    +0.030 A 
ATOM     29  C   LIG    1        5.253  -2.792   0.373  0.00  0.00    +0.010 A 
ATOM     30  C   LIG    1        5.962  -3.066   1.528  0.00  0.00    +0.010 A 
ATOM     31  C   LIG    1        5.548  -2.536   2.735  0.00  0.00    +0.000 A 
ATOM     32  C   LIG    1        4.426  -1.730   2.788  0.00  0.00    +0.010 A 
ENDBRANCH  26  27
ENDBRANCH   1  26
TORSDOF 7
