REMARK  Name = ZINCrD000000fuXU.0
REMARK                            x       y       z     vdW  Elec       q    Type
REMARK                         _______ _______ _______ _____ _____    ______ ____
ROOT
ATOM      1  N   LIG    1       -3.610  -5.456   0.744  0.00  0.00    -0.450 N 
ATOM      2  C   LIG    1       -2.676  -4.553   0.324  0.00  0.00    +0.160 A 
ATOM      3  N   LIG    1       -1.616  -5.235  -0.051  0.00  0.00    -0.290 NA
ATOM      4  N   LIG    1       -1.825  -6.494   0.099  0.00  0.00    -0.250 NA
ATOM      5  C   LIG    1       -3.031  -6.694   0.580  0.00  0.00    +0.220 A 
ENDROOT
BRANCH   5   6
ATOM      6  C   LIG    1       -3.647  -8.000   0.892  0.00  0.00    +0.030 A 
ATOM      7  C   LIG    1       -2.869  -9.074   1.342  0.00  0.00    +0.020 A 
ATOM      8  C   LIG    1       -3.486 -10.273   1.627  0.00  0.00    +0.280 A 
ATOM      9  N   LIG    1       -4.788 -10.420   1.470  0.00  0.00    -0.470 NA
ATOM     10  C   LIG    1       -5.557  -9.436   1.043  0.00  0.00    +0.270 A 
ATOM     11  C   LIG    1       -5.024  -8.201   0.740  0.00  0.00    -0.030 A 
ENDBRANCH   5   6
BRANCH   1  12
ATOM     12  C   LIG    1       -4.951  -5.168   1.259  0.00  0.00    +0.350 C 
BRANCH  12  14
ATOM     13  C   LIG    1       -7.012  -5.683   0.056  0.00  0.00    +0.080 C 
ATOM     14  C   LIG    1       -5.904  -4.986   0.106  0.00  0.00    -0.060 C 
ENDBRANCH  12  14
ENDBRANCH   1  12
BRANCH   2  15
ATOM     15  S   LIG    1       -2.855  -2.801   0.297  0.00  0.00    +0.050 S 
BRANCH  15  16
ATOM     16  C   LIG    1       -1.236  -2.330  -0.360  0.00  0.00    +0.070 C 
BRANCH  16  17
ATOM     17  C   LIG    1       -1.155  -0.806  -0.475  0.00  0.00    +0.250 C 
BRANCH  17  18
ATOM     18  O   LIG    1       -2.181  -0.340  -1.355  0.00  0.00    -0.540 OA
ATOM     19  H   LIG    1       -2.122  -0.697  -2.251  0.00  0.00    +0.380 HD
ENDBRANCH  17  18
BRANCH  17  20
ATOM     20  C   LIG    1        0.213  -0.408  -1.030  0.00  0.00    +0.180 C 
BRANCH  20  21
ATOM     21  O   LIG    1        0.332   1.016  -1.028  0.00  0.00    -0.300 OA
BRANCH  21  22
ATOM     22  C   LIG    1        1.497   1.539  -1.495  0.00  0.00    +0.130 A 
ATOM     23  C   LIG    1        2.507   0.698  -1.939  0.00  0.00    -0.090 A 
ATOM     24  C   LIG    1        3.688   1.232  -2.418  0.00  0.00    +0.050 A 
ATOM     25  C   LIG    1        3.868   2.602  -2.443  0.00  0.00    -0.040 A 
ATOM     26  C   LIG    1        2.865   3.442  -1.996  0.00  0.00    -0.050 A 
ATOM     27  C   LIG    1        3.064   4.936  -2.025  0.00  0.00    +0.090 C 
ATOM     28  C   LIG    1        1.680   2.914  -1.522  0.00  0.00    -0.020 A 
ENDBRANCH  21  22
ENDBRANCH  20  21
ENDBRANCH  17  20
ENDBRANCH  16  17
ENDBRANCH  15  16
ENDBRANCH   2  15
TORSDOF 10
