REMARK  Name = ZINCvU0000000FUY.0
REMARK                            x       y       z     vdW  Elec       q    Type
REMARK                         _______ _______ _______ _____ _____    ______ ____
ROOT
ATOM      1  C   LIG    1       -3.709   2.614   3.122  0.00  0.00    +0.140 C 
ATOM      2  C   LIG    1       -2.335   2.245   2.625  0.00  0.00    +0.020 A 
ATOM      3  C   LIG    1       -1.207   2.285   3.354  0.00  0.00    +0.010 A 
ATOM      4  C   LIG    1       -0.123   1.844   2.466  0.00  0.00    -0.260 A 
ATOM      5  C   LIG    1       -0.718   1.572   1.248  0.00  0.00    +0.130 A 
ATOM      6  C   LIG    1       -0.013   1.086   0.008  0.00  0.00    +0.150 C 
ATOM      7  N   LIG    1       -2.037   1.822   1.360  0.00  0.00    -0.390 N 
ENDROOT
BRANCH   7   8
ATOM      8  C   LIG    1       -2.972   1.667   0.327  0.00  0.00    +0.080 A 
ATOM      9  C   LIG    1       -2.899   2.471  -0.803  0.00  0.00    +0.070 A 
ATOM     10  C   LIG    1       -3.817   2.314  -1.822  0.00  0.00    -0.040 A 
ATOM     11  C   LIG    1       -4.819   1.361  -1.713  0.00  0.00    +0.120 A 
ATOM     12  C   LIG    1       -4.895   0.560  -0.583  0.00  0.00    +0.030 A 
ATOM     13  C   LIG    1       -3.975   0.712   0.435  0.00  0.00    +0.070 A 
BRANCH  11  14
ATOM     14  O   LIG    1       -5.726   1.211  -2.714  0.00  0.00    -0.320 OA
BRANCH  14  15
ATOM     15  C   LIG    1       -5.588   2.069  -3.849  0.00  0.00    +0.600 C 
ATOM     16  F   LIG    1       -4.338   1.861  -4.441  0.00  0.00    -0.200 F 
ATOM     17  F   LIG    1       -5.695   3.403  -3.441  0.00  0.00    -0.200 F 
ENDBRANCH  14  15
ENDBRANCH  11  14
ENDBRANCH   7   8
BRANCH   4  18
ATOM     18  C   LIG    1        1.297   1.719   2.802  0.00  0.00    +0.450 C 
ATOM     19  O   LIG    1        2.087   1.340   1.963  0.00  0.00    -0.450 OA
BRANCH  18  20
ATOM     20  C   LIG    1        1.776   2.061   4.189  0.00  0.00    +0.020 C 
ATOM     21  C   LIG    1        1.603   0.845   5.102  0.00  0.00    +0.090 C 
BRANCH  20  22
ATOM     22  S   LIG    1        3.528   2.526   4.126  0.00  0.00    +0.040 S 
BRANCH  22  23
ATOM     23  C   LIG    1        3.865   3.027   5.781  0.00  0.00    +0.120 A 
ATOM     24  N   LIG    1        3.010   3.044   6.779  0.00  0.00    -0.250 NA
ATOM     25  N   LIG    1        3.584   3.462   7.852  0.00  0.00    -0.280 NA
ATOM     26  C   LIG    1        4.849   3.745   7.598  0.00  0.00    +0.200 A 
ATOM     27  C   LIG    1        5.911   4.231   8.386  0.00  0.00    +0.080 A 
ATOM     28  C   LIG    1        7.129   4.422   7.814  0.00  0.00    +0.060 A 
ATOM     29  C   LIG    1        7.314   4.136   6.448  0.00  0.00    +0.030 A 
ATOM     30  C   LIG    1        6.292   3.672   5.703  0.00  0.00    +0.240 A 
ATOM     31  N   LIG    1        5.060   3.473   6.263  0.00  0.00    -0.380 N 
ENDBRANCH  22  23
ENDBRANCH  20  22
ENDBRANCH  18  20
ENDBRANCH   4  18
TORSDOF 7
