REMARK  Name = ZINCrg00000J1sDG.0
REMARK                            x       y       z     vdW  Elec       q    Type
REMARK                         _______ _______ _______ _____ _____    ______ ____
ROOT
ATOM      1  O   LIG    1       -0.661   5.655  -1.578  0.00  0.00    -0.440 OA
ATOM      2  C   LIG    1       -1.263   5.086  -2.464  0.00  0.00    +0.420 C 
ENDROOT
BRANCH   2   3
ATOM      3  C   LIG    1       -1.814   5.854  -3.585  0.00  0.00    -0.260 A 
ATOM      4  C   LIG    1       -2.516   5.345  -4.667  0.00  0.00    +0.280 A 
ATOM      5  N   LIG    1       -2.851   6.365  -5.471  0.00  0.00    -0.530 N 
ATOM      6  H   LIG    1       -3.349   6.287  -6.299  0.00  0.00    +0.420 HD
ATOM      7  C   LIG    1       -2.370   7.542  -4.937  0.00  0.00    -0.060 A 
ATOM      8  C   LIG    1       -1.726   7.254  -3.772  0.00  0.00    +0.120 A 
BRANCH   7   9
ATOM      9  C   LIG    1       -2.527   8.879  -5.525  0.00  0.00    +0.600 C 
ATOM     10  N   LIG    1       -3.190   9.030  -6.688  0.00  0.00    -0.620 N 
ATOM     11  C   LIG    1       -3.799   7.947  -7.474  0.00  0.00    +0.220 C 
ATOM     12  C   LIG    1       -4.422   8.588  -8.732  0.00  0.00    +0.040 C 
ATOM     13  C   LIG    1       -3.632   9.916  -8.870  0.00  0.00    +0.040 C 
ATOM     14  C   LIG    1       -3.420  10.307  -7.386  0.00  0.00    +0.260 C 
ATOM     15  O   LIG    1       -2.058   9.850  -4.961  0.00  0.00    -0.520 OA
ENDBRANCH   7   9
ENDBRANCH   2   3
BRANCH   2  16
ATOM     16  C   LIG    1       -1.445   3.591  -2.413  0.00  0.00    +0.190 C 
BRANCH  16  17
ATOM     17  N   LIG    1       -0.806   3.062  -1.200  0.00  0.00    -0.530 NA
ATOM     18  C   LIG    1       -0.754   1.593  -1.231  0.00  0.00    +0.190 C 
ATOM     19  C   LIG    1       -0.013   1.086   0.008  0.00  0.00    +0.220 C 
ATOM     20  N   LIG    1       -0.701   1.560   1.216  0.00  0.00    -0.460 N 
ATOM     21  C   LIG    1       -0.754   3.029   1.247  0.00  0.00    +0.230 C 
ATOM     22  C   LIG    1       -1.495   3.536   0.008  0.00  0.00    +0.190 C 
BRANCH  20  23
ATOM     23  C   LIG    1       -0.099   1.061   2.358  0.00  0.00    +0.490 A 
ATOM     24  N   LIG    1        0.952   0.264   2.240  0.00  0.00    -0.550 NA
ATOM     25  C   LIG    1        1.554  -0.225   3.311  0.00  0.00    +0.340 A 
ATOM     26  C   LIG    1        1.065   0.096   4.568  0.00  0.00    -0.110 A 
ATOM     27  C   LIG    1       -0.040   0.928   4.655  0.00  0.00    +0.350 A 
ATOM     28  N   LIG    1       -0.592   1.388   3.545  0.00  0.00    -0.530 NA
ENDBRANCH  20  23
ENDBRANCH  16  17
ENDBRANCH   2  16
TORSDOF 5
