REMARK  Name = ZINCpk00000CNLsU.0
REMARK                            x       y       z     vdW  Elec       q    Type
REMARK                         _______ _______ _______ _____ _____    ______ ____
ROOT
ATOM      1  C   LIG    1        5.829  -1.722   1.099  0.00  0.00    +0.220 C 
ATOM      2  C   LIG    1        6.992  -1.012   0.385  0.00  0.00    +0.010 C 
ATOM      3  C   LIG    1        7.301  -2.361  -0.285  0.00  0.00    +0.020 C 
ATOM      4  C   LIG    1        6.622  -3.029   0.925  0.00  0.00    +0.230 C 
ENDROOT
BRANCH   1   6
ATOM      5  C   LIG    1        3.572  -0.879   0.736  0.00  0.00    +0.520 C 
ATOM      6  N   LIG    1        4.573  -1.693   0.346  0.00  0.00    -0.720 N 
ATOM      7  H   LIG    1        4.462  -2.260  -0.434  0.00  0.00    +0.400 HD
ATOM      8  O   LIG    1        3.711  -0.171   1.711  0.00  0.00    -0.510 OA
BRANCH   5   9
ATOM      9  C   LIG    1        2.280  -0.850  -0.039  0.00  0.00    +0.180 C 
BRANCH   9  14
ATOM     10  C   LIG    1       -0.020  -0.613  -1.401  0.00  0.00    +0.030 C 
ATOM     11  C   LIG    1        0.002  -0.004   0.002  0.00  0.00    +0.120 C 
ATOM     12  C   LIG    1       -0.019   1.535   0.011  0.00  0.00    +0.020 C 
ATOM     13  C   LIG    1        1.518   1.458  -0.005  0.00  0.00    +0.160 C 
ATOM     14  N   LIG    1        1.358   0.110   0.584  0.00  0.00    -0.450 NA
ENDBRANCH   9  14
ENDBRANCH   5   9
ENDBRANCH   1   6
BRANCH   4  15
ATOM     15  N   LIG    1        7.539  -3.310   2.032  0.00  0.00    -0.710 N 
ATOM     16  H   LIG    1        7.881  -2.583   2.576  0.00  0.00    +0.400 HD
ATOM     17  C   LIG    1        7.909  -4.579   2.295  0.00  0.00    +0.600 C 
ATOM     18  O   LIG    1        7.480  -5.492   1.613  0.00  0.00    -0.550 OA
BRANCH  17  19
ATOM     19  C   LIG    1        8.825  -4.859   3.400  0.00  0.00    -0.250 A 
ATOM     20  C   LIG    1        9.302  -6.121   3.799  0.00  0.00    +0.120 A 
ATOM     21  C   LIG    1        9.075  -7.415   3.309  0.00  0.00    +0.070 A 
ATOM     22  C   LIG    1        9.688  -8.474   3.911  0.00  0.00    +0.030 A 
ATOM     23  C   LIG    1       10.534  -8.249   5.007  0.00  0.00    +0.010 A 
ATOM     24  C   LIG    1       10.741  -6.996   5.465  0.00  0.00    +0.220 A 
ATOM     25  N   LIG    1       10.132  -5.926   4.871  0.00  0.00    -0.340 N 
ATOM     26  C   LIG    1       10.185  -4.586   5.149  0.00  0.00    +0.110 A 
ATOM     27  C   LIG    1        9.413  -3.913   4.277  0.00  0.00    +0.050 A 
ENDBRANCH  17  19
ENDBRANCH   4  15
TORSDOF 5
