REMARK  Name = ZINCkj00000hdGwG.0
REMARK                            x       y       z     vdW  Elec       q    Type
REMARK                         _______ _______ _______ _____ _____    ______ ____
ROOT
ATOM      1  O   LIG    1       -1.406   3.585   3.965  0.00  0.00    -0.930 OA
ATOM      2  S   LIG    1       -1.714   3.595   2.576  0.00  0.00    +2.610 S 
ATOM      3  C   LIG    1       -0.347   2.872   1.623  0.00  0.00    -0.380 C 
ATOM      4  C   LIG    1       -0.695   1.438   1.234  0.00  0.00    +0.300 C 
ATOM      5  N   LIG    1       -0.012   1.024   0.008  0.00  0.00    -0.370 N 
ATOM      6  C   LIG    1       -0.738   1.456  -1.184  0.00  0.00    +0.250 C 
ATOM      7  C   LIG    1       -0.202   2.755  -1.778  0.00  0.00    +0.020 C 
ATOM      8  C   LIG    1       -1.263   3.369  -2.702  0.00  0.00    +0.040 C 
ATOM      9  C   LIG    1       -1.334   4.878  -2.457  0.00  0.00    +0.010 C 
ATOM     10  C   LIG    1       -2.386   5.177  -1.389  0.00  0.00    +0.020 C 
ATOM     11  C   LIG    1       -1.725   5.878  -0.199  0.00  0.00    +0.000 C 
ATOM     12  C   LIG    1       -2.564   5.651   1.060  0.00  0.00    +0.300 C 
ATOM     13  H   LIG    1        0.002  -0.004   0.002  0.00  0.00    +0.440 HD
ATOM     14  O   LIG    1       -2.965   3.126   2.098  0.00  0.00    -0.930 OA
ATOM     15  N   LIG    1       -1.677   5.206   2.155  0.00  0.00    -1.110 NA
ATOM     16  H   LIG    1       -1.087   5.830   2.610  0.00  0.00    +0.430 HD
ENDROOT
BRANCH   5  17
ATOM     17  C   LIG    1        1.382   1.464  -0.003  0.00  0.00    +0.250 C 
BRANCH  17  18
ATOM     18  C   LIG    1        2.129   0.821   1.168  0.00  0.00    +0.150 C 
ATOM     19  C   LIG    1        3.571   1.368   1.233  0.00  0.00    +0.040 C 
ATOM     20  C   LIG    1        4.386   0.102   1.612  0.00  0.00    +0.030 C 
ATOM     21  C   LIG    1        3.586  -0.997   0.868  0.00  0.00    +0.220 C 
ATOM     22  O   LIG    1        2.211  -0.595   0.973  0.00  0.00    -0.380 OA
ENDBRANCH  17  18
ENDBRANCH   5  17
TORSDOF 2
