REMARK  Name = ZINCkj00000hdGwG.1
REMARK                            x       y       z     vdW  Elec       q    Type
REMARK                         _______ _______ _______ _____ _____    ______ ____
ROOT
ATOM      1  O   LIG    1        0.856   4.309   4.091  0.00  0.00    -0.930 OA
ATOM      2  S   LIG    1        0.324   4.203   2.777  0.00  0.00    +2.610 S 
ATOM      3  C   LIG    1        1.577   4.671   1.546  0.00  0.00    -0.380 C 
ATOM      4  C   LIG    1        1.199   6.006   0.916  0.00  0.00    +0.300 C 
ATOM      5  N   LIG    1        1.771   6.180  -0.418  0.00  0.00    -0.380 N 
ATOM      6  C   LIG    1        0.864   5.684  -1.453  0.00  0.00    +0.240 C 
ATOM      7  C   LIG    1        1.097   4.212  -1.776  0.00  0.00    +0.020 C 
ATOM      8  C   LIG    1       -0.168   3.624  -2.414  0.00  0.00    +0.040 C 
ATOM      9  C   LIG    1       -0.316   2.162  -1.989  0.00  0.00    +0.010 C 
ATOM     10  C   LIG    1       -1.240   2.069  -0.774  0.00  0.00    +0.020 C 
ATOM     11  C   LIG    1       -0.466   1.510   0.421  0.00  0.00    +0.000 C 
ATOM     12  C   LIG    1       -1.009   2.121   1.714  0.00  0.00    +0.300 C 
ATOM     13  H   LIG    1        1.875   7.193  -0.571  0.00  0.00    +0.440 HD
ATOM     14  O   LIG    1       -0.935   4.767   2.448  0.00  0.00    -0.930 OA
ATOM     15  N   LIG    1        0.128   2.565   2.545  0.00  0.00    -1.110 NA
ATOM     16  H   LIG    1        0.741   1.923   2.942  0.00  0.00    +0.430 HD
ENDROOT
BRANCH   5  17
ATOM     17  C   LIG    1        3.105   5.594  -0.528  0.00  0.00    +0.270 C 
BRANCH  17  18
ATOM     18  C   LIG    1        3.762   6.062  -1.828  0.00  0.00    +0.140 C 
ATOM     19  C   LIG    1        5.159   5.422  -1.985  0.00  0.00    +0.030 C 
ATOM     20  C   LIG    1        6.015   6.540  -2.621  0.00  0.00    +0.020 C 
ATOM     21  C   LIG    1        5.034   7.723  -2.773  0.00  0.00    +0.230 C 
ATOM     22  O   LIG    1        4.011   7.484  -1.782  0.00  0.00    -0.380 OA
ENDBRANCH  17  18
ENDBRANCH   5  17
TORSDOF 2
