REMARK  Name = ZINCb80000003Wkb.0
REMARK                            x       y       z     vdW  Elec       q    Type
REMARK                         _______ _______ _______ _____ _____    ______ ____
ROOT
ATOM      1  C   LIG    1        1.739   3.160   0.002  0.00  0.00    +0.360 C 
ATOM      2  N   LIG    1        1.309   1.760  -0.001  0.00  0.00    -0.360 N 
ATOM      3  C   LIG    1        2.119   0.681  -0.015  0.00  0.00    +0.240 A 
ATOM      4  C   LIG    1        1.337  -0.423  -0.013  0.00  0.00    -0.100 A 
ATOM      5  C   LIG    1        0.002  -0.004   0.002  0.00  0.00    +0.060 A 
ATOM      6  N   LIG    1       -0.016   1.304   0.009  0.00  0.00    -0.260 NA
ENDROOT
BRANCH   5   7
ATOM      7  C   LIG    1       -1.206  -0.904   0.008  0.00  0.00    -0.220 C 
BRANCH   7   8
ATOM      8  S   LIG    1       -1.707  -1.256  -1.700  0.00  0.00    +2.580 S 
ATOM      9  F   LIG    1       -3.115  -2.023  -1.556  0.00  0.00    -0.480 F 
ATOM     10  O   LIG    1       -0.842  -2.219  -2.285  0.00  0.00    -0.920 OA
ATOM     11  O   LIG    1       -2.032  -0.052  -2.382  0.00  0.00    -0.920 OA
ENDBRANCH   7   8
ENDBRANCH   5   7
TORSDOF 2
