REMARK  Name = ZINCpe00000yAvt1.0
REMARK                            x       y       z     vdW  Elec       q    Type
REMARK                         _______ _______ _______ _____ _____    ______ ____
ROOT
ATOM      1  C   LIG    1        1.226  -2.179  -0.022  0.00  0.00    +0.580 C 
ATOM      2  N   LIG    1        0.071  -2.865   0.087  0.00  0.00    -0.610 N 
ATOM      3  C   LIG    1       -1.280  -2.274   0.122  0.00  0.00    +0.260 C 
ATOM      4  C   LIG    1       -2.224  -3.407  -0.366  0.00  0.00    +0.290 C 
ATOM      5  C   LIG    1       -1.550  -4.649   0.250  0.00  0.00    -0.170 C 
ATOM      6  C   LIG    1       -2.177  -5.409   1.406  0.00  0.00    +0.080 C 
ATOM      7  C   LIG    1       -2.090  -6.050   0.018  0.00  0.00    +0.050 C 
ATOM      8  C   LIG    1       -0.051  -4.329   0.196  0.00  0.00    +0.310 C 
ATOM      9  O   LIG    1        2.278  -2.776  -0.142  0.00  0.00    -0.530 OA
ENDROOT
BRANCH   1  14
ATOM     10  C   LIG    1        2.186   1.417  -0.539  0.00  0.00    +0.160 A 
ATOM     11  C   LIG    1        1.111   2.025   0.099  0.00  0.00    +0.210 A 
ATOM     12  N   LIG    1        0.154   1.304   0.651  0.00  0.00    -0.440 NA
ATOM     13  C   LIG    1        0.170  -0.012   0.625  0.00  0.00    +0.220 A 
ATOM     14  C   LIG    1        1.213  -0.701   0.005  0.00  0.00    -0.140 A 
ATOM     15  C   LIG    1        2.247   0.029  -0.591  0.00  0.00    +0.040 A 
BRANCH  10  17
ATOM     16  C   LIG    1        3.121   3.654  -1.058  0.00  0.00    +0.290 C 
ATOM     17  N   LIG    1        3.194   2.192  -1.119  0.00  0.00    -0.740 N 
ATOM     18  H   LIG    1        3.942   1.762  -1.562  0.00  0.00    +0.400 HD
ENDBRANCH  10  17
ENDBRANCH   1  14
BRANCH   4  19
ATOM     19  N   LIG    1       -2.244  -3.490  -1.828  0.00  0.00    -0.720 N 
ATOM     20  H   LIG    1       -1.583  -4.027  -2.292  0.00  0.00    +0.400 HD
ATOM     21  C   LIG    1       -3.180  -2.820  -2.529  0.00  0.00    +0.600 C 
ATOM     22  O   LIG    1       -4.009  -2.146  -1.946  0.00  0.00    -0.510 OA
BRANCH  21  23
ATOM     23  C   LIG    1       -3.200  -2.903  -3.998  0.00  0.00    -0.050 A 
ATOM     24  C   LIG    1       -4.093  -2.283  -4.853  0.00  0.00    +0.020 A 
ATOM     25  C   LIG    1       -3.701  -2.663  -6.138  0.00  0.00    +0.190 A 
ATOM     26  N   LIG    1       -2.662  -3.451  -6.024  0.00  0.00    -0.270 NA
ATOM     27  N   LIG    1       -2.342  -3.612  -4.790  0.00  0.00    -0.380 N 
ATOM     28  H   LIG    1       -1.605  -4.155  -4.470  0.00  0.00    +0.440 HD
ENDBRANCH  21  23
ENDBRANCH   4  19
TORSDOF 4
