REMARK  Name = ZINCpe00000VVH4j.0
REMARK                            x       y       z     vdW  Elec       q    Type
REMARK                         _______ _______ _______ _____ _____    ______ ____
ROOT
ATOM      1  N   LIG    1        0.080   8.765  -0.080  0.00  0.00    -0.500 N 
ATOM      2  H   LIG    1       -0.884   8.661  -0.068  0.00  0.00    +0.430 HD
ATOM      3  C   LIG    1        0.876   7.678  -0.072  0.00  0.00    +0.540 C 
ATOM      4  O   LIG    1        2.082   7.808  -0.088  0.00  0.00    -0.500 OA
ENDROOT
BRANCH   1   9
ATOM      5  C   LIG    1        1.388  12.130   0.469  0.00  0.00    +0.130 C 
ATOM      6  N   LIG    1        1.669  11.841  -0.948  0.00  0.00    -0.710 N 
ATOM      7  H   LIG    1        2.107  12.428  -1.584  0.00  0.00    +0.440 HD
ATOM      8  C   LIG    1        1.200  10.603  -1.188  0.00  0.00    +0.710 C 
ATOM      9  N   LIG    1        0.646  10.047  -0.105  0.00  0.00    -0.380 N 
ATOM     10  O   LIG    1        1.270  10.052  -2.269  0.00  0.00    -0.520 OA
ATOM     11  C   LIG    1        2.689  12.370   1.237  0.00  0.00    +0.100 C 
ATOM     12  C   LIG    1        0.695  10.874   0.958  0.00  0.00    +0.530 C 
ATOM     13  O   LIG    1        0.274  10.658   2.074  0.00  0.00    -0.440 OA
BRANCH   5  15
ATOM     14  C   LIG    1        1.082  14.540  -0.114  0.00  0.00    +0.050 C 
ATOM     15  C   LIG    1        0.458  13.338   0.597  0.00  0.00    +0.050 C 
ENDBRANCH   5  15
ENDBRANCH   1   9
BRANCH   3  16
ATOM     16  C   LIG    1        0.267   6.299  -0.045  0.00  0.00    +0.140 C 
BRANCH  16  17
ATOM     17  S   LIG    1        1.585   5.058  -0.042  0.00  0.00    +0.090 S 
BRANCH  17  18
ATOM     18  C   LIG    1        0.618   3.586  -0.009  0.00  0.00    +0.130 A 
ATOM     19  N   LIG    1       -0.695   3.510   0.006  0.00  0.00    -0.290 NA
ATOM     20  N   LIG    1       -1.063   2.277   0.019  0.00  0.00    -0.280 NA
ATOM     21  C   LIG    1       -0.018   1.503   0.010  0.00  0.00    +0.190 A 
ATOM     22  C   LIG    1        0.002  -0.004   0.002  0.00  0.00    +0.160 C 
ATOM     23  C   LIG    1        1.007  -0.496   1.048  0.00  0.00    +0.030 C 
ATOM     24  C   LIG    1        2.393  -0.598   0.419  0.00  0.00    +0.020 C 
ATOM     25  C   LIG    1        2.588   0.491  -0.635  0.00  0.00    +0.030 C 
ATOM     26  C   LIG    1        2.481   1.871   0.021  0.00  0.00    +0.290 C 
ATOM     27  N   LIG    1        1.086   2.308   0.004  0.00  0.00    -0.450 N 
ENDBRANCH  17  18
ENDBRANCH  16  17
ENDBRANCH   3  16
TORSDOF 5
