REMARK  Name = ZINCc70000002FwX.0
REMARK                            x       y       z     vdW  Elec       q    Type
REMARK                         _______ _______ _______ _____ _____    ______ ____
ROOT
ATOM      1  C   LIG    1       -3.666   1.503   0.028  0.00  0.00    +0.170 A 
ATOM      2  C   LIG    1       -3.867   2.876   0.042  0.00  0.00    -0.150 A 
ATOM      3  C   LIG    1       -5.150   3.389   0.046  0.00  0.00    +0.100 A 
ATOM      4  C   LIG    1       -6.237   2.537   0.046  0.00  0.00    -0.110 A 
ATOM      5  C   LIG    1       -6.042   1.161   0.037  0.00  0.00    +0.250 A 
ATOM      6  C   LIG    1       -4.754   0.644   0.028  0.00  0.00    -0.100 A 
ENDROOT
BRANCH   5   7
ATOM      7  N   LIG    1       -7.141   0.299   0.038  0.00  0.00    -0.870 N 
ATOM      8  H   LIG    1       -8.041   0.660   0.045  0.00  0.00    +0.400 HD
ATOM      9  H   LIG    1       -7.004  -0.662   0.033  0.00  0.00    +0.400 HD
ENDBRANCH   5   7
BRANCH   1  10
ATOM     10  O   LIG    1       -2.403   1.001   0.019  0.00  0.00    -0.290 OA
BRANCH  10  11
ATOM     11  C   LIG    1       -1.330   1.944   0.019  0.00  0.00    +0.240 C 
BRANCH  11  15
ATOM     12  N   LIG    1        1.143   1.898   0.001  0.00  0.00    -0.850 N 
ATOM     13  H   LIG    1        1.130   2.868   0.007  0.00  0.00    +0.400 HD
ATOM     14  H   LIG    1        1.990   1.425  -0.009  0.00  0.00    +0.410 HD
ATOM     15  C   LIG    1       -0.014   1.209   0.009  0.00  0.00    +0.520 C 
ATOM     16  O   LIG    1        0.002  -0.004   0.002  0.00  0.00    -0.520 OA
ENDBRANCH  11  15
ENDBRANCH  10  11
ENDBRANCH   1  10
TORSDOF 4
