REMARK  Name = ZINCrD000000Cd9N.0
REMARK                            x       y       z     vdW  Elec       q    Type
REMARK                         _______ _______ _______ _____ _____    ______ ____
ROOT
ATOM      1  O   LIG    1       -3.811   1.960  -0.045  0.00  0.00    -0.510 OA
ATOM      2  C   LIG    1       -3.779   3.172   0.051  0.00  0.00    +0.580 C 
ATOM      3  N   LIG    1       -4.927   3.870   0.166  0.00  0.00    -0.640 N 
ATOM      4  H   LIG    1       -4.901   4.837   0.243  0.00  0.00    +0.410 HD
ENDROOT
BRANCH   2   5
ATOM      5  C   LIG    1       -2.485   3.879   0.044  0.00  0.00    -0.120 A 
ATOM      6  C   LIG    1       -1.717   3.963   1.197  0.00  0.00    +0.080 A 
ATOM      7  C   LIG    1       -0.498   4.629   1.188  0.00  0.00    +0.010 A 
ATOM      8  C   LIG    1       -0.012   5.220   0.062  0.00  0.00    +0.060 A 
ATOM      9  C   LIG    1       -0.736   5.174  -1.141  0.00  0.00    -0.050 A 
ATOM     10  C   LIG    1       -0.248   5.780  -2.311  0.00  0.00    +0.060 A 
ATOM     11  C   LIG    1       -0.979   5.716  -3.459  0.00  0.00    +0.020 A 
ATOM     12  C   LIG    1       -2.205   5.057  -3.492  0.00  0.00    +0.070 A 
ATOM     13  C   LIG    1       -2.712   4.462  -2.374  0.00  0.00    -0.100 A 
ATOM     14 BR   LIG    1       -4.383   3.580  -2.439  0.00  0.00    -0.010 Br
ATOM     15  C   LIG    1       -1.984   4.505  -1.178  0.00  0.00    -0.010 A 
ENDBRANCH   2   5
BRANCH   3  16
ATOM     16  C   LIG    1       -6.162   3.196   0.173  0.00  0.00    +0.010 A 
ATOM     17  C   LIG    1       -7.386   3.772   0.286  0.00  0.00    +0.200 A 
ATOM     18  N   LIG    1       -8.312   2.779   0.246  0.00  0.00    -0.370 N 
ATOM     19  N   LIG    1       -7.631   1.562   0.114  0.00  0.00    -0.280 NA
ATOM     20  C   LIG    1       -6.347   1.810   0.070  0.00  0.00    +0.250 A 
BRANCH  18  21
ATOM     21  C   LIG    1       -9.764   2.949   0.333  0.00  0.00    +0.350 C 
BRANCH  21  22
ATOM     22  C   LIG    1      -10.429   2.284  -0.874  0.00  0.00    +0.170 C 
BRANCH  22  23
ATOM     23  N   LIG    1      -11.885   2.455  -0.786  0.00  0.00    -0.540 NA
ATOM     24  C   LIG    1      -12.435   1.715   0.359  0.00  0.00    +0.150 C 
ATOM     25  C   LIG    1      -13.942   1.969   0.447  0.00  0.00    +0.220 C 
ATOM     26  O   LIG    1      -14.557   1.591  -0.788  0.00  0.00    -0.380 OA
ATOM     27  C   LIG    1      -14.046   2.293  -1.924  0.00  0.00    +0.220 C 
ATOM     28  C   LIG    1      -12.540   2.043  -2.036  0.00  0.00    +0.160 C 
ENDBRANCH  22  23
ENDBRANCH  21  22
ENDBRANCH  18  21
ENDBRANCH   3  16
TORSDOF 5
