REMARK  Name = ZINCrH000004rDJC.2
REMARK                            x       y       z     vdW  Elec       q    Type
REMARK                         _______ _______ _______ _____ _____    ______ ____
ROOT
ATOM      1  N   LIG    1       -4.907   1.194   0.032  0.00  0.00    -0.670 N 
ATOM      2  H   LIG    1       -5.751   1.666   0.104  0.00  0.00    +0.420 HD
ATOM      3  C   LIG    1       -4.894  -0.150  -0.078  0.00  0.00    +0.510 C 
ATOM      4  O   LIG    1       -3.839  -0.747  -0.087  0.00  0.00    -0.490 OA
ENDROOT
BRANCH   1  11
ATOM      5  C   LIG    1       -4.856   3.761  -1.195  0.00  0.00    +0.120 C 
ATOM      6  C   LIG    1       -3.634   3.163  -0.547  0.00  0.00    -0.060 A 
ATOM      7  C   LIG    1       -2.444   3.864  -0.536  0.00  0.00    +0.050 A 
ATOM      8  C   LIG    1       -1.324   3.318   0.063  0.00  0.00    +0.090 A 
ATOM      9  C   LIG    1       -1.388   2.065   0.645  0.00  0.00    -0.030 A 
ATOM     10  C   LIG    1       -2.575   1.359   0.638  0.00  0.00    +0.110 A 
ATOM     11  C   LIG    1       -3.703   1.907   0.041  0.00  0.00    +0.150 A 
BRANCH   9  12
ATOM     12  N   LIG    1       -0.185   1.483   1.281  0.00  0.00    +0.030 N 
ATOM     13  O   LIG    1        0.863   2.103   1.283  0.00  0.00    -0.160 OA
ATOM     14  O   LIG    1       -0.243   0.382   1.798  0.00  0.00    -0.150 OA
ENDBRANCH   9  12
ENDBRANCH   1  11
BRANCH   3  15
ATOM     15  C   LIG    1       -6.191  -0.909  -0.190  0.00  0.00    +0.220 C 
BRANCH  15  16
ATOM     16  N   LIG    1       -5.909  -2.347  -0.298  0.00  0.00    -0.500 NA
ATOM     17  C   LIG    1       -5.277  -2.667  -1.595  0.00  0.00    +0.170 C 
ATOM     18  C   LIG    1       -5.805  -4.078  -1.955  0.00  0.00    +0.030 C 
ATOM     19  C   LIG    1       -7.266  -4.006  -1.441  0.00  0.00    -0.020 C 
ATOM     20  C   LIG    1       -7.146  -3.139  -0.170  0.00  0.00    +0.160 C 
ATOM     21  C   LIG    1       -8.353  -2.205  -0.057  0.00  0.00    +0.030 C 
BRANCH  19  22
ATOM     22  C   LIG    1       -7.792  -5.401  -1.096  0.00  0.00    +0.080 C 
BRANCH  22  23
ATOM     23  C   LIG    1       -8.015  -6.182  -2.365  0.00  0.00    -0.080 A 
ATOM     24  C   LIG    1       -9.243  -6.135  -2.999  0.00  0.00    +0.000 A 
ATOM     25  C   LIG    1       -9.446  -6.847  -4.166  0.00  0.00    +0.000 A 
ATOM     26  C   LIG    1       -8.425  -7.614  -4.694  0.00  0.00    +0.000 A 
ATOM     27  C   LIG    1       -7.199  -7.666  -4.058  0.00  0.00    +0.000 A 
ATOM     28  C   LIG    1       -6.994  -6.950  -2.893  0.00  0.00    +0.010 A 
ENDBRANCH  22  23
ENDBRANCH  19  22
ENDBRANCH  15  16
ENDBRANCH   3  15
TORSDOF 6
