REMARK  Name = ZINCrH000004vHGh.0
REMARK                            x       y       z     vdW  Elec       q    Type
REMARK                         _______ _______ _______ _____ _____    ______ ____
ROOT
ATOM      1  C   LIG    1        3.631  -1.545  -3.670  0.00  0.00    +0.560 C 
ATOM      2  N   LIG    1        3.023  -1.515  -2.468  0.00  0.00    -0.700 N 
ATOM      3  H   LIG    1        2.083  -1.284  -2.405  0.00  0.00    +0.400 HD
ATOM      4  O   LIG    1        4.808  -1.835  -3.749  0.00  0.00    -0.530 OA
ENDROOT
BRANCH   2   5
ATOM      5  C   LIG    1        3.782  -1.831  -1.255  0.00  0.00    +0.270 C 
ATOM      6  C   LIG    1        2.999  -2.356  -0.049  0.00  0.00    -0.020 C 
ATOM      7  C   LIG    1        1.476  -2.173  -0.026  0.00  0.00    +0.130 C 
ATOM      8  C   LIG    1        1.209  -0.688  -0.013  0.00  0.00    -0.090 A 
ATOM      9  C   LIG    1        0.002  -0.004   0.002  0.00  0.00    +0.030 A 
ATOM     10  C   LIG    1       -0.017   1.378   0.010  0.00  0.00    -0.030 A 
ATOM     11  C   LIG    1        1.174   2.082   0.002  0.00  0.00    +0.030 A 
ATOM     12  C   LIG    1        2.375   1.403  -0.014  0.00  0.00    +0.040 A 
ATOM     13 CL   LIG    1       -1.531   2.227   0.021  0.00  0.00    -0.060 Cl
ATOM     14  C   LIG    1        2.395   0.015  -0.021  0.00  0.00    -0.060 A 
ATOM     15  C   LIG    1        3.570  -0.932  -0.035  0.00  0.00    -0.010 C 
ENDBRANCH   2   5
BRANCH   1  19
ATOM     16  C   LIG    1        1.430  -0.629  -7.186  0.00  0.00    -0.080 A 
ATOM     17  C   LIG    1        2.770  -0.958  -7.279  0.00  0.00    +0.030 A 
ATOM     18  C   LIG    1        3.491  -1.256  -6.141  0.00  0.00    +0.090 A 
ATOM     19  C   LIG    1        2.865  -1.226  -4.894  0.00  0.00    -0.130 A 
ATOM     20  C   LIG    1        1.510  -0.899  -4.808  0.00  0.00    +0.040 A 
ATOM     21  C   LIG    1        0.803  -0.597  -5.953  0.00  0.00    +0.020 A 
BRANCH  16  27
ATOM     22  O   LIG    1       -2.129   1.905  -8.359  0.00  0.00    -0.550 OA
ATOM     23  C   LIG    1       -1.495   0.902  -8.613  0.00  0.00    +0.520 C 
ATOM     24  C   LIG    1       -2.162  -0.178  -9.415  0.00  0.00    +0.060 C 
ATOM     25  C   LIG    1       -1.108  -1.125  -9.991  0.00  0.00    +0.030 C 
ATOM     26  C   LIG    1       -0.157  -1.531  -8.860  0.00  0.00    +0.040 C 
ATOM     27  C   LIG    1        0.649  -0.303  -8.433  0.00  0.00    +0.270 C 
ATOM     28  N   LIG    1       -0.242   0.819  -8.165  0.00  0.00    -0.720 N 
ATOM     29  H   LIG    1        0.098   1.550  -7.626  0.00  0.00    +0.400 HD
ENDBRANCH  16  27
ENDBRANCH   1  19
TORSDOF 3
