REMARK  Name = ZINCpk000000oHvl.0
REMARK                            x       y       z     vdW  Elec       q    Type
REMARK                         _______ _______ _______ _____ _____    ______ ____
ROOT
ATOM      1  N   LIG    1        5.833  -8.113   0.036  0.00  0.00    -0.600 N 
ATOM      2  C   LIG    1        6.332  -7.802   1.380  0.00  0.00    +0.280 C 
ATOM      3  C   LIG    1        6.421  -6.283   1.542  0.00  0.00    +0.020 C 
ATOM      4  C   LIG    1        5.098  -5.731   2.059  0.00  0.00    +0.310 C 
ATOM      5  N   LIG    1        4.011  -5.970   1.113  0.00  0.00    -0.610 N 
ATOM      6  C   LIG    1        3.607  -7.340   0.778  0.00  0.00    +0.310 C 
ATOM      7  C   LIG    1        3.372  -4.926   0.548  0.00  0.00    +0.720 C 
ATOM      8  N   LIG    1        2.306  -5.140  -0.249  0.00  0.00    -0.660 N 
ATOM      9  H   LIG    1        2.045  -6.046  -0.477  0.00  0.00    +0.410 HD
ATOM     10  O   LIG    1        3.758  -3.792   0.757  0.00  0.00    -0.550 OA
ATOM     11  C   LIG    1        4.552  -7.872  -0.285  0.00  0.00    +0.500 C 
ATOM     12  O   LIG    1        4.153  -8.080  -1.411  0.00  0.00    -0.530 OA
ENDROOT
BRANCH   8  13
ATOM     13  C   LIG    1        1.579  -4.058  -0.745  0.00  0.00    +0.320 A 
ATOM     14  C   LIG    1        1.835  -2.742  -0.511  0.00  0.00    -0.100 A 
ATOM     15  C   LIG    1        0.870  -1.991  -1.189  0.00  0.00    +0.100 A 
ATOM     16  N   LIG    1        0.070  -2.817  -1.813  0.00  0.00    -0.280 NA
ATOM     17  N   LIG    1        0.494  -4.126  -1.550  0.00  0.00    -0.390 N 
ATOM     18  C   LIG    1       -0.127  -5.352  -2.058  0.00  0.00    +0.360 C 
BRANCH  15  19
ATOM     19  C   LIG    1        0.772  -0.487  -1.204  0.00  0.00    +0.050 C 
ATOM     20  C   LIG    1       -0.015  -0.014   0.022  0.00  0.00    +0.030 C 
ATOM     21  C   LIG    1       -0.042   1.518   0.037  0.00  0.00    -0.010 C 
ATOM     22  C   LIG    1        1.396   2.045   0.030  0.00  0.00    +0.200 C 
ATOM     23  O   LIG    1        2.080   1.542  -1.119  0.00  0.00    -0.380 OA
ATOM     24  C   LIG    1        2.178   0.117  -1.163  0.00  0.00    +0.230 C 
ENDBRANCH  15  19
ENDBRANCH   8  13
BRANCH   1  26
ATOM     25  C   LIG    1        6.695 -10.214  -0.871  0.00  0.00    +0.020 C 
ATOM     26  C   LIG    1        6.738  -8.688  -0.963  0.00  0.00    +0.270 C 
ENDBRANCH   1  26
TORSDOF 3
