REMARK  Name = ZINCrg00000fRRtw.0
REMARK                            x       y       z     vdW  Elec       q    Type
REMARK                         _______ _______ _______ _____ _____    ______ ____
ROOT
ATOM      1  N   LIG    1        7.723  -2.764   4.684  0.00  0.00    -0.610 N 
ATOM      2  C   LIG    1        8.039  -1.504   4.341  0.00  0.00    +0.520 C 
ATOM      3  C   LIG    1        7.852  -1.307   2.853  0.00  0.00    +0.060 C 
ATOM      4  C   LIG    1        6.983  -2.510   2.418  0.00  0.00    +0.010 C 
ATOM      5  O   LIG    1        8.419  -0.648   5.112  0.00  0.00    -0.510 OA
ATOM      6  C   LIG    1        7.310  -3.548   3.514  0.00  0.00    +0.330 C 
ENDROOT
BRANCH   6   7
ATOM      7  C   LIG    1        8.434  -4.445   3.064  0.00  0.00    -0.260 A 
ATOM      8  C   LIG    1        8.321  -5.506   2.231  0.00  0.00    +0.100 A 
ATOM      9  N   LIG    1        9.550  -6.042   2.079  0.00  0.00    -0.370 N 
ATOM     10  N   LIG    1       10.448  -5.286   2.843  0.00  0.00    -0.300 NA
ATOM     11  C   LIG    1        9.886  -7.208   1.258  0.00  0.00    +0.360 C 
ATOM     12  C   LIG    1        7.050  -6.000   1.589  0.00  0.00    +0.140 C 
ATOM     13  C   LIG    1        9.779  -4.326   3.429  0.00  0.00    +0.250 A 
ENDBRANCH   6   7
BRANCH   1  14
ATOM     14  C   LIG    1        7.784  -3.289   6.051  0.00  0.00    +0.310 C 
BRANCH  14  15
ATOM     15  C   LIG    1        9.174  -3.873   6.312  0.00  0.00    +0.150 C 
BRANCH  15  17
ATOM     16  C   LIG    1       11.486  -3.268   6.497  0.00  0.00    +0.200 C 
ATOM     17  O   LIG    1       10.146  -2.827   6.265  0.00  0.00    -0.370 OA
ENDBRANCH  15  17
ENDBRANCH  14  15
ENDBRANCH   1  14
BRANCH   4  18
ATOM     18  C   LIG    1        5.497  -2.146   2.434  0.00  0.00    +0.280 C 
BRANCH  18  19
ATOM     19  N   LIG    1        5.200  -1.255   1.310  0.00  0.00    -0.730 N 
ATOM     20  H   LIG    1        5.907  -0.991   0.701  0.00  0.00    +0.400 HD
ATOM     21  C   LIG    1        3.944  -0.801   1.124  0.00  0.00    +0.520 C 
ATOM     22  O   LIG    1        3.061  -1.131   1.886  0.00  0.00    -0.520 OA
BRANCH  21  23
ATOM     23  C   LIG    1        3.639   0.116  -0.033  0.00  0.00    +0.150 C 
BRANCH  23  24
ATOM     24  C   LIG    1        2.175   0.474  -0.016  0.00  0.00    +0.080 A 
ATOM     25  C   LIG    1        1.740   1.738  -0.005  0.00  0.00    -0.070 A 
ATOM     26  S   LIG    1       -0.021   1.706   0.011  0.00  0.00    +0.120 S 
ATOM     27  C   LIG    1        0.002  -0.004   0.002  0.00  0.00    +0.230 A 
ATOM     28  N   LIG    1        1.219  -0.432  -0.012  0.00  0.00    -0.450 NA
ENDBRANCH  23  24
ENDBRANCH  21  23
ENDBRANCH  18  19
ENDBRANCH   4  18
TORSDOF 8
