REMARK  Name = ZINCrH00000No51Q.0
REMARK                            x       y       z     vdW  Elec       q    Type
REMARK                         _______ _______ _______ _____ _____    ______ ____
ROOT
ATOM      1  N   LIG    1        4.315  -1.652  -0.020  0.00  0.00    -0.630 N 
ATOM      2  H   LIG    1        3.723  -2.406   0.125  0.00  0.00    +0.420 HD
ATOM      3  C   LIG    1        5.631  -1.857  -0.226  0.00  0.00    +0.550 C 
ATOM      4  O   LIG    1        6.387  -0.908  -0.325  0.00  0.00    -0.510 OA
ENDROOT
BRANCH   1   6
ATOM      5  C   LIG    1        2.563   0.038  -0.425  0.00  0.00    -0.090 A 
ATOM      6  C   LIG    1        3.806  -0.360  -0.016  0.00  0.00    +0.170 A 
ATOM      7  C   LIG    1        4.492   0.860   0.429  0.00  0.00    -0.140 A 
ATOM      8  C   LIG    1        5.759   1.126   0.948  0.00  0.00    +0.130 A 
ATOM      9  C   LIG    1        6.103   2.408   1.274  0.00  0.00    -0.020 A 
ATOM     10  C   LIG    1        5.199   3.445   1.091  0.00  0.00    +0.070 A 
ATOM     11  C   LIG    1        3.943   3.202   0.579  0.00  0.00    +0.010 A 
ATOM     12  C   LIG    1        3.572   1.906   0.240  0.00  0.00    +0.090 A 
ATOM     13  O   LIG    1        2.442   1.375  -0.267  0.00  0.00    -0.180 OA
BRANCH   5  17
ATOM     14  N   LIG    1        0.296  -0.360  -1.217  0.00  0.00    -0.840 N 
ATOM     15  H   LIG    1       -0.392  -0.947  -1.567  0.00  0.00    +0.410 HD
ATOM     16  H   LIG    1        0.101   0.577  -1.058  0.00  0.00    +0.410 HD
ATOM     17  C   LIG    1        1.525  -0.846  -0.952  0.00  0.00    +0.610 C 
ATOM     18  O   LIG    1        1.771  -2.022  -1.152  0.00  0.00    -0.530 OA
ENDBRANCH   5  17
ENDBRANCH   1   6
BRANCH   3  19
ATOM     19  C   LIG    1        6.151  -3.219  -0.331  0.00  0.00    -0.090 C 
ATOM     20  C   LIG    1        7.471  -3.425  -0.538  0.00  0.00    +0.160 C 
BRANCH  20  21
ATOM     21  C   LIG    1        7.992  -4.792  -0.643  0.00  0.00    -0.060 A 
ATOM     22  C   LIG    1        7.140  -5.887  -0.533  0.00  0.00    +0.070 A 
ATOM     23  C   LIG    1        7.635  -7.180  -0.633  0.00  0.00    +0.010 A 
ATOM     24  C   LIG    1        8.958  -7.427  -0.842  0.00  0.00    +0.050 A 
ATOM     25  C   LIG    1        9.874  -6.370  -0.963  0.00  0.00    -0.110 A 
ATOM     26  C   LIG    1       11.244  -6.607  -1.178  0.00  0.00    +0.090 A 
ATOM     27  C   LIG    1       12.076  -5.528  -1.287  0.00  0.00    -0.040 A 
ATOM     28  C   LIG    1       11.560  -4.239  -1.183  0.00  0.00    +0.300 A 
ATOM     29  N   LIG    1       10.280  -4.024  -0.982  0.00  0.00    -0.470 NA
ATOM     30  C   LIG    1        9.418  -5.032  -0.873  0.00  0.00    +0.150 A 
ENDBRANCH  20  21
ENDBRANCH   3  19
TORSDOF 4
