REMARK  Name = ZINCrH000004v8Fq.0
REMARK                            x       y       z     vdW  Elec       q    Type
REMARK                         _______ _______ _______ _____ _____    ______ ____
ROOT
ATOM      1  O   LIG    1       -0.756   0.900   0.731  0.00  0.00    -0.500 OA
ATOM      2  C   LIG    1       -0.267   1.938   0.338  0.00  0.00    +0.560 C 
ATOM      3  N   LIG    1       -1.035   2.847  -0.295  0.00  0.00    -0.670 N 
ATOM      4  H   LIG    1       -0.632   3.647  -0.666  0.00  0.00    +0.420 HD
ENDROOT
BRANCH   3   5
ATOM      5  C   LIG    1       -2.412   2.635  -0.418  0.00  0.00    +0.200 A 
ATOM      6  C   LIG    1       -2.905   1.350  -0.604  0.00  0.00    +0.010 A 
ATOM      7  C   LIG    1       -4.266   1.143  -0.719  0.00  0.00    +0.140 A 
ATOM      8  C   LIG    1       -5.136   2.216  -0.661  0.00  0.00    -0.690 A 
ATOM      9  C   LIG    1       -4.649   3.498  -0.483  0.00  0.00    +0.150 A 
ATOM     10  C   LIG    1       -3.289   3.710  -0.361  0.00  0.00    -0.030 A 
BRANCH   8  11
ATOM     11  S   LIG    1       -6.871   1.949  -0.816  0.00  0.00    +2.710 S 
ATOM     12  O   LIG    1       -7.505   3.056  -0.189  0.00  0.00    -0.950 OA
ATOM     13  O   LIG    1       -7.106   0.601  -0.434  0.00  0.00    -0.950 OA
BRANCH  11  14
ATOM     14  N   LIG    1       -7.241   2.050  -2.427  0.00  0.00    -1.010 NA
ATOM     15  C   LIG    1       -7.629   3.274  -3.142  0.00  0.00    +0.270 C 
ATOM     16  C   LIG    1       -7.899   2.882  -4.610  0.00  0.00    +0.030 C 
ATOM     17  C   LIG    1       -8.206   1.364  -4.511  0.00  0.00    +0.030 C 
ATOM     18  C   LIG    1       -7.241   0.925  -3.381  0.00  0.00    +0.270 C 
ENDBRANCH  11  14
ENDBRANCH   8  11
ENDBRANCH   3   5
BRANCH   2  19
ATOM     19  C   LIG    1        1.200   2.208   0.552  0.00  0.00    -0.130 C 
ATOM     20  C   LIG    1        1.778   1.915   1.938  0.00  0.00    +0.090 C 
ATOM     21  C   LIG    1        1.577   3.362   1.484  0.00  0.00    +0.060 C 
BRANCH  19  22
ATOM     22  C   LIG    1        2.088   1.958  -0.640  0.00  0.00    -0.050 A 
ATOM     23  C   LIG    1        2.893   2.971  -1.126  0.00  0.00    +0.040 A 
ATOM     24  C   LIG    1        3.712   2.741  -2.215  0.00  0.00    +0.030 A 
ATOM     25  C   LIG    1        3.717   1.500  -2.826  0.00  0.00    -0.030 A 
ATOM     26  C   LIG    1        2.906   0.488  -2.343  0.00  0.00    +0.030 A 
ATOM     27 CL   LIG    1        4.740   1.211  -4.199  0.00  0.00    -0.060 Cl
ATOM     28  C   LIG    1        2.092   0.718  -1.250  0.00  0.00    +0.040 A 
ENDBRANCH  19  22
ENDBRANCH   2  19
TORSDOF 5
