REMARK  Name = ZINCnE000001EdTe.0
REMARK                            x       y       z     vdW  Elec       q    Type
REMARK                         _______ _______ _______ _____ _____    ______ ____
ROOT
ATOM      1  N   LIG    1       -2.291   3.911   0.045  0.00  0.00    -0.400 N 
ATOM      2  N   LIG    1       -1.791   5.217   0.048  0.00  0.00    -0.250 NA
ATOM      3  C   LIG    1       -0.489   5.198   0.035  0.00  0.00    +0.250 A 
ATOM      4  C   LIG    1       -0.066   3.802   0.023  0.00  0.00    -0.170 A 
ATOM      5  C   LIG    1        1.177   3.159   0.008  0.00  0.00    +0.040 A 
ATOM      6  C   LIG    1        1.194   1.774   0.000  0.00  0.00    +0.200 A 
ATOM      7  C   LIG    1       -0.013   1.076   0.008  0.00  0.00    +0.190 A 
ATOM      8  N   LIG    1       -1.168   1.703   0.017  0.00  0.00    -0.470 NA
ATOM      9  C   LIG    1       -1.243   3.027   0.030  0.00  0.00    +0.230 A 
ENDROOT
BRANCH   1  11
ATOM     10  C   LIG    1       -4.371   4.109   1.316  0.00  0.00    +0.030 C 
ATOM     11  C   LIG    1       -3.709   3.545   0.057  0.00  0.00    +0.270 C 
ATOM     12  C   LIG    1       -4.396   4.123  -1.182  0.00  0.00    +0.030 C 
ENDBRANCH   1  11
BRANCH   6  13
ATOM     13  N   LIG    1        2.411   1.081  -0.016  0.00  0.00    -1.080 NA
BRANCH  13  14
ATOM     14  S   LIG    1        2.421  -0.575  -0.025  0.00  0.00    +2.600 S 
ATOM     15  O   LIG    1        1.867  -0.972  -1.272  0.00  0.00    -1.020 OA
ATOM     16  O   LIG    1        1.892  -0.986   1.228  0.00  0.00    -1.020 OA
BRANCH  14  17
ATOM     17  C   LIG    1        4.108  -1.085  -0.044  0.00  0.00    -0.600 A 
ATOM     18  C   LIG    1        4.755  -1.284  -1.249  0.00  0.00    +0.120 A 
ATOM     19  C   LIG    1        6.080  -1.680  -1.265  0.00  0.00    +0.010 A 
ATOM     20  C   LIG    1        6.754  -1.887  -0.076  0.00  0.00    +0.060 A 
ATOM     21  C   LIG    1        6.104  -1.694   1.130  0.00  0.00    -0.060 A 
ATOM     22 CL   LIG    1        6.950  -1.953   2.623  0.00  0.00    -0.070 Cl
ATOM     23  C   LIG    1        4.781  -1.292   1.145  0.00  0.00    +0.140 A 
ENDBRANCH  14  17
ENDBRANCH  13  14
ENDBRANCH   6  13
TORSDOF 4
