REMARK  Name = ZINCqH0000008p6R.0
REMARK                            x       y       z     vdW  Elec       q    Type
REMARK                         _______ _______ _______ _____ _____    ______ ____
ROOT
ATOM      1  N   LIG    1       -5.739   3.327   1.222  0.00  0.00    -0.720 N 
ATOM      2  H   LIG    1       -5.580   2.465   1.638  0.00  0.00    +0.400 HD
ATOM      3  C   LIG    1       -6.672   4.158   1.728  0.00  0.00    +0.490 C 
ATOM      4  O   LIG    1       -6.871   5.235   1.208  0.00  0.00    -0.520 OA
ENDROOT
BRANCH   1   6
ATOM      5  C   LIG    1       -5.753   3.377  -1.224  0.00  0.00    +0.040 C 
ATOM      6  C   LIG    1       -4.967   3.724   0.042  0.00  0.00    +0.290 C 
BRANCH   6   7
ATOM      7  C   LIG    1       -3.650   2.991   0.033  0.00  0.00    -0.110 A 
ATOM      8  C   LIG    1       -3.599   1.661   0.407  0.00  0.00    +0.050 A 
ATOM      9  C   LIG    1       -2.394   0.985   0.400  0.00  0.00    -0.010 A 
ATOM     10  C   LIG    1       -1.234   1.644   0.017  0.00  0.00    +0.160 A 
ATOM     11  N   LIG    1       -0.011   0.966   0.007  0.00  0.00    -0.660 N 
ATOM     12  H   LIG    1        0.002  -0.004   0.002  0.00  0.00    +0.410 HD
ATOM     13  C   LIG    1        1.148   1.650   0.000  0.00  0.00    +0.520 C 
ATOM     14  C   LIG    1        1.154   3.155   0.026  0.00  0.00    +0.080 C 
ATOM     15  C   LIG    1       -0.033   3.694  -0.774  0.00  0.00    +0.100 C 
ATOM     16  O   LIG    1        2.200   1.047  -0.028  0.00  0.00    -0.520 OA
ATOM     17  C   LIG    1       -1.290   2.980  -0.353  0.00  0.00    -0.120 A 
ATOM     18  C   LIG    1       -2.497   3.650  -0.338  0.00  0.00    +0.060 A 
ENDBRANCH   6   7
ENDBRANCH   1   6
BRANCH   3  19
ATOM     19  C   LIG    1       -7.467   3.748   2.941  0.00  0.00    +0.280 C 
BRANCH  19  20
ATOM     20  C   LIG    1       -8.325   2.557   2.601  0.00  0.00    -0.100 A 
ATOM     21  C   LIG    1       -9.519   2.735   1.928  0.00  0.00    +0.050 A 
ATOM     22  C   LIG    1      -10.304   1.641   1.611  0.00  0.00    -0.020 A 
ATOM     23  C   LIG    1       -9.899   0.370   1.977  0.00  0.00    +0.050 A 
ATOM     24  C   LIG    1       -8.707   0.193   2.655  0.00  0.00    -0.020 A 
ATOM     25 CL   LIG    1       -8.198  -1.402   3.114  0.00  0.00    -0.050 Cl
ATOM     26 CL   LIG    1      -11.800   1.864   0.759  0.00  0.00    -0.050 Cl
ATOM     27  C   LIG    1       -7.920   1.287   2.967  0.00  0.00    +0.050 A 
ENDBRANCH  19  20
BRANCH  19  28
ATOM     28  O   LIG    1       -8.300   4.834   3.353  0.00  0.00    -0.520 OA
ATOM     29  H   LIG    1       -8.933   5.120   2.680  0.00  0.00    +0.390 HD
ENDBRANCH  19  28
ENDBRANCH   3  19
TORSDOF 5
