REMARK  Name = ZINCrD000000BRsJ.0
REMARK                            x       y       z     vdW  Elec       q    Type
REMARK                         _______ _______ _______ _____ _____    ______ ____
ROOT
ATOM      1  C   LIG    1       -4.867   3.624   0.070  0.00  0.00    -0.150 A 
ATOM      2  C   LIG    1       -6.006   2.814   0.081  0.00  0.00    +0.050 A 
ATOM      3  C   LIG    1       -5.874   1.444   0.141  0.00  0.00    +0.010 A 
ATOM      4  C   LIG    1       -4.617   0.863   0.186  0.00  0.00    +0.050 A 
ATOM      5  C   LIG    1       -3.483   1.648   0.172  0.00  0.00    +0.010 A 
ATOM      6  C   LIG    1       -3.595   3.032   0.112  0.00  0.00    +0.200 A 
ENDROOT
BRANCH   1   8
ATOM      7  O   LIG    1       -4.012   5.787  -0.116  0.00  0.00    -0.510 OA
ATOM      8  C   LIG    1       -5.001   5.091   0.012  0.00  0.00    +0.560 C 
ATOM      9  N   LIG    1       -6.219   5.661   0.100  0.00  0.00    -0.720 N 
ATOM     10  H   LIG    1       -7.008   5.106   0.202  0.00  0.00    +0.400 HD
BRANCH   9  11
ATOM     11  C   LIG    1       -6.352   7.119   0.041  0.00  0.00    +0.270 C 
ATOM     12  C   LIG    1       -7.756   7.501  -0.458  0.00  0.00    +0.070 C 
ATOM     13  C   LIG    1       -7.986   9.001  -0.189  0.00  0.00    -0.300 C 
ATOM     14  S   LIG    1       -6.945   9.388   1.265  0.00  0.00    +2.390 S 
ATOM     15  O   LIG    1       -7.780   9.669   2.380  0.00  0.00    -0.930 OA
ATOM     16  O   LIG    1       -5.932  10.310   0.886  0.00  0.00    -0.930 OA
ATOM     17  C   LIG    1       -6.207   7.722   1.462  0.00  0.00    -0.330 C 
ENDBRANCH   9  11
ENDBRANCH   1   8
BRANCH   6  18
ATOM     18  N   LIG    1       -2.454   3.825   0.097  0.00  0.00    -0.690 N 
ATOM     19  H   LIG    1       -1.937   3.916  -0.718  0.00  0.00    +0.410 HD
BRANCH  18  20
ATOM     20  C   LIG    1       -2.053   4.492   1.258  0.00  0.00    +0.240 A 
ATOM     21  C   LIG    1       -2.837   4.430   2.403  0.00  0.00    -0.040 A 
ATOM     22  C   LIG    1       -2.439   5.094   3.547  0.00  0.00    +0.060 A 
ATOM     23  C   LIG    1       -1.258   5.812   3.555  0.00  0.00    +0.010 A 
ATOM     24  C   LIG    1       -0.472   5.872   2.418  0.00  0.00    -0.130 A 
ATOM     25  C   LIG    1       -0.866   5.214   1.270  0.00  0.00    -0.010 A 
BRANCH  24  26
ATOM     26  C   LIG    1        0.815   6.656   2.433  0.00  0.00    +0.510 C 
ATOM     27  F   LIG    1        0.756   7.667   1.467  0.00  0.00    -0.180 F 
ATOM     28  F   LIG    1        1.885   5.801   2.149  0.00  0.00    -0.180 F 
ATOM     29  F   LIG    1        0.998   7.228   3.696  0.00  0.00    -0.180 F 
ENDBRANCH  24  26
ENDBRANCH  18  20
ENDBRANCH   6  18
TORSDOF 5
