REMARK  Name = ZINCtV000002tFQO.0
REMARK                            x       y       z     vdW  Elec       q    Type
REMARK                         _______ _______ _______ _____ _____    ______ ____
ROOT
ATOM      1  C   LIG    1       -3.543   3.045  -0.100  0.00  0.00    +0.110 A 
ATOM      2  C   LIG    1       -3.493   1.658  -0.119  0.00  0.00    -0.040 A 
ATOM      3  C   LIG    1       -4.660   0.925  -0.197  0.00  0.00    +0.060 A 
ATOM      4  C   LIG    1       -5.885   1.577  -0.269  0.00  0.00    +0.110 A 
ATOM      5  C   LIG    1       -5.934   2.964  -0.256  0.00  0.00    +0.040 A 
ATOM      6  C   LIG    1       -4.766   3.696  -0.172  0.00  0.00    +0.010 A 
ENDROOT
BRANCH   4   7
ATOM      7  N   LIG    1       -7.069   0.834  -0.355  0.00  0.00    -0.660 N 
ATOM      8  H   LIG    1       -7.811   1.164  -0.885  0.00  0.00    +0.410 HD
ATOM      9  C   LIG    1       -7.178  -0.339   0.299  0.00  0.00    +0.560 C 
ATOM     10  O   LIG    1       -6.223  -0.789   0.903  0.00  0.00    -0.500 OA
BRANCH   9  11
ATOM     11  C   LIG    1       -8.455  -1.077   0.283  0.00  0.00    -0.190 A 
ATOM     12  C   LIG    1       -9.555  -0.560  -0.406  0.00  0.00    +0.120 A 
ATOM     13  C   LIG    1      -10.744  -1.257  -0.423  0.00  0.00    -0.020 A 
ATOM     14  C   LIG    1      -10.855  -2.464   0.251  0.00  0.00    +0.160 A 
ATOM     15  C   LIG    1       -9.771  -2.981   0.941  0.00  0.00    -0.040 A 
ATOM     16  F   LIG    1      -12.025  -3.139   0.234  0.00  0.00    -0.120 F 
ATOM     17  C   LIG    1       -8.571  -2.296   0.961  0.00  0.00    +0.200 A 
ATOM     18  F   LIG    1       -7.514  -2.800   1.634  0.00  0.00    -0.100 F 
ENDBRANCH   9  11
ENDBRANCH   4   7
BRANCH   1  19
ATOM     19  O   LIG    1       -2.393   3.766  -0.018  0.00  0.00    -0.260 OA
BRANCH  19  23
ATOM     20  C   LIG    1        1.188   1.725  -0.180  0.00  0.00    -0.070 A 
ATOM     21  C   LIG    1        0.366   1.766  -1.291  0.00  0.00    +0.030 A 
ATOM     22  C   LIG    1       -0.831   2.452  -1.241  0.00  0.00    -0.010 A 
ATOM     23  C   LIG    1       -1.214   3.093  -0.071  0.00  0.00    +0.080 A 
ATOM     24  C   LIG    1       -0.387   3.051   1.043  0.00  0.00    +0.010 A 
ATOM     25  C   LIG    1        0.812   2.367   0.986  0.00  0.00    +0.040 A 
BRANCH  20  26
ATOM     26  C   LIG    1        2.497   0.980  -0.239  0.00  0.00    -0.030 C 
ATOM     27  C   LIG    1        3.380   1.587  -1.331  0.00  0.00    +0.040 C 
ATOM     28  C   LIG    1        2.232  -0.492  -0.558  0.00  0.00    +0.040 C 
BRANCH  26  30
ATOM     29  C   LIG    1        4.537   0.334   1.051  0.00  0.00    +0.010 C 
ATOM     30  C   LIG    1        3.208   1.090   1.111  0.00  0.00    +0.020 C 
ENDBRANCH  26  30
ENDBRANCH  20  26
ENDBRANCH  19  23
ENDBRANCH   1  19
TORSDOF 6
