REMARK  Name = ZINCqH0000035ctA.0
REMARK                            x       y       z     vdW  Elec       q    Type
REMARK                         _______ _______ _______ _____ _____    ______ ____
ROOT
ATOM      1  C   LIG    1       -0.759   3.398   0.027  0.00  0.00    +0.030 A 
ATOM      2  N   LIG    1       -1.080   2.119   0.018  0.00  0.00    -0.230 NA
ATOM      3  N   LIG    1       -0.017   1.397   0.010  0.00  0.00    -0.230 N 
ATOM      4  C   LIG    1        1.086   2.191   0.004  0.00  0.00    +0.180 A 
ATOM      5  C   LIG    1        0.654   3.473   0.014  0.00  0.00    -0.120 A 
ENDROOT
BRANCH   3   6
ATOM      6  C   LIG    1        0.002  -0.004   0.002  0.00  0.00    +0.150 A 
ATOM      7  C   LIG    1       -1.190  -0.716   0.010  0.00  0.00    +0.070 A 
ATOM      8  C   LIG    1       -1.169  -2.097   0.002  0.00  0.00    +0.090 A 
ATOM      9  C   LIG    1        0.038  -2.772  -0.014  0.00  0.00    -0.030 A 
ATOM     10  C   LIG    1        1.229  -2.065  -0.021  0.00  0.00    -0.010 A 
ATOM     11 CL   LIG    1        2.743  -2.915  -0.040  0.00  0.00    -0.030 Cl
ATOM     12 CL   LIG    1        0.060  -4.508  -0.024  0.00  0.00    -0.030 Cl
ATOM     13  C   LIG    1        1.213  -0.683  -0.019  0.00  0.00    +0.040 A 
ENDBRANCH   3   6
BRANCH   1  14
ATOM     14  C   LIG    1       -1.697   4.537   0.041  0.00  0.00    +0.550 C 
ATOM     15  O   LIG    1       -1.272   5.675   0.042  0.00  0.00    -0.480 OA
BRANCH  14  17
ATOM     16  C   LIG    1       -3.889   5.482   0.066  0.00  0.00    +0.280 C 
ATOM     17  O   LIG    1       -3.026   4.315   0.052  0.00  0.00    -0.350 OA
ENDBRANCH  14  17
ENDBRANCH   1  14
BRANCH   5  18
ATOM     18  C   LIG    1        1.501   4.720   0.012  0.00  0.00    +0.280 C 
BRANCH  18  19
ATOM     19  N   LIG    1        1.590   5.254   1.377  0.00  0.00    -0.520 NA
ATOM     20  C   LIG    1        2.325   4.334   2.255  0.00  0.00    +0.170 C 
ATOM     21  C   LIG    1        2.273   4.850   3.695  0.00  0.00    +0.050 C 
ATOM     22  C   LIG    1        2.895   6.248   3.754  0.00  0.00    +0.040 C 
ATOM     23  C   LIG    1        2.142   7.174   2.795  0.00  0.00    +0.130 C 
ATOM     24  C   LIG    1        2.198   6.591   1.381  0.00  0.00    +0.200 C 
BRANCH  23  25
ATOM     25  C   LIG    1        2.771   8.505   2.802  0.00  0.00    +0.210 C 
ATOM     26  N   LIG    1        3.255   9.532   2.808  0.00  0.00    -0.430 NA
ENDBRANCH  23  25
ENDBRANCH  18  19
ENDBRANCH   5  18
TORSDOF 6
