REMARK  Name = ZINCpe00000RcJhw.0
REMARK                            x       y       z     vdW  Elec       q    Type
REMARK                         _______ _______ _______ _____ _____    ______ ____
ROOT
ATOM      1  C   LIG    1        2.437   0.413   1.275  0.00  0.00    +0.360 C 
ATOM      2  C   LIG    1        0.976   0.468   1.732  0.00  0.00    -0.330 C 
ATOM      3  S   LIG    1       -0.084   0.761   0.286  0.00  0.00    +2.420 S 
ATOM      4  C   LIG    1        0.639   2.286  -0.386  0.00  0.00    -0.340 C 
ATOM      5  C   LIG    1        2.132   2.058  -0.641  0.00  0.00    +0.320 C 
ATOM      6  O   LIG    1        0.120  -0.289  -0.649  0.00  0.00    -0.930 OA
ATOM      7  O   LIG    1       -1.401   1.043   0.738  0.00  0.00    -0.930 OA
ATOM      8  N   LIG    1        2.788   1.669   0.609  0.00  0.00    -0.640 N 
ATOM      9  C   LIG    1        3.724   2.473   1.151  0.00  0.00    +0.700 C 
ATOM     10  N   LIG    1        3.966   3.684   0.611  0.00  0.00    -0.750 N 
ATOM     11  H   LIG    1        3.416   4.008  -0.120  0.00  0.00    +0.390 HD
ATOM     12  O   LIG    1        4.349   2.107   2.127  0.00  0.00    -0.540 OA
ENDROOT
BRANCH   1  16
ATOM     13  C   LIG    1        5.921  -1.417   4.379  0.00  0.00    +0.350 C 
ATOM     14  N   LIG    1        4.850  -0.589   3.819  0.00  0.00    -0.380 N 
ATOM     15  C   LIG    1        4.271  -0.750   2.610  0.00  0.00    +0.230 A 
ATOM     16  C   LIG    1        3.331   0.213   2.471  0.00  0.00    -0.210 A 
ATOM     17  C   LIG    1        3.339   0.993   3.632  0.00  0.00    +0.290 A 
ATOM     18  N   LIG    1        4.245   0.510   4.443  0.00  0.00    -0.310 NA
ENDBRANCH   1  16
BRANCH  10  19
ATOM     19  C   LIG    1        5.059   4.511   1.127  0.00  0.00    +0.280 C 
BRANCH  19  20
ATOM     20  C   LIG    1        5.118   5.825   0.346  0.00  0.00    +0.040 C 
BRANCH  20  21
ATOM     21  C   LIG    1        6.260   6.689   0.885  0.00  0.00    +0.150 C 
ATOM     22  C   LIG    1        6.398   7.947   0.024  0.00  0.00    -0.010 C 
ATOM     23  C   LIG    1        7.503   8.835   0.606  0.00  0.00    +0.010 C 
ATOM     24  C   LIG    1        7.166   9.162   2.064  0.00  0.00    -0.020 C 
ATOM     25  C   LIG    1        6.998   7.856   2.845  0.00  0.00    +0.210 C 
ATOM     26  O   LIG    1        5.978   7.064   2.234  0.00  0.00    -0.380 OA
ENDBRANCH  20  21
ENDBRANCH  19  20
ENDBRANCH  10  19
TORSDOF 4
