REMARK  Name = ZINCqH0000001GDo.0
REMARK                            x       y       z     vdW  Elec       q    Type
REMARK                         _______ _______ _______ _____ _____    ______ ____
ROOT
ATOM      1  N   LIG    1        6.883  -0.639  -3.695  0.00  0.00    -0.720 N 
ATOM      2  H   LIG    1        6.133  -0.336  -4.230  0.00  0.00    +0.400 HD
ATOM      3  C   LIG    1        7.058  -0.162  -2.447  0.00  0.00    +0.600 C 
ATOM      4  O   LIG    1        7.999  -0.542  -1.776  0.00  0.00    -0.510 OA
ENDROOT
BRANCH   3   5
ATOM      5  C   LIG    1        6.113   0.816  -1.897  0.00  0.00    -0.060 A 
ATOM      6  C   LIG    1        6.173   1.378  -0.654  0.00  0.00    +0.050 A 
ATOM      7  C   LIG    1        5.078   2.251  -0.553  0.00  0.00    -0.020 A 
ATOM      8  C   LIG    1        4.407   2.184  -1.724  0.00  0.00    +0.000 A 
ATOM      9  O   LIG    1        5.030   1.315  -2.529  0.00  0.00    -0.160 OA
BRANCH   8  10
ATOM     10  C   LIG    1        3.158   2.956  -2.065  0.00  0.00    +0.330 C 
BRANCH  10  11
ATOM     11  O   LIG    1        3.518   4.204  -2.662  0.00  0.00    -0.300 OA
BRANCH  11  12
ATOM     12  C   LIG    1        2.502   5.027  -3.032  0.00  0.00    +0.100 A 
ATOM     13  C   LIG    1        1.186   4.643  -2.824  0.00  0.00    -0.040 A 
ATOM     14  C   LIG    1        0.154   5.478  -3.206  0.00  0.00    +0.050 A 
ATOM     15  C   LIG    1        0.431   6.703  -3.785  0.00  0.00    +0.010 A 
ATOM     16  C   LIG    1        1.742   7.090  -3.994  0.00  0.00    +0.020 A 
ATOM     17  C   LIG    1        2.779   6.256  -3.619  0.00  0.00    +0.070 A 
ATOM     18  F   LIG    1        4.060   6.634  -3.822  0.00  0.00    -0.130 F 
ENDBRANCH  11  12
ENDBRANCH  10  11
ENDBRANCH   8  10
ENDBRANCH   3   5
BRANCH   1  19
ATOM     19  C   LIG    1        7.827  -1.616  -4.245  0.00  0.00    +0.280 C 
BRANCH  19  20
ATOM     20  C   LIG    1        7.403  -1.991  -5.666  0.00  0.00    -0.110 C 
ATOM     21  C   LIG    1        7.398  -0.738  -6.544  0.00  0.00    +0.040 C 
ATOM     22  C   LIG    1        5.999  -2.599  -5.636  0.00  0.00    +0.030 C 
BRANCH  20  23
ATOM     23  C   LIG    1        8.388  -3.011  -6.240  0.00  0.00    +0.220 C 
BRANCH  23  25
ATOM     24  C   LIG    1        9.116  -3.996  -8.418  0.00  0.00    +0.010 C 
ATOM     25  C   LIG    1        7.925  -3.439  -7.634  0.00  0.00    -0.050 C 
ATOM     26  C   LIG    1        6.849  -4.519  -7.505  0.00  0.00    +0.010 C 
ENDBRANCH  23  25
BRANCH  23  27
ATOM     27  O   LIG    1        8.442  -4.155  -5.384  0.00  0.00    -0.560 OA
ATOM     28  H   LIG    1        7.593  -4.606  -5.277  0.00  0.00    +0.370 HD
ENDBRANCH  23  27
ENDBRANCH  20  23
ENDBRANCH  19  20
ENDBRANCH   1  19
TORSDOF 9
