REMARK  Name = ZINCrH000004tYvi.0
REMARK                            x       y       z     vdW  Elec       q    Type
REMARK                         _______ _______ _______ _____ _____    ______ ____
ROOT
ATOM      1  O   LIG    1       -3.163   5.696  -4.335  0.00  0.00    -0.520 OA
ATOM      2  C   LIG    1       -3.393   4.970  -5.278  0.00  0.00    +0.520 C 
ATOM      3  N   LIG    1       -3.290   5.444  -6.536  0.00  0.00    -0.730 N 
ATOM      4  H   LIG    1       -3.474   4.862  -7.290  0.00  0.00    +0.400 HD
ENDROOT
BRANCH   3   5
ATOM      5  C   LIG    1       -2.899   6.837  -6.763  0.00  0.00    +0.370 C 
BRANCH   5   6
ATOM      6  C   LIG    1       -2.272   6.967  -8.127  0.00  0.00    -0.090 A 
ATOM      7  C   LIG    1       -2.798   6.269  -9.199  0.00  0.00    +0.010 A 
ATOM      8  C   LIG    1       -2.225   6.391 -10.451  0.00  0.00    +0.020 A 
ATOM      9  C   LIG    1       -1.122   7.204 -10.630  0.00  0.00    +0.010 A 
ATOM     10  C   LIG    1       -0.593   7.898  -9.558  0.00  0.00    +0.020 A 
ATOM     11  C   LIG    1       -1.168   7.779  -8.306  0.00  0.00    +0.030 A 
ENDBRANCH   5   6
BRANCH   5  12
ATOM     12  C   LIG    1       -4.118   7.720  -6.685  0.00  0.00    -0.180 A 
ATOM     13  C   LIG    1       -4.162   8.921  -6.105  0.00  0.00    +0.020 A 
ATOM     14  C   LIG    1       -5.394   9.550  -6.159  0.00  0.00    +0.010 A 
ATOM     15  C   LIG    1       -6.353   8.856  -6.774  0.00  0.00    -0.050 A 
ATOM     16  S   LIG    1       -5.702   7.322  -7.336  0.00  0.00    +0.110 S 
ENDBRANCH   5  12
ENDBRANCH   3   5
BRANCH   2  17
ATOM     17  C   LIG    1       -3.795   3.536  -5.044  0.00  0.00    +0.170 C 
BRANCH  17  18
ATOM     18  C   LIG    1       -3.836   3.261  -3.563  0.00  0.00    +0.120 A 
ATOM     19  C   LIG    1       -4.904   3.528  -2.809  0.00  0.00    -0.080 A 
ATOM     20  S   LIG    1       -4.534   3.058  -1.152  0.00  0.00    +0.140 S 
ATOM     21  C   LIG    1       -2.975   2.548  -1.634  0.00  0.00    +0.280 A 
ATOM     22  N   LIG    1       -2.816   2.742  -2.905  0.00  0.00    -0.480 NA
BRANCH  21  23
ATOM     23  N   LIG    1       -2.016   2.009  -0.784  0.00  0.00    -0.540 N 
ATOM     24  C   LIG    1       -2.209   1.800   0.655  0.00  0.00    +0.270 C 
ATOM     25  C   LIG    1       -0.787   1.610   1.239  0.00  0.00    +0.060 C 
ATOM     26  C   LIG    1       -0.013   1.086   0.008  0.00  0.00    +0.070 C 
ATOM     27  C   LIG    1       -0.793   1.611  -1.176  0.00  0.00    +0.520 C 
ATOM     28  O   LIG    1       -0.377   1.665  -2.314  0.00  0.00    -0.470 OA
ENDBRANCH  21  23
ENDBRANCH  17  18
ENDBRANCH   2  17
TORSDOF 6
