REMARK  Name = ZINCpe000000YT8o.0
REMARK                            x       y       z     vdW  Elec       q    Type
REMARK                         _______ _______ _______ _____ _____    ______ ____
ROOT
ATOM      1  N   LIG    1       -0.311   1.285  -4.835  0.00  0.00    -0.560 N 
ATOM      2  C   LIG    1        0.664   1.958  -5.459  0.00  0.00    +0.710 C 
ATOM      3  N   LIG    1        1.128   1.304  -6.541  0.00  0.00    -0.710 N 
ATOM      4  H   LIG    1        1.832   1.599  -7.140  0.00  0.00    +0.440 HD
ATOM      5  C   LIG    1        0.356   0.059  -6.637  0.00  0.00    +0.180 C 
ATOM      6  C   LIG    1       -0.428   0.017  -7.945  0.00  0.00    +0.050 C 
ATOM      7  C   LIG    1       -0.998  -1.397  -8.122  0.00  0.00    +0.260 C 
ATOM      8  O   LIG    1        0.092  -2.312  -8.245  0.00  0.00    -0.310 OA
ATOM      9  C   LIG    1        1.084  -2.251  -7.320  0.00  0.00    +0.160 A 
ATOM     10  C   LIG    1        1.938  -3.340  -7.184  0.00  0.00    -0.010 A 
ATOM     11  C   LIG    1        2.962  -3.308  -6.259  0.00  0.00    +0.060 A 
ATOM     12  C   LIG    1        3.140  -2.191  -5.464  0.00  0.00    -0.020 A 
ATOM     13  C   LIG    1        2.293  -1.108  -5.595  0.00  0.00    +0.070 A 
ATOM     14  C   LIG    1        1.263  -1.133  -6.520  0.00  0.00    -0.180 A 
ATOM     15  O   LIG    1        1.085   3.036  -5.088  0.00  0.00    -0.530 OA
ATOM     16  C   LIG    1       -0.588   0.121  -5.458  0.00  0.00    +0.540 C 
ATOM     17  O   LIG    1       -1.419  -0.702  -5.140  0.00  0.00    -0.450 OA
ENDROOT
BRANCH   1  18
ATOM     18  C   LIG    1       -0.997   1.758  -3.630  0.00  0.00    +0.370 C 
BRANCH  18  20
ATOM     19  O   LIG    1        0.726   0.575  -2.534  0.00  0.00    -0.510 OA
ATOM     20  C   LIG    1       -0.268   1.258  -2.409  0.00  0.00    +0.510 C 
ATOM     21  N   LIG    1       -0.721   1.571  -1.179  0.00  0.00    -0.730 N 
ATOM     22  H   LIG    1       -1.516   2.118  -1.079  0.00  0.00    +0.410 HD
BRANCH  21  23
ATOM     23  C   LIG    1       -0.013   1.086   0.008  0.00  0.00    +0.320 C 
BRANCH  23  24
ATOM     24  C   LIG    1       -0.729   1.579   1.267  0.00  0.00    +0.450 C 
ATOM     25  F   LIG    1       -0.748   2.978   1.274  0.00  0.00    -0.180 F 
ATOM     26  F   LIG    1       -0.052   1.116   2.400  0.00  0.00    -0.170 F 
ATOM     27  F   LIG    1       -2.041   1.095   1.277  0.00  0.00    -0.180 F 
ENDBRANCH  23  24
ENDBRANCH  21  23
ENDBRANCH  18  20
ENDBRANCH   1  18
TORSDOF 4
