REMARK  Name = ZINCpk00000eaACs.0
REMARK                            x       y       z     vdW  Elec       q    Type
REMARK                         _______ _______ _______ _____ _____    ______ ____
ROOT
ATOM      1  C   LIG    1        3.704   1.502   3.230  0.00  0.00    +0.050 C 
ATOM      2  C   LIG    1        3.743   2.763   4.125  0.00  0.00    +0.100 C 
ATOM      3  C   LIG    1        5.059   2.654   4.863  0.00  0.00    +0.530 C 
ATOM      4  N   LIG    1        5.536   1.400   4.774  0.00  0.00    -0.580 N 
ATOM      5  O   LIG    1        5.604   3.565   5.449  0.00  0.00    -0.500 OA
ATOM      6  C   LIG    1        4.632   0.538   4.002  0.00  0.00    +0.320 C 
ENDROOT
BRANCH   4   7
ATOM      7  C   LIG    1        6.742   0.971   5.344  0.00  0.00    +0.100 A 
ATOM      8  C   LIG    1        6.759   0.465   6.635  0.00  0.00    +0.100 A 
ATOM      9  C   LIG    1        7.949   0.042   7.196  0.00  0.00    +0.000 A 
ATOM     10  C   LIG    1        9.125   0.122   6.470  0.00  0.00    +0.140 A 
ATOM     11  C   LIG    1        9.113   0.628   5.181  0.00  0.00    -0.030 A 
ATOM     12  F   LIG    1       10.287  -0.292   7.021  0.00  0.00    -0.120 F 
ATOM     13  C   LIG    1        7.923   1.046   4.613  0.00  0.00    +0.140 A 
ATOM     14  F   LIG    1        7.910   1.534   3.353  0.00  0.00    -0.120 F 
ENDBRANCH   4   7
BRANCH   1  15
ATOM     15  C   LIG    1        2.305   0.948   3.139  0.00  0.00    +0.480 C 
ATOM     16  O   LIG    1        2.059  -0.146   3.590  0.00  0.00    -0.490 OA
BRANCH  15  17
ATOM     17  O   LIG    1        1.334   1.669   2.558  0.00  0.00    -0.320 OA
BRANCH  17  18
ATOM     18  C   LIG    1        0.011   1.072   2.506  0.00  0.00    +0.200 C 
BRANCH  18  19
ATOM     19  C   LIG    1       -0.761   1.454   3.743  0.00  0.00    +0.510 C 
ATOM     20  O   LIG    1       -0.282   2.231   4.541  0.00  0.00    -0.520 OA
ATOM     21  N   LIG    1       -1.983   0.931   3.962  0.00  0.00    -0.850 N 
ATOM     22  H   LIG    1       -2.480   1.176   4.759  0.00  0.00    +0.410 HD
ATOM     23  H   LIG    1       -2.366   0.309   3.324  0.00  0.00    +0.400 HD
ENDBRANCH  18  19
BRANCH  18  24
ATOM     24  C   LIG    1       -0.729   1.579   1.267  0.00  0.00    +0.100 C 
BRANCH  24  25
ATOM     25  C   LIG    1       -0.013   1.086   0.008  0.00  0.00    +0.090 C 
BRANCH  25  27
ATOM     26  C   LIG    1        0.092   1.010  -2.828  0.00  0.00    +0.140 C 
ATOM     27  S   LIG    1       -0.890   1.687  -1.462  0.00  0.00    -0.250 S 
ENDBRANCH  25  27
ENDBRANCH  24  25
ENDBRANCH  18  24
ENDBRANCH  17  18
ENDBRANCH  15  17
ENDBRANCH   1  15
TORSDOF 8
