REMARK  Name = ZINCah0000002Bzv.0
REMARK                            x       y       z     vdW  Elec       q    Type
REMARK                         _______ _______ _______ _____ _____    ______ ____
ROOT
ATOM      1  C   LIG    1       -1.242   3.140   0.030  0.00  0.00    +0.230 A 
ATOM      2  C   LIG    1       -0.050   3.851   0.022  0.00  0.00    -0.100 A 
ATOM      3  C   LIG    1        1.160   3.173   0.007  0.00  0.00    +0.230 A 
ATOM      4  C   LIG    1        1.177   1.783   0.000  0.00  0.00    -0.010 A 
ATOM      5  C   LIG    1       -0.013   1.076   0.008  0.00  0.00    +0.060 A 
ATOM      6  F   LIG    1        2.355   1.122  -0.014  0.00  0.00    -0.140 F 
ATOM      7  C   LIG    1       -1.220   1.750   0.017  0.00  0.00    -0.010 A 
ATOM      8  F   LIG    1       -2.380   1.057   0.019  0.00  0.00    -0.140 F 
ENDROOT
BRANCH   1   9
ATOM      9  N   LIG    1       -2.464   3.822   0.045  0.00  0.00    -0.870 N 
ATOM     10  H   LIG    1       -3.297   3.325   0.050  0.00  0.00    +0.410 HD
ATOM     11  H   LIG    1       -2.478   4.792   0.049  0.00  0.00    +0.400 HD
ENDBRANCH   1   9
BRANCH   3  12
ATOM     12  N   LIG    1        2.364   3.888  -0.001  0.00  0.00    -0.870 N 
ATOM     13  H   LIG    1        2.352   4.858   0.004  0.00  0.00    +0.400 HD
ATOM     14  H   LIG    1        3.209   3.413  -0.011  0.00  0.00    +0.410 HD
ENDBRANCH   3  12
TORSDOF 2
