REMARK  Name = ZINCpe00000gLHN5.2
REMARK                            x       y       z     vdW  Elec       q    Type
REMARK                         _______ _______ _______ _____ _____    ______ ____
ROOT
ATOM      1  C   LIG    1       -1.030   1.571  -1.988  0.00  0.00    +0.310 C 
ENDROOT
BRANCH   1   2
ATOM      2  C   LIG    1        0.097   0.810  -1.286  0.00  0.00    +0.110 C 
ATOM      3  C   LIG    1        1.473   1.437  -1.623  0.00  0.00    +0.060 C 
ATOM      4  C   LIG    1        2.351   1.008  -0.425  0.00  0.00    +0.150 C 
ATOM      5  C   LIG    1        1.358   0.699   0.711  0.00  0.00    +0.150 C 
ATOM      6  N   LIG    1        0.002   0.971   0.188  0.00  0.00    -0.500 NA
BRANCH   4   7
ATOM      7  O   LIG    1        3.225   2.072  -0.044  0.00  0.00    -0.560 OA
ATOM      8  H   LIG    1        3.801   1.860   0.704  0.00  0.00    +0.380 HD
ENDBRANCH   4   7
BRANCH   6   9
ATOM      9  C   LIG    1       -0.979   0.037   0.757  0.00  0.00    +0.210 C 
BRANCH   9  10
ATOM     10  C   LIG    1       -0.971   0.154   2.260  0.00  0.00    -0.080 A 
ATOM     11  C   LIG    1       -0.128  -0.644   3.011  0.00  0.00    +0.000 A 
ATOM     12  C   LIG    1       -0.118  -0.533   4.389  0.00  0.00    +0.000 A 
ATOM     13  C   LIG    1       -0.957   0.369   5.016  0.00  0.00    +0.000 A 
ATOM     14  C   LIG    1       -1.803   1.163   4.265  0.00  0.00    +0.000 A 
ATOM     15  C   LIG    1       -1.810   1.055   2.887  0.00  0.00    +0.020 A 
ENDBRANCH   9  10
ENDBRANCH   6   9
ENDBRANCH   1   2
BRANCH   1  17
ATOM     16  C   LIG    1       -2.797  -0.085  -2.260  0.00  0.00    +0.510 C 
ATOM     17  N   LIG    1       -2.321   0.994  -1.606  0.00  0.00    -0.720 N 
ATOM     18  H   LIG    1       -2.833   1.388  -0.883  0.00  0.00    +0.410 HD
ATOM     19  O   LIG    1       -2.204  -0.520  -3.224  0.00  0.00    -0.530 OA
BRANCH  16  20
ATOM     20  C   LIG    1       -4.067  -0.748  -1.793  0.00  0.00    +0.240 C 
BRANCH  20  23
ATOM     21  C   LIG    1       -4.778  -4.507  -1.930  0.00  0.00    +0.100 C 
ATOM     22  C   LIG    1       -4.785  -3.060  -1.511  0.00  0.00    +0.510 C 
ATOM     23  N   LIG    1       -4.061  -2.156  -2.200  0.00  0.00    -0.720 N 
ATOM     24  H   LIG    1       -3.535  -2.437  -2.965  0.00  0.00    +0.410 HD
ATOM     25  O   LIG    1       -5.443  -2.708  -0.555  0.00  0.00    -0.540 OA
ENDBRANCH  20  23
BRANCH  20  26
ATOM     26  C   LIG    1       -5.271  -0.042  -2.420  0.00  0.00    -0.020 C 
ATOM     27  C   LIG    1       -5.250   1.439  -2.038  0.00  0.00    +0.030 C 
ATOM     28  C   LIG    1       -6.562  -0.683  -1.905  0.00  0.00    +0.030 C 
ENDBRANCH  20  26
ENDBRANCH  16  20
ENDBRANCH   1  17
TORSDOF 8
