REMARK  Name = ZINCqH0000006plO.0
REMARK                            x       y       z     vdW  Elec       q    Type
REMARK                         _______ _______ _______ _____ _____    ______ ____
ROOT
ATOM      1  C   LIG    1       -3.249   1.317  -3.854  0.00  0.00    +0.330 C 
ATOM      2  C   LIG    1       -2.731   0.276  -4.869  0.00  0.00    +0.050 C 
ATOM      3  C   LIG    1       -3.216  -1.069  -4.265  0.00  0.00    +0.040 C 
ATOM      4  C   LIG    1       -4.580  -0.661  -3.653  0.00  0.00    +0.250 C 
ATOM      5  N   LIG    1       -4.365   0.698  -3.124  0.00  0.00    -0.610 N 
ATOM      6  C   LIG    1       -5.074   1.277  -2.135  0.00  0.00    +0.540 C 
ATOM      7  O   LIG    1       -4.807   2.406  -1.779  0.00  0.00    -0.500 OA
ENDROOT
BRANCH   6   8
ATOM      8  C   LIG    1       -6.197   0.523  -1.471  0.00  0.00    +0.180 C 
ATOM      9  C   LIG    1       -5.654  -0.709  -0.709  0.00  0.00    +0.100 C 
ATOM     10  C   LIG    1       -6.557  -0.747   0.508  0.00  0.00    -0.180 A 
ATOM     11  C   LIG    1       -6.805  -1.725   1.446  0.00  0.00    +0.070 A 
ATOM     12  C   LIG    1       -7.703  -1.488   2.472  0.00  0.00    -0.110 A 
ATOM     13  C   LIG    1       -8.347  -0.267   2.551  0.00  0.00    -0.050 A 
ATOM     14  C   LIG    1       -8.098   0.715   1.615  0.00  0.00    +0.000 A 
ATOM     15  C   LIG    1       -9.328  -0.009   3.666  0.00  0.00    +0.100 C 
ATOM     16  C   LIG    1       -7.976  -2.556   3.499  0.00  0.00    +0.100 C 
ATOM     17  C   LIG    1       -7.194   0.486   0.582  0.00  0.00    +0.100 A 
ATOM     18  O   LIG    1       -6.790   1.310  -0.424  0.00  0.00    -0.270 OA
ENDBRANCH   6   8
BRANCH   1  22
ATOM     19  C   LIG    1       -0.742   1.585  -1.213  0.00  0.00    -0.020 A 
ATOM     20  C   LIG    1       -0.508   2.748  -1.848  0.00  0.00    -0.030 A 
ATOM     21  C   LIG    1       -1.411   2.810  -2.934  0.00  0.00    -0.050 A 
ATOM     22  C   LIG    1       -2.149   1.685  -2.892  0.00  0.00    -0.010 A 
ATOM     23  O   LIG    1       -1.739   0.947  -1.848  0.00  0.00    -0.160 OA
BRANCH  19  24
ATOM     24  C   LIG    1       -0.013   1.086   0.008  0.00  0.00    +0.290 C 
BRANCH  24  26
ATOM     25  C   LIG    1       -0.068   1.127   2.404  0.00  0.00    +0.210 C 
ATOM     26  O   LIG    1       -0.682   1.547   1.184  0.00  0.00    -0.380 OA
ENDBRANCH  24  26
ENDBRANCH  19  24
ENDBRANCH   1  22
TORSDOF 4
