REMARK  Name = ZINCvU00000004Mf.0
REMARK                            x       y       z     vdW  Elec       q    Type
REMARK                         _______ _______ _______ _____ _____    ______ ____
ROOT
ATOM      1  C   LIG    1        1.192  -7.840  -0.065  0.00  0.00    +0.240 A 
ATOM      2  N   LIG    1        1.174  -6.592  -0.408  0.00  0.00    -0.500 NA
ATOM      3  C   LIG    1       -0.016  -6.017  -0.521  0.00  0.00    +0.180 A 
ATOM      4  C   LIG    1       -1.051  -6.838  -0.267  0.00  0.00    -0.130 A 
ATOM      5  S   LIG    1       -0.401  -8.423   0.142  0.00  0.00    +0.240 S 
ENDROOT
BRANCH   3   6
ATOM      6  C   LIG    1       -0.191  -4.593  -0.902  0.00  0.00    -0.110 A 
ATOM      7  C   LIG    1        0.799  -3.703  -1.179  0.00  0.00    +0.050 A 
ATOM      8  N   LIG    1        0.220  -2.506  -1.481  0.00  0.00    -0.430 N 
ATOM      9  C   LIG    1       -1.135  -2.638  -1.404  0.00  0.00    +0.030 A 
ATOM     10  C   LIG    1       -2.143  -1.549  -1.670  0.00  0.00    +0.120 C 
ATOM     11  C   LIG    1        2.279  -3.989  -1.154  0.00  0.00    +0.140 C 
ATOM     12  C   LIG    1       -1.422  -3.906  -1.052  0.00  0.00    -0.040 A 
BRANCH   8  13
ATOM     13  C   LIG    1        0.937  -1.279  -1.837  0.00  0.00    +0.280 C 
BRANCH  13  14
ATOM     14  C   LIG    1        1.229  -0.474  -0.569  0.00  0.00    +0.160 C 
ATOM     15  C   LIG    1        2.084   0.763  -0.920  0.00  0.00    +0.020 C 
ATOM     16  C   LIG    1        1.473   1.857  -0.002  0.00  0.00    +0.010 C 
ATOM     17  C   LIG    1       -0.017   1.432   0.010  0.00  0.00    +0.200 C 
ATOM     18  O   LIG    1        0.002  -0.004   0.002  0.00  0.00    -0.370 OA
ENDBRANCH  13  14
ENDBRANCH   8  13
ENDBRANCH   3   6
BRANCH   1  20
ATOM     19  C   LIG    1        2.248  -9.897   0.460  0.00  0.00    +0.510 C 
ATOM     20  N   LIG    1        2.343  -8.600   0.106  0.00  0.00    -0.620 N 
ATOM     21  H   LIG    1        3.215  -8.197  -0.030  0.00  0.00    +0.420 HD
ATOM     22  O   LIG    1        1.158 -10.401   0.630  0.00  0.00    -0.470 OA
BRANCH  19  23
ATOM     23  C   LIG    1        3.496 -10.720   0.645  0.00  0.00    +0.250 C 
BRANCH  23  24
ATOM     24  O   LIG    1        3.137 -12.053   1.017  0.00  0.00    -0.290 OA
BRANCH  24  30
ATOM     25  C   LIG    1        7.931 -12.966   1.118  0.00  0.00    +0.090 C 
ATOM     26  C   LIG    1        6.501 -13.413   1.283  0.00  0.00    -0.040 A 
ATOM     27  C   LIG    1        6.223 -14.718   1.645  0.00  0.00    -0.040 A 
ATOM     28  C   LIG    1        4.912 -15.131   1.797  0.00  0.00    -0.040 A 
ATOM     29  C   LIG    1        3.877 -14.241   1.587  0.00  0.00    -0.020 A 
ATOM     30  C   LIG    1        4.154 -12.931   1.224  0.00  0.00    +0.130 A 
ATOM     31  C   LIG    1        4.612 -16.554   2.192  0.00  0.00    +0.100 C 
ATOM     32  C   LIG    1        5.469 -12.520   1.067  0.00  0.00    -0.090 A 
ENDBRANCH  24  30
ENDBRANCH  23  24
ENDBRANCH  19  23
ENDBRANCH   1  20
TORSDOF 7
