REMARK  Name = ZINCvU00000007To.0
REMARK                            x       y       z     vdW  Elec       q    Type
REMARK                         _______ _______ _______ _____ _____    ______ ____
ROOT
ATOM      1  C   LIG    1       -0.866  11.077  -2.277  0.00  0.00    +0.520 C 
ATOM      2  N   LIG    1       -0.816   9.734  -2.172  0.00  0.00    -0.600 N 
ATOM      3  C   LIG    1       -1.864   8.912  -2.667  0.00  0.00    +0.260 C 
ATOM      4  C   LIG    1       -3.069   8.731  -1.688  0.00  0.00    +0.010 C 
ATOM      5  C   LIG    1       -2.481   8.627  -0.248  0.00  0.00    +0.280 C 
ATOM      6  N   LIG    1       -1.263   7.901  -0.149  0.00  0.00    -0.610 N 
ATOM      7  C   LIG    1       -0.004   8.690  -0.161  0.00  0.00    +0.270 C 
ATOM      8  C   LIG    1       -1.251   6.557  -0.054  0.00  0.00    +0.710 C 
ATOM      9  N   LIG    1       -0.078   5.899   0.033  0.00  0.00    -0.690 N 
ATOM     10  H   LIG    1        0.753   6.395   0.095  0.00  0.00    +0.410 HD
ATOM     11  O   LIG    1       -2.297   5.938  -0.047  0.00  0.00    -0.560 OA
ATOM     12  C   LIG    1        0.337   9.048  -1.533  0.00  0.00    +0.270 C 
ATOM     13  O   LIG    1       -1.820  11.609  -2.803  0.00  0.00    -0.510 OA
ENDROOT
BRANCH   9  14
ATOM     14  C   LIG    1       -0.060   4.499   0.035  0.00  0.00    +0.170 A 
ATOM     15  C   LIG    1       -1.082   3.791   0.652  0.00  0.00    +0.040 A 
ATOM     16  C   LIG    1       -1.062   2.409   0.653  0.00  0.00    +0.050 A 
ATOM     17  C   LIG    1       -0.023   1.732   0.039  0.00  0.00    -0.050 A 
ATOM     18  C   LIG    1        1.000   2.435  -0.572  0.00  0.00    +0.050 A 
ATOM     19 CL   LIG    1        0.001  -0.004   0.042  0.00  0.00    -0.070 Cl
ATOM     20  C   LIG    1        0.981   3.816  -0.581  0.00  0.00    +0.000 A 
ENDBRANCH   9  14
BRANCH   1  21
ATOM     21  C   LIG    1        0.264  11.917  -1.740  0.00  0.00    +0.140 C 
BRANCH  21  27
ATOM     22  C   LIG    1       -2.923  17.566   0.598  0.00  0.00    +0.090 C 
ATOM     23  C   LIG    1       -2.185  16.404  -0.016  0.00  0.00    -0.060 A 
ATOM     24  C   LIG    1       -2.199  15.170   0.618  0.00  0.00    +0.000 A 
ATOM     25  C   LIG    1       -1.529  14.099   0.068  0.00  0.00    +0.050 A 
ATOM     26  C   LIG    1       -0.836  14.262  -1.130  0.00  0.00    -0.110 A 
ATOM     27  C   LIG    1       -0.035  13.374  -1.981  0.00  0.00    -0.170 A 
ATOM     28  C   LIG    1        0.382  14.121  -3.013  0.00  0.00    +0.230 A 
ATOM     29  O   LIG    1       -0.086  15.376  -2.894  0.00  0.00    -0.190 OA
ATOM     30  C   LIG    1       -0.822  15.512  -1.773  0.00  0.00    +0.060 A 
ATOM     31  C   LIG    1       -1.504  16.578  -1.201  0.00  0.00    -0.070 A 
ATOM     32  C   LIG    1       -1.499  17.925  -1.877  0.00  0.00    +0.100 C 
ENDBRANCH  21  27
ENDBRANCH   1  21
TORSDOF 3
