REMARK  Name = ZINCvU0000000DWE.0
REMARK                            x       y       z     vdW  Elec       q    Type
REMARK                         _______ _______ _______ _____ _____    ______ ____
ROOT
ATOM      1  C   LIG    1        3.314   6.979  -1.429  0.00  0.00    +0.110 C 
ATOM      2  C   LIG    1        2.862   6.728   0.011  0.00  0.00    +0.020 C 
ENDROOT
BRANCH   2   3
ATOM      3  C   LIG    1        1.732   5.732   0.016  0.00  0.00    +0.540 C 
ATOM      4  N   LIG    1        1.998   4.411   0.007  0.00  0.00    -0.610 N 
ATOM      5  H   LIG    1        2.917   4.101  -0.004  0.00  0.00    +0.430 HD
ATOM      6  O   LIG    1        0.582   6.119   0.029  0.00  0.00    -0.480 OA
BRANCH   4   7
ATOM      7  C   LIG    1        0.955   3.492   0.012  0.00  0.00    +0.270 A 
ATOM      8  N   LIG    1        1.093   2.203   0.004  0.00  0.00    -0.490 NA
ATOM      9  C   LIG    1       -0.018   1.479   0.010  0.00  0.00    +0.130 A 
ATOM     10  C   LIG    1       -1.165   2.182   0.019  0.00  0.00    -0.110 A 
ATOM     11  S   LIG    1       -0.758   3.897   0.030  0.00  0.00    +0.210 S 
BRANCH   9  12
ATOM     12  C   LIG    1        0.002  -0.004   0.002  0.00  0.00    -0.020 A 
ATOM     13  C   LIG    1       -1.194  -0.720   0.015  0.00  0.00    +0.030 A 
ATOM     14  C   LIG    1       -1.169  -2.100   0.001  0.00  0.00    +0.010 A 
ATOM     15  C   LIG    1        0.040  -2.772  -0.014  0.00  0.00    +0.010 A 
ATOM     16  C   LIG    1        1.230  -2.067  -0.020  0.00  0.00    +0.010 A 
ATOM     17  C   LIG    1        1.217  -0.687  -0.013  0.00  0.00    +0.040 A 
ENDBRANCH   9  12
ENDBRANCH   4   7
ENDBRANCH   2   3
BRANCH   2  18
ATOM     18  S   LIG    1        2.299   8.284   0.746  0.00  0.00    +0.150 S 
BRANCH  18  19
ATOM     19  C   LIG    1        3.813   9.185   0.752  0.00  0.00    +0.110 A 
ATOM     20  N   LIG    1        4.974   8.755   0.319  0.00  0.00    -0.280 NA
ATOM     21  N   LIG    1        5.859   9.675   0.476  0.00  0.00    -0.270 NA
ATOM     22  C   LIG    1        5.298  10.731   1.016  0.00  0.00    +0.270 A 
ATOM     23  O   LIG    1        3.990  10.445   1.197  0.00  0.00    -0.200 OA
BRANCH  22  24
ATOM     24  C   LIG    1        5.970  11.999   1.358  0.00  0.00    -0.130 A 
ATOM     25  C   LIG    1        5.396  13.099   1.913  0.00  0.00    +0.320 A 
ATOM     26  N   LIG    1        6.337  14.072   2.084  0.00  0.00    -0.580 N 
ATOM     27  H   LIG    1        6.166  14.947   2.465  0.00  0.00    +0.430 HD
ATOM     28  C   LIG    1        7.564  13.634   1.633  0.00  0.00    +0.090 A 
ATOM     29  C   LIG    1        8.823  14.223   1.575  0.00  0.00    +0.000 A 
ATOM     30  C   LIG    1        9.887  13.519   1.056  0.00  0.00    +0.040 A 
ATOM     31  C   LIG    1        9.718  12.224   0.588  0.00  0.00    -0.010 A 
ATOM     32  C   LIG    1        8.480  11.623   0.637  0.00  0.00    +0.070 A 
ATOM     33  C   LIG    1        7.394  12.322   1.159  0.00  0.00    -0.070 A 
ENDBRANCH  22  24
ENDBRANCH  18  19
ENDBRANCH   2  18
TORSDOF 6
