REMARK  Name = ZINCqH0000001wI6.0
REMARK                            x       y       z     vdW  Elec       q    Type
REMARK                         _______ _______ _______ _____ _____    ______ ____
ROOT
ATOM      1  C   LIG    1        5.630   3.813  -1.479  0.00  0.00    +0.240 C 
ENDROOT
BRANCH   1   2
ATOM      2  N   LIG    1        6.981   4.378  -1.490  0.00  0.00    -0.730 N 
ATOM      3  H   LIG    1        7.439   4.556  -0.654  0.00  0.00    +0.410 HD
ATOM      4  C   LIG    1        7.588   4.651  -2.662  0.00  0.00    +0.510 C 
ATOM      5  O   LIG    1        7.015   4.429  -3.708  0.00  0.00    -0.540 OA
BRANCH   4   6
ATOM      6  C   LIG    1        8.978   5.233  -2.674  0.00  0.00    +0.060 C 
BRANCH   6   7
ATOM      7  C   LIG    1        9.430   5.446  -4.120  0.00  0.00    +0.040 C 
BRANCH   7   8
ATOM      8  C   LIG    1       10.841   6.037  -4.131  0.00  0.00    +0.080 C 
BRANCH   8   9
ATOM      9  C   LIG    1       11.286   6.247  -5.556  0.00  0.00    -0.090 A 
ATOM     10  C   LIG    1       11.957   5.240  -6.225  0.00  0.00    +0.040 A 
ATOM     11  C   LIG    1       12.361   5.430  -7.533  0.00  0.00    -0.010 A 
ATOM     12  C   LIG    1       12.103   6.632  -8.170  0.00  0.00    +0.090 A 
ATOM     13  C   LIG    1       11.436   7.641  -7.497  0.00  0.00    -0.010 A 
ATOM     14  F   LIG    1       12.503   6.820  -9.446  0.00  0.00    -0.140 F 
ATOM     15  C   LIG    1       11.028   7.448  -6.190  0.00  0.00    +0.040 A 
ENDBRANCH   8   9
ENDBRANCH   7   8
ENDBRANCH   6   7
ENDBRANCH   4   6
ENDBRANCH   1   2
BRANCH   1  16
ATOM     16  C   LIG    1        5.178   3.600  -0.033  0.00  0.00    +0.260 C 
BRANCH  16  20
ATOM     17  C   LIG    1        1.236   1.950  -0.000  0.00  0.00    +0.140 A 
ATOM     18  C   LIG    1        2.338   1.115  -0.123  0.00  0.00    -0.020 A 
ATOM     19  C   LIG    1        3.611   1.651  -0.139  0.00  0.00    +0.060 A 
ATOM     20  C   LIG    1        3.788   3.018  -0.021  0.00  0.00    -0.160 A 
ATOM     21  C   LIG    1        2.692   3.851   0.106  0.00  0.00    +0.070 A 
ATOM     22  C   LIG    1        1.417   3.320   0.117  0.00  0.00    -0.080 A 
BRANCH  17  23
ATOM     23  O   LIG    1       -0.017   1.425   0.010  0.00  0.00    -0.310 OA
BRANCH  23  25
ATOM     24  C   LIG    1       -1.517   3.002  -1.042  0.00  0.00    +0.020 C 
ATOM     25  C   LIG    1       -1.096   2.327   0.265  0.00  0.00    +0.150 C 
ATOM     26  C   LIG    1       -2.282   1.552   0.844  0.00  0.00    +0.070 C 
ENDBRANCH  23  25
ENDBRANCH  17  23
ENDBRANCH  16  20
BRANCH  16  27
ATOM     27  O   LIG    1        6.077   2.700   0.619  0.00  0.00    -0.550 OA
ATOM     28  H   LIG    1        6.129   1.827   0.205  0.00  0.00    +0.380 HD
ENDBRANCH  16  27
ENDBRANCH   1  16
TORSDOF 10
