REMARK  Name = ZINCpk00000xPZDt.0
REMARK                            x       y       z     vdW  Elec       q    Type
REMARK                         _______ _______ _______ _____ _____    ______ ____
ROOT
ATOM      1  N   LIG    1        4.753   1.050  -2.926  0.00  0.00    -0.750 N 
ATOM      2  H   LIG    1        4.164   1.303  -3.653  0.00  0.00    +0.400 HD
ATOM      3  C   LIG    1        4.304   1.071  -1.655  0.00  0.00    +0.710 C 
ATOM      4  N   LIG    1        3.035   1.443  -1.396  0.00  0.00    -0.740 N 
ATOM      5  H   LIG    1        2.445   1.696  -2.123  0.00  0.00    +0.400 HD
ATOM      6  O   LIG    1        5.043   0.754  -0.744  0.00  0.00    -0.580 OA
ENDROOT
BRANCH   1   7
ATOM      7  C   LIG    1        6.133   0.645  -3.208  0.00  0.00    +0.310 C 
BRANCH   7   9
ATOM      8  C   LIG    1        5.395  -0.194  -5.455  0.00  0.00    +0.050 C 
ATOM      9  C   LIG    1        6.385   0.709  -4.716  0.00  0.00    +0.140 C 
ATOM     10  C   LIG    1        7.836   0.285  -5.034  0.00  0.00    +0.070 C 
ATOM     11  C   LIG    1        8.183   1.215  -6.220  0.00  0.00    +0.060 C 
ATOM     12  C   LIG    1        7.261   2.401  -6.043  0.00  0.00    +0.520 C 
ATOM     13  O   LIG    1        7.399   3.475  -6.589  0.00  0.00    -0.530 OA
ATOM     14  N   LIG    1        6.267   2.092  -5.193  0.00  0.00    -0.720 N 
ATOM     15  H   LIG    1        5.563   2.704  -4.928  0.00  0.00    +0.410 HD
ENDBRANCH   7   9
ENDBRANCH   1   7
BRANCH   4  16
ATOM     16  C   LIG    1        2.546   1.466  -0.015  0.00  0.00    +0.400 C 
BRANCH  16  17
ATOM     17  C   LIG    1        1.107   1.914   0.002  0.00  0.00    +0.060 A 
ATOM     18  N   LIG    1        0.691   3.155   0.012  0.00  0.00    -0.270 NA
ATOM     19  N   LIG    1       -0.710   3.146   0.025  0.00  0.00    -0.320 N 
ATOM     20  C   LIG    1       -1.118   1.857   0.017  0.00  0.00    +0.230 A 
ATOM     21  C   LIG    1       -0.013   1.076   0.008  0.00  0.00    -0.080 A 
BRANCH  19  22
ATOM     22  C   LIG    1       -1.542   4.275   0.038  0.00  0.00    +0.150 A 
ATOM     23  C   LIG    1       -2.922   4.121   0.044  0.00  0.00    +0.030 A 
ATOM     24  C   LIG    1       -3.740   5.234   0.062  0.00  0.00    +0.020 A 
ATOM     25  C   LIG    1       -3.185   6.502   0.063  0.00  0.00    +0.090 A 
ATOM     26  C   LIG    1       -1.809   6.658   0.051  0.00  0.00    +0.020 A 
ATOM     27  F   LIG    1       -3.987   7.590   0.075  0.00  0.00    -0.130 F 
ATOM     28  C   LIG    1       -0.988   5.548   0.039  0.00  0.00    +0.060 A 
ENDBRANCH  19  22
ENDBRANCH  16  17
ENDBRANCH   4  16
TORSDOF 5
