REMARK  Name = ZINCpk00000y6y6p.0
REMARK                            x       y       z     vdW  Elec       q    Type
REMARK                         _______ _______ _______ _____ _____    ______ ____
ROOT
ATOM      1  C   LIG    1        2.776   3.695   0.021  0.00  0.00    +0.260 C 
ATOM      2  C   LIG    1        1.268   3.363   0.002  0.00  0.00    +0.240 C 
ATOM      3  N   LIG    1        1.143   1.898   0.001  0.00  0.00    -0.620 N 
ATOM      4  C   LIG    1        2.495   1.309  -0.015  0.00  0.00    +0.270 C 
ATOM      5  C   LIG    1       -0.014   1.209   0.009  0.00  0.00    +0.540 C 
ATOM      6  O   LIG    1        0.002  -0.004   0.002  0.00  0.00    -0.510 OA
ATOM      7  C   LIG    1        3.411   2.400   0.594  0.00  0.00    -0.010 C 
ATOM      8  C   LIG    1        4.853   2.237   0.111  0.00  0.00    +0.060 C 
ENDROOT
BRANCH   5   9
ATOM      9  C   LIG    1       -1.330   1.944   0.019  0.00  0.00    +0.140 C 
ATOM     10  C   LIG    1       -1.522   2.755  -1.285  0.00  0.00    +0.070 C 
ATOM     11  C   LIG    1       -3.003   2.583  -1.562  0.00  0.00    +0.090 C 
ATOM     12  N   LIG    1       -3.439   1.620  -0.847  0.00  0.00    -0.280 NA
ATOM     13  O   LIG    1       -2.438   1.023  -0.048  0.00  0.00    -0.170 OA
BRANCH  11  14
ATOM     14  C   LIG    1       -3.822   3.411  -2.520  0.00  0.00    +0.070 C 
ATOM     15  C   LIG    1       -3.881   4.856  -2.023  0.00  0.00    +0.040 C 
ATOM     16  C   LIG    1       -5.240   2.841  -2.602  0.00  0.00    +0.040 C 
ENDBRANCH  11  14
ENDBRANCH   5   9
BRANCH   1  18
ATOM     17  C   LIG    1        3.266   5.214  -1.820  0.00  0.00    +0.520 C 
ATOM     18  N   LIG    1        3.265   3.956  -1.335  0.00  0.00    -0.720 N 
ATOM     19  H   LIG    1        3.588   3.225  -1.883  0.00  0.00    +0.400 HD
ATOM     20  O   LIG    1        2.862   6.129  -1.134  0.00  0.00    -0.530 OA
BRANCH  17  21
ATOM     21  C   LIG    1        3.770   5.483  -3.214  0.00  0.00    +0.060 C 
BRANCH  21  22
ATOM     22  C   LIG    1        3.663   6.979  -3.515  0.00  0.00    +0.020 C 
ATOM     23  C   LIG    1        4.603   7.754  -2.589  0.00  0.00    +0.030 C 
BRANCH  22  24
ATOM     24  C   LIG    1        4.056   7.236  -4.971  0.00  0.00    +0.160 C 
BRANCH  24  26
ATOM     25  C   LIG    1        4.184   8.962  -6.629  0.00  0.00    +0.200 C 
ATOM     26  O   LIG    1        3.846   8.614  -5.285  0.00  0.00    -0.390 OA
ENDBRANCH  24  26
ENDBRANCH  22  24
ENDBRANCH  21  22
ENDBRANCH  17  21
ENDBRANCH   1  18
TORSDOF 7
