REMARK  Name = ZINCpk000000n66N.0
REMARK                            x       y       z     vdW  Elec       q    Type
REMARK                         _______ _______ _______ _____ _____    ______ ____
ROOT
ATOM      1  C   LIG    1        1.270   4.865   0.368  0.00  0.00    +0.520 C 
ATOM      2  N   LIG    1        2.574   5.131   0.155  0.00  0.00    -0.720 N 
ATOM      3  H   LIG    1        3.079   4.602  -0.483  0.00  0.00    +0.410 HD
ATOM      4  O   LIG    1        0.640   5.526   1.166  0.00  0.00    -0.500 OA
ENDROOT
BRANCH   1   8
ATOM      5  C   LIG    1       -0.018   1.470   0.010  0.00  0.00    +0.060 C 
ATOM      6  N   LIG    1       -1.074   2.212   0.019  0.00  0.00    -0.200 NA
ATOM      7  O   LIG    1       -0.775   3.594   0.036  0.00  0.00    -0.140 OA
ATOM      8  C   LIG    1        0.596   3.747  -0.384  0.00  0.00    +0.150 C 
ATOM      9  C   LIG    1        1.199   2.376   0.003  0.00  0.00    +0.130 C 
BRANCH   5  10
ATOM     10  C   LIG    1        0.002  -0.004   0.002  0.00  0.00    +0.550 C 
ATOM     11  O   LIG    1        1.062  -0.597  -0.011  0.00  0.00    -0.470 OA
BRANCH  10  12
ATOM     12  O   LIG    1       -1.156  -0.694   0.009  0.00  0.00    -0.330 OA
BRANCH  12  14
ATOM     13  C   LIG    1       -0.295  -2.611   1.240  0.00  0.00    +0.040 C 
ATOM     14  C   LIG    1       -1.060  -2.143   0.001  0.00  0.00    +0.120 C 
ATOM     15  C   LIG    1       -0.319  -2.597  -1.258  0.00  0.00    +0.040 C 
ATOM     16  C   LIG    1       -2.466  -2.747   0.011  0.00  0.00    +0.080 C 
ENDBRANCH  12  14
ENDBRANCH  10  12
ENDBRANCH   5  10
ENDBRANCH   1   8
BRANCH   2  17
ATOM     17  C   LIG    1        3.230   6.218   0.886  0.00  0.00    +0.350 C 
BRANCH  17  18
ATOM     18  C   LIG    1        4.675   6.305   0.468  0.00  0.00    -0.100 A 
ATOM     19  C   LIG    1        5.051   7.169  -0.514  0.00  0.00    +0.100 A 
ATOM     20  C   LIG    1        6.408   7.240  -0.888  0.00  0.00    +0.210 A 
ATOM     21  N   LIG    1        7.048   7.973  -1.788  0.00  0.00    -0.490 NA
ATOM     22  C   LIG    1        8.346   7.661  -1.764  0.00  0.00    +0.210 A 
ATOM     23  C   LIG    1        8.543   6.707  -0.828  0.00  0.00    +0.100 A 
ATOM     24  N   LIG    1        7.325   6.432  -0.268  0.00  0.00    -0.360 N 
ATOM     25  C   LIG    1        6.934   5.566   0.712  0.00  0.00    +0.230 A 
ATOM     26  C   LIG    1        5.639   5.491   1.085  0.00  0.00    +0.020 A 
ENDBRANCH  17  18
ENDBRANCH   2  17
TORSDOF 6
