REMARK  Name = ZINCkj000005jkQG.0
REMARK                            x       y       z     vdW  Elec       q    Type
REMARK                         _______ _______ _______ _____ _____    ______ ____
ROOT
ATOM      1  C   LIG    1       -9.811  -3.311   0.663  0.00  0.00    +0.110 C 
ATOM      2  C   LIG    1       -8.412  -2.721   0.846  0.00  0.00    +0.150 C 
ATOM      3  C   LIG    1       -8.185  -1.613  -0.188  0.00  0.00    +0.330 C 
ATOM      4  N   LIG    1       -6.792  -1.151  -0.079  0.00  0.00    -0.630 N 
ATOM      5  C   LIG    1       -5.723  -2.162  -0.096  0.00  0.00    +0.310 C 
ATOM      6  C   LIG    1       -6.067  -3.244   0.939  0.00  0.00    +0.270 C 
ATOM      7  C   LIG    1       -6.503   0.161   0.029  0.00  0.00    +0.580 C 
ATOM      8  O   LIG    1       -7.401   0.973   0.145  0.00  0.00    -0.500 OA
ATOM      9  N   LIG    1       -7.407  -3.775   0.661  0.00  0.00    -0.510 N 
ATOM     10  H   LIG    1       -7.444  -4.110  -0.290  0.00  0.00    +0.430 HD
ATOM     11  H   LIG    1       -7.602  -4.539   1.291  0.00  0.00    +0.430 HD
ENDROOT
BRANCH   7  12
ATOM     12  C   LIG    1       -5.098   0.612   0.007  0.00  0.00    -0.160 A 
ATOM     13  C   LIG    1       -4.676   1.631   0.864  0.00  0.00    +0.120 A 
ATOM     14  C   LIG    1       -3.364   2.049   0.840  0.00  0.00    +0.010 A 
ATOM     15  C   LIG    1       -2.460   1.458  -0.035  0.00  0.00    +0.180 A 
ATOM     16  C   LIG    1       -2.877   0.447  -0.894  0.00  0.00    +0.000 A 
ATOM     17  C   LIG    1       -4.186   0.020  -0.872  0.00  0.00    +0.070 A 
BRANCH  15  18
ATOM     18  N   LIG    1       -1.128   1.886  -0.057  0.00  0.00    -0.420 N 
ATOM     19  C   LIG    1       -0.129   1.401  -0.861  0.00  0.00    +0.120 A 
ATOM     20  C   LIG    1        0.985   2.094  -0.560  0.00  0.00    +0.170 A 
ATOM     21  N   LIG    1        0.682   2.976   0.405  0.00  0.00    -0.470 NA
ATOM     22  C   LIG    1       -0.579   2.859   0.717  0.00  0.00    +0.410 A 
ENDBRANCH  15  18
ENDBRANCH   7  12
TORSDOF 2
