REMARK  Name = ZINCqH0000000sNC.0
REMARK                            x       y       z     vdW  Elec       q    Type
REMARK                         _______ _______ _______ _____ _____    ______ ____
ROOT
ATOM      1  C   LIG    1        7.628  -1.735  -0.772  0.00  0.00    +0.510 C 
ATOM      2  N   LIG    1        7.122  -0.502  -0.971  0.00  0.00    -0.670 N 
ATOM      3  H   LIG    1        7.641   0.164  -1.448  0.00  0.00    +0.410 HD
ATOM      4  O   LIG    1        6.952  -2.591  -0.241  0.00  0.00    -0.510 OA
ENDROOT
BRANCH   2   5
ATOM      5  C   LIG    1        5.846  -0.182  -0.486  0.00  0.00    +0.110 A 
ATOM      6  C   LIG    1        4.906  -1.185  -0.291  0.00  0.00    +0.050 A 
ATOM      7  C   LIG    1        3.649  -0.870   0.186  0.00  0.00    -0.020 A 
ATOM      8  C   LIG    1        3.326   0.450   0.470  0.00  0.00    +0.100 A 
ATOM      9  C   LIG    1        4.264   1.454   0.269  0.00  0.00    -0.010 A 
ATOM     10  C   LIG    1        5.523   1.138  -0.202  0.00  0.00    -0.090 A 
ATOM     11  C   LIG    1        6.543   2.226  -0.414  0.00  0.00    +0.080 C 
BRANCH   8  12
ATOM     12  N   LIG    1        2.052   0.770   0.953  0.00  0.00    -0.480 N 
ATOM     13  C   LIG    1        1.429  -0.396   1.616  0.00  0.00    +0.190 C 
ATOM     14  C   LIG    1        0.582   0.208   2.763  0.00  0.00    +0.030 C 
ATOM     15  C   LIG    1        1.482   1.381   3.235  0.00  0.00    +0.010 C 
ATOM     16  C   LIG    1        2.118   1.881   1.921  0.00  0.00    +0.190 C 
ENDBRANCH   8  12
ENDBRANCH   2   5
BRANCH   1  17
ATOM     17  C   LIG    1        9.035  -2.052  -1.210  0.00  0.00    +0.120 C 
BRANCH  17  21
ATOM     18  C   LIG    1        9.942  -6.120  -0.263  0.00  0.00    +0.150 A 
ATOM     19  C   LIG    1        9.383  -5.799  -1.493  0.00  0.00    +0.010 A 
ATOM     20  C   LIG    1        9.091  -4.484  -1.796  0.00  0.00    +0.040 A 
ATOM     21  C   LIG    1        9.355  -3.486  -0.876  0.00  0.00    -0.090 A 
ATOM     22  C   LIG    1        9.917  -3.801   0.348  0.00  0.00    +0.040 A 
ATOM     23  C   LIG    1       10.206  -5.115   0.659  0.00  0.00    -0.020 A 
BRANCH  18  26
ATOM     24  C   LIG    1       10.682  -9.792  -0.618  0.00  0.00    +0.110 C 
ATOM     25  C   LIG    1       10.493  -8.332  -0.941  0.00  0.00    +0.510 C 
ATOM     26  N   LIG    1       10.239  -7.451   0.047  0.00  0.00    -0.670 N 
ATOM     27  H   LIG    1       10.264  -7.740   0.972  0.00  0.00    +0.410 HD
ATOM     28  O   LIG    1       10.568  -7.951  -2.090  0.00  0.00    -0.520 OA
ENDBRANCH  18  26
ENDBRANCH  17  21
ENDBRANCH   1  17
TORSDOF 5
