REMARK  Name = ZINCkj000005iIZk.0
REMARK                            x       y       z     vdW  Elec       q    Type
REMARK                         _______ _______ _______ _____ _____    ______ ____
ROOT
ATOM      1  S   LIG    1       -0.860   0.051   4.967  0.00  0.00    +2.710 S 
ATOM      2  O   LIG    1        0.364  -0.662   4.862  0.00  0.00    -0.950 OA
ATOM      3  O   LIG    1       -2.081  -0.554   5.369  0.00  0.00    -0.940 OA
ENDROOT
BRANCH   1   7
ATOM      4  C   LIG    1       -0.112   3.459   7.854  0.00  0.00    +0.190 A 
ATOM      5  C   LIG    1        0.923   2.602   7.507  0.00  0.00    -0.090 A 
ATOM      6  C   LIG    1        0.690   1.560   6.630  0.00  0.00    +0.170 A 
ATOM      7  C   LIG    1       -0.569   1.377   6.090  0.00  0.00    -0.730 A 
ATOM      8  C   LIG    1       -1.602   2.229   6.435  0.00  0.00    +0.060 A 
ATOM      9  C   LIG    1       -2.975   2.023   5.849  0.00  0.00    +0.110 C 
ATOM     10  C   LIG    1       -1.376   3.270   7.315  0.00  0.00    -0.040 A 
BRANCH   4  12
ATOM     11  C   LIG    1        1.439   4.616   9.235  0.00  0.00    +0.250 C 
ATOM     12  O   LIG    1        0.113   4.482   8.720  0.00  0.00    -0.310 OA
ENDBRANCH   4  12
ENDBRANCH   1   7
BRANCH   1  13
ATOM     13  N   LIG    1       -1.139   0.723   3.478  0.00  0.00    -1.010 NA
ATOM     14  C   LIG    1       -2.465   0.985   2.889  0.00  0.00    +0.290 C 
ATOM     15  C   LIG    1       -2.223   1.009   1.357  0.00  0.00    +0.050 C 
ATOM     16  C   LIG    1       -0.831   1.690   1.274  0.00  0.00    -0.100 C 
ATOM     17  C   LIG    1       -0.969   3.213   1.336  0.00  0.00    +0.070 C 
ATOM     18  C   LIG    1       -0.106   1.156   2.527  0.00  0.00    +0.300 C 
BRANCH  16  19
ATOM     19  C   LIG    1       -0.096   1.267   0.001  0.00  0.00    +0.280 C 
BRANCH  19  20
ATOM     20  N   LIG    1       -0.841   1.739  -1.174  0.00  0.00    -0.640 N 
ATOM     21  H   LIG    1       -1.766   1.336  -1.171  0.00  0.00    +0.430 HD
ATOM     22  H   LIG    1       -0.356   1.460  -2.014  0.00  0.00    +0.440 HD
ATOM     23  H   LIG    1       -0.912   2.745  -1.146  0.00  0.00    +0.430 HD
ENDBRANCH  19  20
ENDBRANCH  16  19
ENDBRANCH   1  13
TORSDOF 5
