REMARK  Name = ZINCkj00000dDyPQ.0
REMARK                            x       y       z     vdW  Elec       q    Type
REMARK                         _______ _______ _______ _____ _____    ______ ____
ROOT
ATOM      1  S   LIG    1       -0.288  -4.502   0.355  0.00  0.00    +2.700 S 
ATOM      2  O   LIG    1        1.096  -4.784   0.510  0.00  0.00    -0.950 OA
ATOM      3  O   LIG    1       -1.116  -5.166  -0.589  0.00  0.00    -0.950 OA
ENDROOT
BRANCH   1   7
ATOM      4  C   LIG    1       -0.595  -0.078  -0.562  0.00  0.00    +0.190 A 
ATOM      5  C   LIG    1       -1.258  -1.000  -1.358  0.00  0.00    -0.090 A 
ATOM      6  C   LIG    1       -1.158  -2.350  -1.080  0.00  0.00    +0.170 A 
ATOM      7  C   LIG    1       -0.407  -2.780  -0.002  0.00  0.00    -0.720 A 
ATOM      8  C   LIG    1        0.250  -1.863   0.797  0.00  0.00    +0.060 A 
ATOM      9  C   LIG    1        1.068  -2.336   1.971  0.00  0.00    +0.100 C 
ATOM     10  C   LIG    1        0.158  -0.513   0.519  0.00  0.00    -0.040 A 
BRANCH   4  12
ATOM     11  C   LIG    1       -1.481   1.625  -1.965  0.00  0.00    +0.250 C 
ATOM     12  O   LIG    1       -0.688   1.250  -0.837  0.00  0.00    -0.310 OA
ENDBRANCH   4  12
ENDBRANCH   1   7
BRANCH   1  13
ATOM     13  N   LIG    1       -0.983  -4.744   1.839  0.00  0.00    -1.000 NA
ATOM     14  C   LIG    1       -0.156  -4.803   3.052  0.00  0.00    +0.300 C 
ATOM     15  C   LIG    1       -0.465  -6.097   3.802  0.00  0.00    +0.010 C 
ATOM     16  C   LIG    1       -1.971  -6.187   4.062  0.00  0.00    -0.020 C 
ATOM     17  C   LIG    1       -2.720  -6.210   2.728  0.00  0.00    +0.040 C 
ATOM     18  C   LIG    1       -2.437  -4.911   1.966  0.00  0.00    +0.300 C 
BRANCH  16  19
ATOM     19  C   LIG    1       -2.278  -7.467   4.841  0.00  0.00    +0.270 C 
BRANCH  19  20
ATOM     20  N   LIG    1       -1.657  -7.393   6.170  0.00  0.00    -0.640 N 
ATOM     21  H   LIG    1       -2.026  -6.598   6.670  0.00  0.00    +0.440 HD
ATOM     22  H   LIG    1       -0.658  -7.292   6.069  0.00  0.00    +0.430 HD
ATOM     23  H   LIG    1       -1.859  -8.238   6.684  0.00  0.00    +0.440 HD
ENDBRANCH  19  20
ENDBRANCH  16  19
ENDBRANCH   1  13
TORSDOF 5
