REMARK  Name = ZINCpe00000JlkFL.0
REMARK                            x       y       z     vdW  Elec       q    Type
REMARK                         _______ _______ _______ _____ _____    ______ ____
ROOT
ATOM      1  O   LIG    1        0.089  -2.964   0.326  0.00  0.00    -0.520 OA
ATOM      2  C   LIG    1        1.223  -3.032   0.757  0.00  0.00    +0.560 C 
ATOM      3  N   LIG    1        1.927  -4.173   0.624  0.00  0.00    -0.710 N 
ATOM      4  H   LIG    1        2.832  -4.228   0.968  0.00  0.00    +0.400 HD
ENDROOT
BRANCH   2   5
ATOM      5  C   LIG    1        1.833  -1.858   1.429  0.00  0.00    +0.010 A 
ATOM      6  C   LIG    1        1.117  -0.663   1.577  0.00  0.00    -0.100 A 
ATOM      7  C   LIG    1       -0.166  -0.203   1.229  0.00  0.00    -0.080 A 
ATOM      8  C   LIG    1       -0.248   1.085   1.665  0.00  0.00    +0.230 A 
ATOM      9  N   LIG    1        0.886   1.459   2.257  0.00  0.00    -0.540 NA
ATOM     10  C   LIG    1        1.766   0.473   2.252  0.00  0.00    +0.250 A 
ATOM     11  N   LIG    1        3.043   0.320   2.710  0.00  0.00    -0.480 N 
ATOM     12  H   LIG    1        3.484   1.060   3.158  0.00  0.00    +0.430 HD
ATOM     13  C   LIG    1        3.696  -0.840   2.550  0.00  0.00    +0.310 A 
ATOM     14  C   LIG    1        3.137  -1.917   1.933  0.00  0.00    -0.040 A 
ENDBRANCH   2   5
BRANCH   3  15
ATOM     15  C   LIG    1        1.325  -5.332  -0.040  0.00  0.00    +0.280 C 
BRANCH  15  16
ATOM     16  C   LIG    1        2.369  -6.443  -0.173  0.00  0.00    +0.220 C 
ATOM     17  C   LIG    1        1.857  -7.689  -0.918  0.00  0.00    +0.050 C 
ATOM     18  C   LIG    1        3.224  -7.702  -1.628  0.00  0.00    +0.280 C 
ATOM     19  N   LIG    1        3.291  -6.260  -1.310  0.00  0.00    -0.650 N 
ATOM     20  C   LIG    1        3.934  -5.203  -1.844  0.00  0.00    +0.530 C 
ATOM     21  O   LIG    1        3.869  -4.118  -1.305  0.00  0.00    -0.510 OA
BRANCH  20  22
ATOM     22  C   LIG    1        4.734  -5.368  -3.111  0.00  0.00    +0.160 C 
BRANCH  22  23
ATOM     23  C   LIG    1        5.348  -4.046  -3.494  0.00  0.00    -0.010 A 
ATOM     24  C   LIG    1        6.510  -3.539  -3.039  0.00  0.00    +0.170 A 
ATOM     25  N   LIG    1        6.698  -2.346  -3.623  0.00  0.00    -0.490 NA
ATOM     26  C   LIG    1        5.697  -2.095  -4.421  0.00  0.00    +0.400 A 
ATOM     27  N   LIG    1        4.834  -3.132  -4.374  0.00  0.00    -0.560 N 
ATOM     28  H   LIG    1        4.005  -3.214  -4.870  0.00  0.00    +0.420 HD
ENDBRANCH  22  23
ENDBRANCH  20  22
ENDBRANCH  15  16
ENDBRANCH   3  15
TORSDOF 5
