REMARK  Name = ZINCpe00000JlkFL.1
REMARK                            x       y       z     vdW  Elec       q    Type
REMARK                         _______ _______ _______ _____ _____    ______ ____
ROOT
ATOM      1  O   LIG    1       -2.080   3.687  -3.058  0.00  0.00    -0.530 OA
ATOM      2  C   LIG    1       -1.560   4.254  -2.117  0.00  0.00    +0.560 C 
ATOM      3  N   LIG    1       -0.906   3.541  -1.178  0.00  0.00    -0.710 N 
ATOM      4  H   LIG    1       -0.490   3.993  -0.427  0.00  0.00    +0.400 HD
ENDROOT
BRANCH   2   5
ATOM      5  C   LIG    1       -1.643   5.724  -2.003  0.00  0.00    -0.040 A 
ATOM      6  C   LIG    1       -2.319   6.493  -2.970  0.00  0.00    -0.100 A 
ATOM      7  C   LIG    1       -3.043   6.181  -4.198  0.00  0.00    -0.020 A 
ATOM      8  C   LIG    1       -3.476   7.350  -4.703  0.00  0.00    +0.240 A 
ATOM      9  N   LIG    1       -3.086   8.381  -3.895  0.00  0.00    -0.580 N 
ATOM     10  H   LIG    1       -3.281   9.318  -4.054  0.00  0.00    +0.420 HD
ATOM     11  C   LIG    1       -2.374   7.894  -2.823  0.00  0.00    +0.280 A 
ATOM     12  N   LIG    1       -1.794   8.472  -1.783  0.00  0.00    -0.480 NA
ATOM     13  C   LIG    1       -1.155   7.779  -0.864  0.00  0.00    +0.300 A 
ATOM     14  C   LIG    1       -1.058   6.400  -0.929  0.00  0.00    -0.020 A 
ENDBRANCH   2   5
BRANCH   3  15
ATOM     15  C   LIG    1       -0.824   2.083  -1.291  0.00  0.00    +0.280 C 
BRANCH  15  16
ATOM     16  C   LIG    1       -0.140   1.512  -0.047  0.00  0.00    +0.220 C 
ATOM     17  C   LIG    1        0.052  -0.015  -0.089  0.00  0.00    +0.050 C 
ATOM     18  C   LIG    1        1.453   0.246   0.494  0.00  0.00    +0.280 C 
ATOM     19  N   LIG    1        1.333   1.598  -0.086  0.00  0.00    -0.650 N 
ATOM     20  C   LIG    1        2.214   2.534  -0.489  0.00  0.00    +0.530 C 
ATOM     21  O   LIG    1        1.820   3.621  -0.855  0.00  0.00    -0.520 OA
BRANCH  20  22
ATOM     22  C   LIG    1        3.691   2.231  -0.486  0.00  0.00    +0.160 C 
BRANCH  22  23
ATOM     23  C   LIG    1        4.452   3.435  -0.977  0.00  0.00    -0.010 A 
ATOM     24  C   LIG    1        4.709   3.754  -2.260  0.00  0.00    +0.170 A 
ATOM     25  N   LIG    1        5.407   4.898  -2.272  0.00  0.00    -0.490 NA
ATOM     26  C   LIG    1        5.601   5.297  -1.044  0.00  0.00    +0.400 A 
ATOM     27  N   LIG    1        5.021   4.412  -0.205  0.00  0.00    -0.560 N 
ATOM     28  H   LIG    1        5.009   4.459   0.764  0.00  0.00    +0.420 HD
ENDBRANCH  22  23
ENDBRANCH  20  22
ENDBRANCH  15  16
ENDBRANCH   3  15
TORSDOF 5
