REMARK  Name = ZINCpe00000yed0a.0
REMARK                            x       y       z     vdW  Elec       q    Type
REMARK                         _______ _______ _______ _____ _____    ______ ____
ROOT
ATOM      1  C   LIG    1       -1.226   2.021   0.167  0.00  0.00    +0.600 C 
ATOM      2  N   LIG    1       -0.243   1.575   0.975  0.00  0.00    -0.600 N 
ATOM      3  C   LIG    1       -0.468   0.434   1.875  0.00  0.00    +0.300 C 
ATOM      4  C   LIG    1        0.435  -0.730   1.448  0.00  0.00    +0.110 C 
ATOM      5  C   LIG    1        1.821  -0.198   1.181  0.00  0.00    +0.110 A 
ATOM      6  C   LIG    1        2.114   1.110   0.964  0.00  0.00    -0.250 A 
ATOM      7  C   LIG    1        3.485   1.217   0.750  0.00  0.00    +0.250 A 
ATOM      8  N   LIG    1        4.004   0.016   0.836  0.00  0.00    -0.290 NA
ATOM      9  N   LIG    1        2.970  -0.891   1.110  0.00  0.00    -0.360 N 
ATOM     10  C   LIG    1        3.116  -2.338   1.288  0.00  0.00    +0.360 C 
ATOM     11  C   LIG    1        1.084   2.215   0.972  0.00  0.00    +0.310 C 
ATOM     12  O   LIG    1       -1.067   3.038  -0.479  0.00  0.00    -0.510 OA
ENDROOT
BRANCH   1  15
ATOM     13  N   LIG    1       -4.630   0.798  -0.096  0.00  0.00    -0.360 N 
ATOM     14  C   LIG    1       -3.760   1.818  -0.021  0.00  0.00    +0.310 A 
ATOM     15  C   LIG    1       -2.494   1.274   0.068  0.00  0.00    -0.290 A 
ATOM     16  C   LIG    1       -2.641  -0.131   0.052  0.00  0.00    +0.270 A 
ATOM     17  N   LIG    1       -3.913  -0.402  -0.046  0.00  0.00    -0.290 NA
BRANCH  13  18
ATOM     18  C   LIG    1       -6.086   0.922  -0.207  0.00  0.00    +0.320 C 
BRANCH  18  20
ATOM     19  C   LIG    1       -8.092   0.274  -1.548  0.00  0.00    +0.030 C 
ATOM     20  C   LIG    1       -6.572   0.144  -1.432  0.00  0.00    +0.010 C 
ENDBRANCH  18  20
ENDBRANCH  13  18
ENDBRANCH   1  15
BRANCH  11  21
ATOM     21  C   LIG    1        1.240   3.069  -0.260  0.00  0.00    +0.540 C 
ATOM     22  N   LIG    1        1.656   4.346  -0.146  0.00  0.00    -0.620 N 
ATOM     23  C   LIG    1        2.058   4.872   1.161  0.00  0.00    +0.290 C 
ATOM     24  C   LIG    1        1.707   5.208  -1.330  0.00  0.00    +0.300 C 
ATOM     25  O   LIG    1        0.990   2.608  -1.353  0.00  0.00    -0.510 OA
ENDBRANCH  11  21
TORSDOF 4
