REMARK  Name = ZINCrH000004qMBs.0
REMARK                            x       y       z     vdW  Elec       q    Type
REMARK                         _______ _______ _______ _____ _____    ______ ____
ROOT
ATOM      1  N   LIG    1        0.999  -1.667  -3.131  0.00  0.00    -0.690 N 
ATOM      2  H   LIG    1        1.678  -1.020  -3.380  0.00  0.00    +0.410 HD
ATOM      3  C   LIG    1        0.606  -1.770  -1.846  0.00  0.00    +0.710 C 
ATOM      4  N   LIG    1        1.043  -0.880  -0.933  0.00  0.00    -0.620 N 
ATOM      5  C   LIG    1        0.551  -0.923   0.450  0.00  0.00    +0.300 C 
ATOM      6  C   LIG    1        0.010   0.460   0.825  0.00  0.00    +0.010 C 
ATOM      7  C   LIG    1        1.093   1.512   0.576  0.00  0.00    +0.030 C 
ATOM      8  C   LIG    1        1.463   1.524  -0.909  0.00  0.00    +0.030 C 
ATOM      9  C   LIG    1        2.021   0.152  -1.304  0.00  0.00    +0.280 C 
ATOM     10  O   LIG    1       -0.144  -2.667  -1.510  0.00  0.00    -0.570 OA
ENDROOT
BRANCH   8  11
ATOM     11  C   LIG    1        2.507   2.582  -1.159  0.00  0.00    -0.060 A 
ATOM     12  C   LIG    1        3.723   2.520  -0.505  0.00  0.00    +0.050 A 
ATOM     13  C   LIG    1        4.684   3.486  -0.737  0.00  0.00    +0.030 A 
ATOM     14  C   LIG    1        4.425   4.523  -1.617  0.00  0.00    +0.070 A 
ATOM     15  C   LIG    1        3.202   4.588  -2.269  0.00  0.00    +0.070 A 
ATOM     16  F   LIG    1        2.947   5.599  -3.128  0.00  0.00    -0.130 F 
ATOM     17  F   LIG    1        5.362   5.470  -1.840  0.00  0.00    -0.130 F 
ATOM     18  C   LIG    1        2.245   3.616  -2.038  0.00  0.00    +0.030 A 
ENDBRANCH   8  11
BRANCH   1  22
ATOM     19  C   LIG    1        1.465  -4.194  -7.322  0.00  0.00    +0.100 C 
ATOM     20  C   LIG    1        0.632  -3.736  -6.153  0.00  0.00    -0.070 A 
ATOM     21  C   LIG    1        1.189  -2.916  -5.190  0.00  0.00    +0.010 A 
ATOM     22  C   LIG    1        0.429  -2.493  -4.106  0.00  0.00    +0.160 A 
ATOM     23  C   LIG    1       -0.896  -2.885  -3.994  0.00  0.00    +0.050 A 
ATOM     24  C   LIG    1       -1.460  -3.708  -4.969  0.00  0.00    -0.120 A 
ATOM     25  C   LIG    1       -0.686  -4.131  -6.051  0.00  0.00    +0.060 A 
BRANCH  24  26
ATOM     26  C   LIG    1       -2.873  -4.130  -4.856  0.00  0.00    +0.570 C 
ATOM     27  O   LIG    1       -3.362  -4.847  -5.707  0.00  0.00    -0.540 OA
ATOM     28  N   LIG    1       -3.617  -3.720  -3.811  0.00  0.00    -0.850 N 
ATOM     29  H   LIG    1       -4.544  -3.998  -3.737  0.00  0.00    +0.410 HD
ATOM     30  H   LIG    1       -3.227  -3.148  -3.132  0.00  0.00    +0.400 HD
ENDBRANCH  24  26
ENDBRANCH   1  22
TORSDOF 3
