REMARK  Name = ZINCrg000000rE3i.0
REMARK                            x       y       z     vdW  Elec       q    Type
REMARK                         _______ _______ _______ _____ _____    ______ ____
ROOT
ATOM      1  C   LIG    1       -0.750   3.109   1.275  0.00  0.00    +0.020 C 
ATOM      2  C   LIG    1       -0.729   1.579   1.267  0.00  0.00    +0.260 C 
ENDROOT
BRANCH   2   3
ATOM      3  N   LIG    1       -0.020   1.094   2.454  0.00  0.00    -0.720 N 
ATOM      4  H   LIG    1        0.923   0.876   2.400  0.00  0.00    +0.400 HD
ATOM      5  C   LIG    1       -0.680   0.950   3.620  0.00  0.00    +0.520 C 
ATOM      6  O   LIG    1       -1.860   1.222   3.687  0.00  0.00    -0.530 OA
BRANCH   5   7
ATOM      7  C   LIG    1        0.049   0.451   4.841  0.00  0.00    +0.050 C 
BRANCH   7   8
ATOM      8  C   LIG    1       -0.922   0.380   6.021  0.00  0.00    +0.370 C 
BRANCH   8   9
ATOM      9  N   LIG    1       -0.213  -0.106   7.208  0.00  0.00    -0.350 N 
ATOM     10  C   LIG    1       -0.151   0.515   8.405  0.00  0.00    +0.370 A 
ATOM     11  C   LIG    1        0.595  -0.255   9.230  0.00  0.00    -0.190 A 
ATOM     12  C   LIG    1        1.003  -1.385   8.514  0.00  0.00    +0.330 A 
ATOM     13  N   LIG    1        0.514  -1.299   7.303  0.00  0.00    -0.270 NA
BRANCH  11  14
ATOM     14  N   LIG    1        0.922   0.046  10.642  0.00  0.00    +0.070 N 
ATOM     15  O   LIG    1        1.607  -0.728  11.287  0.00  0.00    -0.160 OA
ATOM     16  O   LIG    1        0.507   1.067  11.159  0.00  0.00    -0.170 OA
ENDBRANCH  11  14
ENDBRANCH   8   9
ENDBRANCH   7   8
ENDBRANCH   5   7
ENDBRANCH   2   3
BRANCH   2  17
ATOM     17  C   LIG    1       -0.013   1.086   0.008  0.00  0.00    -0.010 C 
ATOM     18  C   LIG    1        1.423   1.615  -0.003  0.00  0.00    +0.060 C 
BRANCH  17  19
ATOM     19  C   LIG    1       -0.742   1.585  -1.213  0.00  0.00    +0.510 C 
ATOM     20  N   LIG    1       -0.288   1.272  -2.443  0.00  0.00    -0.660 N 
ATOM     21  H   LIG    1        0.507   0.726  -2.543  0.00  0.00    +0.420 HD
ATOM     22  O   LIG    1       -1.736   2.268  -1.088  0.00  0.00    -0.460 OA
BRANCH  20  23
ATOM     23  C   LIG    1       -0.964   1.735  -3.574  0.00  0.00    +0.340 A 
ATOM     24  N   LIG    1       -2.047   2.479  -3.432  0.00  0.00    -0.460 NA
ATOM     25  C   LIG    1       -2.715   2.937  -4.474  0.00  0.00    +0.290 A 
ATOM     26  C   LIG    1       -2.304   2.654  -5.761  0.00  0.00    -0.050 A 
ATOM     27  C   LIG    1       -1.172   1.876  -5.958  0.00  0.00    +0.080 A 
ATOM     28  C   LIG    1       -0.486   1.412  -4.845  0.00  0.00    +0.020 A 
BRANCH  28  29
ATOM     29  O   LIG    1        0.631   0.651  -4.989  0.00  0.00    -0.490 OA
ATOM     30  H   LIG    1        0.457  -0.299  -5.033  0.00  0.00    +0.390 HD
ENDBRANCH  28  29
ENDBRANCH  20  23
ENDBRANCH  17  19
ENDBRANCH   2  17
TORSDOF 9
