REMARK  Name = ZINCqH00000088Ma.0
REMARK                            x       y       z     vdW  Elec       q    Type
REMARK                         _______ _______ _______ _____ _____    ______ ____
ROOT
ATOM      1  N   LIG    1        1.143   1.898   0.001  0.00  0.00    -0.670 N 
ATOM      2  H   LIG    1        1.054   2.737  -0.477  0.00  0.00    +0.420 HD
ATOM      3  C   LIG    1        0.068   1.343   0.594  0.00  0.00    +0.520 C 
ATOM      4  O   LIG    1        0.160   0.254   1.120  0.00  0.00    -0.480 OA
ENDROOT
BRANCH   1   9
ATOM      5  C   LIG    1        4.781   1.389   0.239  0.00  0.00    +0.140 A 
ATOM      6  C   LIG    1        4.851   0.002   0.223  0.00  0.00    +0.020 A 
ATOM      7  C   LIG    1        3.694  -0.749   0.135  0.00  0.00    +0.080 A 
ATOM      8  C   LIG    1        2.465  -0.123   0.062  0.00  0.00    +0.050 A 
ATOM      9  C   LIG    1        2.389   1.265   0.076  0.00  0.00    +0.160 A 
ATOM     10  C   LIG    1        3.549   2.021   0.159  0.00  0.00    +0.020 A 
BRANCH   5  15
ATOM     11  C   LIG    1        7.087   1.848   1.025  0.00  0.00    +0.220 A 
ATOM     12  N   LIG    1        7.934   2.836   0.826  0.00  0.00    -0.330 NA
ATOM     13  N   LIG    1        7.413   3.730   0.067  0.00  0.00    -0.020 NA
ATOM     14  N   LIG    1        6.218   3.391  -0.278  0.00  0.00    -0.070 NA
ATOM     15  N   LIG    1        5.956   2.149   0.328  0.00  0.00    -0.320 N 
BRANCH  11  17
ATOM     16  C   LIG    1        9.048   0.741   2.579  0.00  0.00    +0.160 C 
ATOM     17  S   LIG    1        7.364   0.409   2.003  0.00  0.00    +0.050 S 
ENDBRANCH  11  17
ENDBRANCH   5  15
ENDBRANCH   1   9
BRANCH   3  18
ATOM     18  C   LIG    1       -1.251   2.072   0.597  0.00  0.00    +0.240 C 
BRANCH  18  19
ATOM     19  O   LIG    1       -2.230   1.282   1.275  0.00  0.00    -0.270 OA
BRANCH  19  20
ATOM     20  C   LIG    1       -3.484   1.800   1.368  0.00  0.00    +0.140 A 
ATOM     21  C   LIG    1       -3.764   3.044   0.823  0.00  0.00    -0.040 A 
ATOM     22  C   LIG    1       -5.040   3.566   0.913  0.00  0.00    +0.090 A 
ATOM     23  C   LIG    1       -6.036   2.853   1.557  0.00  0.00    -0.060 A 
ATOM     24  C   LIG    1       -5.758   1.614   2.106  0.00  0.00    +0.090 A 
ATOM     25 CL   LIG    1       -7.637   3.515   1.675  0.00  0.00    -0.050 Cl
ATOM     26  C   LIG    1       -4.485   1.086   2.013  0.00  0.00    -0.060 A 
ATOM     27 CL   LIG    1       -4.136  -0.469   2.703  0.00  0.00    -0.030 Cl
ENDBRANCH  19  20
ENDBRANCH  18  19
ENDBRANCH   3  18
TORSDOF 6
