REMARK  Name = ZINCqH0000037DI5.0
REMARK                            x       y       z     vdW  Elec       q    Type
REMARK                         _______ _______ _______ _____ _____    ______ ____
ROOT
ATOM      1  C   LIG    1       -4.069   1.642  -3.999  0.00  0.00    +0.100 C 
ATOM      2  C   LIG    1       -4.924   1.129  -2.870  0.00  0.00    -0.120 A 
ATOM      3  C   LIG    1       -4.406   1.050  -1.585  0.00  0.00    +0.220 A 
ATOM      4  C   LIG    1       -5.198   0.582  -0.545  0.00  0.00    -0.020 A 
ATOM      5  C   LIG    1       -6.500   0.189  -0.788  0.00  0.00    +0.040 A 
ATOM      6  C   LIG    1       -7.019   0.261  -2.068  0.00  0.00    +0.050 A 
ATOM      7  F   LIG    1       -8.292  -0.123  -2.304  0.00  0.00    -0.140 F 
ATOM      8  C   LIG    1       -6.230   0.730  -3.114  0.00  0.00    +0.180 A 
ENDROOT
BRANCH   8   9
ATOM      9  N   LIG    1       -6.756   0.804  -4.410  0.00  0.00    -0.590 N 
ATOM     10  C   LIG    1       -7.452   1.966  -4.982  0.00  0.00    +0.270 C 
ATOM     11  C   LIG    1       -7.812   1.514  -6.411  0.00  0.00    +0.270 C 
ATOM     12  N   LIG    1       -7.280   0.145  -6.492  0.00  0.00    -0.740 N 
ATOM     13  H   LIG    1       -7.338  -0.435  -7.267  0.00  0.00    +0.430 HD
ATOM     14  C   LIG    1       -6.699  -0.171  -5.327  0.00  0.00    +0.710 C 
ATOM     15  O   LIG    1       -6.170  -1.246  -5.120  0.00  0.00    -0.570 OA
ENDBRANCH   8   9
BRANCH   3  16
ATOM     16  N   LIG    1       -3.088   1.448  -1.337  0.00  0.00    -0.740 N 
ATOM     17  H   LIG    1       -2.535   1.775  -2.064  0.00  0.00    +0.400 HD
BRANCH  16  18
ATOM     18  C   LIG    1       -2.543   1.371   0.020  0.00  0.00    +0.340 C 
BRANCH  18  19
ATOM     19  C   LIG    1       -1.116   1.854   0.017  0.00  0.00    -0.250 A 
ATOM     20  C   LIG    1       -0.013   1.076   0.008  0.00  0.00    +0.270 A 
ATOM     21  N   LIG    1        1.069   1.884   0.002  0.00  0.00    -0.470 N 
ATOM     22  H   LIG    1        1.995   1.595  -0.008  0.00  0.00    +0.450 HD
ATOM     23  N   LIG    1        0.623   3.212   0.013  0.00  0.00    -0.270 NA
ATOM     24  C   LIG    1       -0.695   3.200   0.025  0.00  0.00    +0.160 A 
BRANCH  24  25
ATOM     25  C   LIG    1       -1.576   4.388   0.038  0.00  0.00    -0.130 A 
ATOM     26  C   LIG    1       -1.310   5.547   0.673  0.00  0.00    +0.040 A 
ATOM     27  C   LIG    1       -2.286   6.514   0.541  0.00  0.00    +0.000 A 
ATOM     28  C   LIG    1       -3.342   6.155  -0.194  0.00  0.00    -0.050 A 
ATOM     29  S   LIG    1       -3.130   4.510  -0.777  0.00  0.00    +0.160 S 
ENDBRANCH  24  25
ENDBRANCH  18  19
ENDBRANCH  16  18
ENDBRANCH   3  16
TORSDOF 5
