REMARK  Name = ZINCAx0000000gYY.0
REMARK                            x       y       z     vdW  Elec       q    Type
REMARK                         _______ _______ _______ _____ _____    ______ ____
ROOT
ATOM      1  O   LIG    1       -0.206   4.014   0.159  0.00  0.00    -0.500 OA
ATOM      2  C   LIG    1       -1.251   3.397   0.152  0.00  0.00    +0.520 C 
ATOM      3  N   LIG    1       -1.239   2.054   0.049  0.00  0.00    -0.670 N 
ATOM      4  H   LIG    1       -2.074   1.566  -0.034  0.00  0.00    +0.420 HD
ENDROOT
BRANCH   2   5
ATOM      5  C   LIG    1       -2.561   4.134   0.258  0.00  0.00    +0.020 C 
ATOM      6  C   LIG    1       -3.299   3.765   1.566  0.00  0.00    +0.100 C 
ATOM      7  C   LIG    1       -2.865   4.831   2.549  0.00  0.00    +0.510 C 
ATOM      8  N   LIG    1       -2.321   5.871   1.893  0.00  0.00    -0.550 N 
ATOM      9  O   LIG    1       -2.989   4.758   3.753  0.00  0.00    -0.500 OA
ATOM     10  C   LIG    1       -2.330   5.650   0.442  0.00  0.00    +0.320 C 
BRANCH   8  11
ATOM     11  C   LIG    1       -1.813   7.019   2.514  0.00  0.00    +0.170 A 
ATOM     12  C   LIG    1       -1.381   8.092   1.746  0.00  0.00    -0.010 A 
ATOM     13  C   LIG    1       -0.878   9.223   2.358  0.00  0.00    +0.060 A 
ATOM     14  C   LIG    1       -0.802   9.292   3.741  0.00  0.00    +0.030 A 
ATOM     15  O   LIG    1       -0.296  10.412   4.327  0.00  0.00    -0.310 OA
ATOM     16  C   LIG    1       -0.580  10.596   5.718  0.00  0.00    +0.220 C 
ATOM     17  C   LIG    1       -0.320   9.268   6.442  0.00  0.00    +0.220 C 
ATOM     18  O   LIG    1       -1.177   8.272   5.873  0.00  0.00    -0.300 OA
ATOM     19  C   LIG    1       -1.237   8.220   4.514  0.00  0.00    +0.080 A 
ATOM     20  C   LIG    1       -1.746   7.087   3.899  0.00  0.00    +0.020 A 
ENDBRANCH   8  11
ENDBRANCH   2   5
BRANCH   3  21
ATOM     21  C   LIG    1       -0.023   1.361   0.063  0.00  0.00    +0.200 A 
ATOM     22  C   LIG    1        0.121   0.194  -0.675  0.00  0.00    -0.030 A 
ATOM     23  C   LIG    1        1.320  -0.491  -0.655  0.00  0.00    +0.190 A 
ATOM     24  C   LIG    1        2.377  -0.014   0.098  0.00  0.00    -0.690 A 
ATOM     25  C   LIG    1        2.237   1.149   0.834  0.00  0.00    +0.140 A 
ATOM     26  C   LIG    1        1.040   1.837   0.818  0.00  0.00    -0.010 A 
BRANCH  24  27
ATOM     27  S   LIG    1        3.906  -0.890   0.121  0.00  0.00    +2.690 S 
ATOM     28  O   LIG    1        4.905   0.056   0.476  0.00  0.00    -0.950 OA
ATOM     29  O   LIG    1        3.949  -1.653  -1.077  0.00  0.00    -0.930 OA
BRANCH  27  30
ATOM     30  N   LIG    1        3.829  -1.978   1.367  0.00  0.00    -1.030 N 
ATOM     31  H   LIG    1        4.425  -1.889   2.127  0.00  0.00    +0.430 HD
BRANCH  30  32
ATOM     32  C   LIG    1        2.923  -3.005   1.325  0.00  0.00    +0.400 C 
ATOM     33  N   LIG    1        2.139  -3.119   0.321  0.00  0.00    -0.580 NA
ATOM     34  C   LIG    1        1.161  -4.216   0.256  0.00  0.00    +0.220 C 
ATOM     35  C   LIG    1        0.037  -3.934   1.255  0.00  0.00    +0.010 C 
ATOM     36  C   LIG    1        0.399  -4.462   2.634  0.00  0.00    +0.000 C 
ATOM     37  C   LIG    1        1.577  -3.737   3.264  0.00  0.00    +0.040 C 
ATOM     38  C   LIG    1        2.861  -4.000   2.463  0.00  0.00    +0.070 C 
ENDBRANCH  30  32
ENDBRANCH  27  30
ENDBRANCH  24  27
ENDBRANCH   3  21
TORSDOF 6
