REMARK  Name = ZINCkj000005hoWq.1
REMARK                            x       y       z     vdW  Elec       q    Type
REMARK                         _______ _______ _______ _____ _____    ______ ____
ROOT
ATOM      1  N   LIG    1       -0.018   1.462   0.010  0.00  0.00    -0.650 N 
ATOM      2  C   LIG    1        1.260   2.139   0.285  0.00  0.00    +0.280 C 
ATOM      3  C   LIG    1        1.999   1.394   1.399  0.00  0.00    +0.020 C 
ATOM      4  C   LIG    1        2.125  -0.091   1.040  0.00  0.00    +0.050 C 
ATOM      5  C   LIG    1        0.727  -0.683   0.880  0.00  0.00    -0.030 C 
ATOM      6  C   LIG    1        0.786  -2.179   0.581  0.00  0.00    +0.270 C 
ATOM      7  N   LIG    1       -0.585  -2.698   0.470  0.00  0.00    -0.380 N 
ATOM      8  C   LIG    1       -1.288  -2.058  -0.646  0.00  0.00    +0.270 C 
ATOM      9  C   LIG    1       -1.394  -0.548  -0.409  0.00  0.00    +0.060 C 
ATOM     10  C   LIG    1       -1.308  -2.426   1.719  0.00  0.00    +0.320 C 
ATOM     11  H   LIG    1       -0.551  -3.695   0.315  0.00  0.00    +0.430 HD
ATOM     12  C   LIG    1        0.017   0.025  -0.280  0.00  0.00    +0.250 C 
ENDROOT
BRANCH   1  17
ATOM     13  C   LIG    1       -4.859   4.252   0.099  0.00  0.00    +0.370 C 
ATOM     14  N   LIG    1       -3.584   3.531   0.059  0.00  0.00    -0.410 N 
ATOM     15  N   LIG    1       -3.299   2.572   1.036  0.00  0.00    -0.190 NA
ATOM     16  C   LIG    1       -2.174   1.915   1.024  0.00  0.00    +0.250 A 
ATOM     17  C   LIG    1       -1.213   2.160   0.020  0.00  0.00    +0.210 A 
ATOM     18  C   LIG    1       -1.475   3.109  -0.952  0.00  0.00    -0.120 A 
ATOM     19 CL   LIG    1       -0.311   3.439  -2.197  0.00  0.00    +0.010 Cl
ATOM     20  C   LIG    1       -2.697   3.797  -0.920  0.00  0.00    +0.510 A 
ATOM     21  O   LIG    1       -2.952   4.636  -1.770  0.00  0.00    -0.500 OA
ENDBRANCH   1  17
TORSDOF 1
