REMARK  Name = ZINCkj000005hoWq.0
REMARK                            x       y       z     vdW  Elec       q    Type
REMARK                         _______ _______ _______ _____ _____    ______ ____
ROOT
ATOM      1  N   LIG    1       -4.231   0.849   0.087  0.00  0.00    -0.650 N 
ATOM      2  C   LIG    1       -4.897   0.866   1.400  0.00  0.00    +0.280 C 
ATOM      3  C   LIG    1       -3.888   0.483   2.485  0.00  0.00    +0.020 C 
ATOM      4  C   LIG    1       -2.648   1.377   2.385  0.00  0.00    +0.050 C 
ATOM      5  C   LIG    1       -2.008   1.185   1.012  0.00  0.00    -0.030 C 
ATOM      6  C   LIG    1       -0.729   2.008   0.873  0.00  0.00    +0.270 C 
ATOM      7  N   LIG    1       -0.142   1.758  -0.452  0.00  0.00    -0.390 N 
ATOM      8  C   LIG    1       -1.059   2.195  -1.510  0.00  0.00    +0.270 C 
ATOM      9  C   LIG    1       -2.368   1.402  -1.438  0.00  0.00    +0.060 C 
ATOM     10  C   LIG    1        1.121   2.498  -0.569  0.00  0.00    +0.330 C 
ATOM     11  H   LIG    1        0.039   0.771  -0.555  0.00  0.00    +0.420 HD
ATOM     12  C   LIG    1       -3.002   1.632  -0.067  0.00  0.00    +0.250 C 
ENDROOT
BRANCH   1  17
ATOM     13  C   LIG    1       -6.274  -2.145  -4.167  0.00  0.00    +0.370 C 
ATOM     14  N   LIG    1       -5.755  -1.348  -3.053  0.00  0.00    -0.410 N 
ATOM     15  N   LIG    1       -4.548  -1.708  -2.445  0.00  0.00    -0.190 NA
ATOM     16  C   LIG    1       -4.059  -1.014  -1.456  0.00  0.00    +0.250 A 
ATOM     17  C   LIG    1       -4.749   0.116  -0.967  0.00  0.00    +0.210 A 
ATOM     18  C   LIG    1       -5.945   0.488  -1.555  0.00  0.00    -0.120 A 
ATOM     19 CL   LIG    1       -6.814   1.877  -0.980  0.00  0.00    +0.000 Cl
ATOM     20  C   LIG    1       -6.444  -0.273  -2.622  0.00  0.00    +0.510 A 
ATOM     21  O   LIG    1       -7.498   0.036  -3.157  0.00  0.00    -0.500 OA
ENDBRANCH   1  17
TORSDOF 1
