REMARK  Name = ZINCrH000004qXK6.0
REMARK                            x       y       z     vdW  Elec       q    Type
REMARK                         _______ _______ _______ _____ _____    ______ ____
ROOT
ATOM      1  C   LIG    1        5.576   6.598  -1.254  0.00  0.00    +0.080 C 
ATOM      2  C   LIG    1        4.493   5.785  -0.594  0.00  0.00    -0.110 A 
ATOM      3  C   LIG    1        4.570   4.405  -0.595  0.00  0.00    +0.030 A 
ATOM      4  C   LIG    1        3.584   3.654   0.013  0.00  0.00    +0.010 A 
ATOM      5  C   LIG    1        2.501   4.287   0.620  0.00  0.00    -0.040 A 
ATOM      6  C   LIG    1        2.422   5.677   0.621  0.00  0.00    +0.050 A 
ATOM      7  C   LIG    1        3.419   6.424   0.013  0.00  0.00    +0.170 A 
ENDROOT
BRANCH   7   8
ATOM      8  N   LIG    1        3.344   7.822   0.012  0.00  0.00    -0.680 N 
ATOM      9  H   LIG    1        4.155   8.351   0.074  0.00  0.00    +0.410 HD
ATOM     10  C   LIG    1        2.146   8.432  -0.077  0.00  0.00    +0.720 C 
ATOM     11  N   LIG    1        2.079   9.781  -0.172  0.00  0.00    -0.620 N 
ATOM     12  C   LIG    1        3.304  10.562  -0.201  0.00  0.00    +0.260 C 
ATOM     13  C   LIG    1        3.812  11.027   1.135  0.00  0.00    +0.010 C 
ATOM     14  C   LIG    1        3.016  12.089   1.845  0.00  0.00    -0.250 C 
ATOM     15  C   LIG    1        2.719  13.209   0.814  0.00  0.00    +0.040 C 
ATOM     16  C   LIG    1        1.538  12.835  -0.070  0.00  0.00    +0.040 C 
ATOM     17  C   LIG    1        0.664  11.735   0.531  0.00  0.00    -0.270 C 
ATOM     18  S   LIG    1        1.343  11.429   2.204  0.00  0.00    +1.230 S 
ATOM     19  O   LIG    1        1.412  10.037   2.460  0.00  0.00    -0.820 OA
ATOM     20  C   LIG    1        0.756  10.448  -0.270  0.00  0.00    +0.310 C 
ATOM     21  O   LIG    1        1.125   7.771  -0.072  0.00  0.00    -0.560 OA
ENDBRANCH   7   8
BRANCH   5  22
ATOM     22  C   LIG    1        1.437   3.481   1.269  0.00  0.00    -0.060 A 
ATOM     23  C   LIG    1        0.353   4.104   1.884  0.00  0.00    +0.270 A 
ATOM     24  N   LIG    1       -0.592   3.391   2.462  0.00  0.00    -0.450 NA
ATOM     25  C   LIG    1       -0.558   2.072   2.478  0.00  0.00    +0.240 A 
ATOM     26  C   LIG    1        0.488   1.378   1.893  0.00  0.00    +0.050 A 
ATOM     27  F   LIG    1        0.513   0.028   1.922  0.00  0.00    -0.130 F 
ATOM     28  C   LIG    1        1.507   2.085   1.273  0.00  0.00    +0.040 A 
ENDBRANCH   5  22
TORSDOF 2
