REMARK  Name = ZINCpk00000KfLld.0
REMARK                            x       y       z     vdW  Elec       q    Type
REMARK                         _______ _______ _______ _____ _____    ______ ____
ROOT
ATOM      1  N   LIG    1        2.445   1.316  -0.014  0.00  0.00    -0.660 N 
ATOM      2  H   LIG    1        2.460   0.348   0.056  0.00  0.00    +0.430 HD
ATOM      3  C   LIG    1        1.269   1.974  -0.002  0.00  0.00    +0.510 C 
ATOM      4  O   LIG    1        1.252   3.187   0.011  0.00  0.00    -0.480 OA
ENDROOT
BRANCH   1  11
ATOM      5  C   LIG    1        4.825   1.481   0.355  0.00  0.00    -0.680 A 
ATOM      6  C   LIG    1        6.007   2.186   0.242  0.00  0.00    +0.170 A 
ATOM      7  C   LIG    1        6.014   3.436  -0.351  0.00  0.00    +0.020 A 
ATOM      8  C   LIG    1        4.838   3.983  -0.832  0.00  0.00    -0.020 A 
ATOM      9  C   LIG    1        3.653   3.280  -0.727  0.00  0.00    +0.050 A 
ATOM     10 BR   LIG    1        4.854   5.692  -1.641  0.00  0.00    -0.020 Br
ATOM     11  C   LIG    1        3.642   2.027  -0.127  0.00  0.00    +0.240 A 
BRANCH   5  13
ATOM     12  C   LIG    1        3.817   0.102   2.607  0.00  0.00    -0.240 C 
ATOM     13  S   LIG    1        4.818  -0.112   1.109  0.00  0.00    +2.490 S 
ATOM     14  O   LIG    1        6.178  -0.346   1.447  0.00  0.00    -0.920 OA
ATOM     15  O   LIG    1        4.143  -0.940   0.172  0.00  0.00    -0.930 OA
ENDBRANCH   5  13
ENDBRANCH   1  11
BRANCH   3  16
ATOM     16  C   LIG    1       -0.015   1.209  -0.006  0.00  0.00    +0.510 C 
ATOM     17  N   LIG    1       -1.191   1.867   0.001  0.00  0.00    -0.690 N 
ATOM     18  H   LIG    1       -1.204   2.837   0.011  0.00  0.00    +0.410 HD
ATOM     19  O   LIG    1        0.002  -0.004  -0.019  0.00  0.00    -0.500 OA
BRANCH  17  20
ATOM     20  C   LIG    1       -2.449   1.117  -0.009  0.00  0.00    +0.250 C 
ATOM     21  C   LIG    1       -2.822   0.764  -1.450  0.00  0.00    +0.010 C 
ATOM     22  C   LIG    1       -4.136  -0.019  -1.460  0.00  0.00    +0.020 C 
ATOM     23  C   LIG    1       -5.244   0.836  -0.842  0.00  0.00    +0.010 C 
ATOM     24  C   LIG    1       -4.872   1.189   0.599  0.00  0.00    +0.030 C 
ATOM     25  C   LIG    1       -3.557   1.972   0.609  0.00  0.00    +0.000 C 
BRANCH  25  26
ATOM     26  C   LIG    1       -3.185   2.325   2.051  0.00  0.00    +0.180 C 
BRANCH  26  27
ATOM     27  O   LIG    1       -4.161   3.218   2.590  0.00  0.00    -0.570 OA
ATOM     28  H   LIG    1       -3.988   3.485   3.503  0.00  0.00    +0.380 HD
ENDBRANCH  26  27
ENDBRANCH  25  26
ENDBRANCH  17  20
ENDBRANCH   3  16
TORSDOF 6
