REMARK  Name = ZINCrH00000ypXK0.0
REMARK                            x       y       z     vdW  Elec       q    Type
REMARK                         _______ _______ _______ _____ _____    ______ ____
ROOT
ATOM      1  C   LIG    1       -0.582   1.353  -0.749  0.00  0.00    +0.180 C 
ENDROOT
BRANCH   1   2
ATOM      2  N   LIG    1       -0.701   2.801  -0.530  0.00  0.00    -0.510 NA
ATOM      3  C   LIG    1        0.390   3.296   0.324  0.00  0.00    +0.200 C 
ATOM      4  C   LIG    1        0.436   4.821   0.218  0.00  0.00    +0.130 C 
ATOM      5  C   LIG    1       -0.939   5.393   0.449  0.00  0.00    +0.100 A 
ATOM      6  N   LIG    1       -1.048   6.684   0.730  0.00  0.00    -0.440 NA
ATOM      7  C   LIG    1       -2.234   7.226   0.930  0.00  0.00    +0.220 A 
ATOM      8  C   LIG    1       -3.371   6.442   0.846  0.00  0.00    +0.220 A 
ATOM      9  N   LIG    1       -3.264   5.156   0.569  0.00  0.00    -0.440 NA
ATOM     10  C   LIG    1       -2.072   4.610   0.369  0.00  0.00    +0.080 A 
ATOM     11  C   LIG    1       -2.001   3.138   0.059  0.00  0.00    +0.280 C 
ENDBRANCH   1   2
BRANCH   1  12
ATOM     12  C   LIG    1        0.324   1.095  -1.925  0.00  0.00    +0.520 C 
ATOM     13  N   LIG    1        0.203  -0.046  -2.631  0.00  0.00    -0.680 N 
ATOM     14  H   LIG    1       -0.500  -0.678  -2.416  0.00  0.00    +0.410 HD
ATOM     15  O   LIG    1        1.161   1.916  -2.237  0.00  0.00    -0.500 OA
BRANCH  13  16
ATOM     16  C   LIG    1        1.094  -0.321  -3.676  0.00  0.00    +0.130 A 
ATOM     17  C   LIG    1        1.513   0.700  -4.519  0.00  0.00    +0.060 A 
ATOM     18  C   LIG    1        2.395   0.428  -5.546  0.00  0.00    +0.000 A 
ATOM     19  C   LIG    1        2.854  -0.863  -5.742  0.00  0.00    +0.090 A 
ATOM     20  C   LIG    1        2.434  -1.884  -4.906  0.00  0.00    +0.000 A 
ATOM     21  F   LIG    1        3.713  -1.128  -6.751  0.00  0.00    -0.140 F 
ATOM     22  C   LIG    1        1.556  -1.615  -3.874  0.00  0.00    +0.030 A 
ENDBRANCH  13  16
ENDBRANCH   1  12
BRANCH   1  23
ATOM     23  C   LIG    1        0.006   0.695   0.501  0.00  0.00    +0.010 C 
BRANCH  23  24
ATOM     24  C   LIG    1       -0.975   0.843   1.665  0.00  0.00    +0.010 C 
BRANCH  24  25
ATOM     25  C   LIG    1       -0.459   0.054   2.871  0.00  0.00    +0.020 C 
BRANCH  25  26
ATOM     26  C   LIG    1       -1.441   0.202   4.035  0.00  0.00    +0.030 C 
BRANCH  26  28
ATOM     27  C   LIG    1       -0.770   0.024   6.376  0.00  0.00    +0.010 C 
ATOM     28  C   LIG    1       -0.932  -0.575   5.222  0.00  0.00    -0.050 C 
ENDBRANCH  26  28
ENDBRANCH  25  26
ENDBRANCH  24  25
ENDBRANCH  23  24
ENDBRANCH   1  23
TORSDOF 8
