REMARK  Name = ZINCvU0000000D8A.0
REMARK                            x       y       z     vdW  Elec       q    Type
REMARK                         _______ _______ _______ _____ _____    ______ ____
ROOT
ATOM      1  C   LIG    1       -7.607   3.833  -0.179  0.00  0.00    +0.150 A 
ATOM      2  N   LIG    1       -7.622   5.147  -0.208  0.00  0.00    -0.290 NA
ATOM      3  N   LIG    1       -8.816   5.569  -0.431  0.00  0.00    -0.240 NA
ATOM      4  C   LIG    1       -9.635   4.551  -0.557  0.00  0.00    +0.220 A 
ATOM      5  N   LIG    1       -8.885   3.408  -0.405  0.00  0.00    -0.450 N 
ENDROOT
BRANCH   4   6
ATOM      6  C   LIG    1      -11.088   4.620  -0.819  0.00  0.00    -0.010 A 
ATOM      7  C   LIG    1      -11.850   3.451  -0.854  0.00  0.00    +0.020 A 
ATOM      8  C   LIG    1      -13.207   3.523  -1.093  0.00  0.00    +0.030 A 
ATOM      9  C   LIG    1      -13.811   4.748  -1.310  0.00  0.00    +0.050 A 
ATOM     10  C   LIG    1      -13.061   5.911  -1.283  0.00  0.00    +0.030 A 
ATOM     11  C   LIG    1      -11.704   5.854  -1.039  0.00  0.00    -0.000 A 
ATOM     12 CL   LIG    1      -10.764   7.314  -1.005  0.00  0.00    -0.020 Cl
ENDBRANCH   4   6
BRANCH   1  13
ATOM     13  S   LIG    1       -6.198   2.811   0.095  0.00  0.00    +0.090 S 
BRANCH  13  14
ATOM     14  C   LIG    1       -4.923   4.080   0.298  0.00  0.00    +0.110 C 
BRANCH  14  17
ATOM     15  N   LIG    1       -2.490   4.172   0.733  0.00  0.00    -0.660 N 
ATOM     16  H   LIG    1       -2.565   5.138   0.783  0.00  0.00    +0.420 HD
ATOM     17  C   LIG    1       -3.592   3.419   0.550  0.00  0.00    +0.530 C 
ATOM     18  O   LIG    1       -3.514   2.209   0.589  0.00  0.00    -0.500 OA
BRANCH  15  24
ATOM     19  C   LIG    1        0.470   0.366  -0.227  0.00  0.00    +0.090 C 
ATOM     20  C   LIG    1        0.226   1.717   0.395  0.00  0.00    -0.070 A 
ATOM     21  C   LIG    1        1.242   2.354   1.083  0.00  0.00    -0.020 A 
ATOM     22  C   LIG    1        1.022   3.594   1.655  0.00  0.00    +0.040 A 
ATOM     23  C   LIG    1       -0.216   4.197   1.546  0.00  0.00    -0.020 A 
ATOM     24  C   LIG    1       -1.237   3.561   0.851  0.00  0.00    +0.150 A 
ATOM     25  C   LIG    1       -1.013   2.317   0.277  0.00  0.00    +0.010 A 
ENDBRANCH  15  24
ENDBRANCH  14  17
ENDBRANCH  13  14
ENDBRANCH   1  13
BRANCH   5  26
ATOM     26  C   LIG    1       -9.358   2.023  -0.470  0.00  0.00    +0.360 C 
BRANCH  26  27
ATOM     27  C   LIG    1       -9.389   1.569  -1.907  0.00  0.00    -0.130 A 
ATOM     28  C   LIG    1      -10.499   1.829  -2.690  0.00  0.00    +0.020 A 
ATOM     29  C   LIG    1      -10.526   1.418  -4.009  0.00  0.00    +0.010 A 
ATOM     30  C   LIG    1       -9.447   0.737  -4.543  0.00  0.00    +0.030 A 
ATOM     31  C   LIG    1       -8.340   0.473  -3.759  0.00  0.00    +0.010 A 
ATOM     32  C   LIG    1       -8.311   0.889  -2.441  0.00  0.00    +0.040 A 
ENDBRANCH  26  27
ENDBRANCH   5  26
TORSDOF 7
