REMARK  Name = ZINCqH00000389Rb.0
REMARK                            x       y       z     vdW  Elec       q    Type
REMARK                         _______ _______ _______ _____ _____    ______ ____
ROOT
ATOM      1  N   LIG    1       -2.238  -4.086  -0.183  0.00  0.00    -0.670 N 
ATOM      2  H   LIG    1       -2.717  -3.362   0.249  0.00  0.00    +0.410 HD
ATOM      3  C   LIG    1       -1.057  -3.848  -0.787  0.00  0.00    +0.590 C 
ATOM      4  O   LIG    1       -0.416  -4.771  -1.256  0.00  0.00    -0.500 OA
ENDROOT
BRANCH   1   9
ATOM      5  C   LIG    1       -4.398  -9.336  -0.166  0.00  0.00    +0.090 C 
ATOM      6  C   LIG    1       -3.826  -7.942  -0.171  0.00  0.00    -0.110 A 
ATOM      7  C   LIG    1       -2.460  -7.756  -0.088  0.00  0.00    +0.050 A 
ATOM      8  C   LIG    1       -1.932  -6.480  -0.092  0.00  0.00    +0.010 A 
ATOM      9  C   LIG    1       -2.774  -5.378  -0.179  0.00  0.00    +0.170 A 
ATOM     10  C   LIG    1       -4.147  -5.561  -0.258  0.00  0.00    -0.030 A 
ATOM     11  C   LIG    1       -4.674  -6.844  -0.258  0.00  0.00    +0.170 A 
BRANCH  11  12
ATOM     12  N   LIG    1       -6.056  -7.032  -0.342  0.00  0.00    -1.050 N 
ATOM     13  H   LIG    1       -6.476  -7.763   0.139  0.00  0.00    +0.430 HD
BRANCH  12  14
ATOM     14  S   LIG    1       -6.977  -6.009  -1.262  0.00  0.00    +2.610 S 
ATOM     15  O   LIG    1       -6.688  -4.717  -0.745  0.00  0.00    -0.950 OA
ATOM     16  O   LIG    1       -8.288  -6.553  -1.185  0.00  0.00    -0.950 OA
ATOM     17  C   LIG    1       -6.312  -6.186  -2.940  0.00  0.00    -0.280 C 
ENDBRANCH  12  14
ENDBRANCH  11  12
ENDBRANCH   1   9
BRANCH   3  18
ATOM     18  C   LIG    1       -0.544  -2.479  -0.878  0.00  0.00    -0.260 A 
ATOM     19  C   LIG    1        0.636  -2.118  -1.465  0.00  0.00    +0.120 A 
ATOM     20  C   LIG    1        0.906  -0.777  -1.429  0.00  0.00    +0.020 A 
ATOM     21  C   LIG    1       -0.046  -0.018  -0.814  0.00  0.00    -0.110 A 
ATOM     22  S   LIG    1       -1.350  -1.051  -0.244  0.00  0.00    +0.180 S 
BRANCH  21  23
ATOM     23  C   LIG    1        0.012   1.449  -0.647  0.00  0.00    -0.080 A 
ATOM     24  C   LIG    1       -1.025   2.134  -0.003  0.00  0.00    +0.070 A 
ATOM     25  C   LIG    1       -0.919   3.507   0.134  0.00  0.00    -0.020 A 
ATOM     26  C   LIG    1        0.192   4.154  -0.377  0.00  0.00    +0.270 A 
ATOM     27  N   LIG    1        1.152   3.483  -0.984  0.00  0.00    -0.480 NA
ATOM     28  C   LIG    1        1.100   2.176  -1.133  0.00  0.00    +0.290 A 
ENDBRANCH  21  23
ENDBRANCH   3  18
TORSDOF 5
