REMARK  Name = ZINCrD00000F5LlE.0
REMARK                            x       y       z     vdW  Elec       q    Type
REMARK                         _______ _______ _______ _____ _____    ______ ____
ROOT
ATOM      1  C   LIG    1        6.269  -7.395  -0.588  0.00  0.00    +0.560 C 
ATOM      2  N   LIG    1        5.876  -6.207  -0.085  0.00  0.00    -0.720 N 
ATOM      3  H   LIG    1        6.534  -5.588   0.266  0.00  0.00    +0.410 HD
ATOM      4  O   LIG    1        5.442  -8.172  -1.029  0.00  0.00    -0.540 OA
ENDROOT
BRANCH   1   6
ATOM      5  C   LIG    1        8.081  -8.938  -1.107  0.00  0.00    +0.140 C 
ATOM      6  C   LIG    1        7.688  -7.749  -0.604  0.00  0.00    -0.100 C 
BRANCH   5  10
ATOM      7  C   LIG    1       12.196  -9.964  -1.154  0.00  0.00    +0.140 A 
ATOM      8  C   LIG    1       11.255 -10.854  -1.657  0.00  0.00    -0.020 A 
ATOM      9  C   LIG    1        9.918 -10.526  -1.645  0.00  0.00    +0.090 A 
ATOM     10  C   LIG    1        9.507  -9.294  -1.123  0.00  0.00    -0.120 A 
ATOM     11  C   LIG    1       10.460  -8.399  -0.622  0.00  0.00    +0.070 A 
ATOM     12  C   LIG    1       11.794  -8.739  -0.635  0.00  0.00    -0.080 A 
BRANCH   7  14
ATOM     13  C   LIG    1       14.428  -9.332  -0.636  0.00  0.00    +0.240 C 
ATOM     14  O   LIG    1       13.513 -10.292  -1.169  0.00  0.00    -0.310 OA
ENDBRANCH   7  14
ENDBRANCH   5  10
ENDBRANCH   1   6
BRANCH   2  15
ATOM     15  C   LIG    1        4.455  -5.853  -0.070  0.00  0.00    +0.290 C 
ATOM     16  C   LIG    1        3.797  -6.435   1.183  0.00  0.00    +0.070 C 
BRANCH  15  17
ATOM     17  C   LIG    1        4.311  -4.353  -0.061  0.00  0.00    +0.460 C 
ATOM     18  O   LIG    1        5.295  -3.652  -0.067  0.00  0.00    -0.500 OA
BRANCH  17  19
ATOM     19  O   LIG    1        3.090  -3.795  -0.046  0.00  0.00    -0.330 OA
BRANCH  19  20
ATOM     20  C   LIG    1        3.028  -2.344  -0.039  0.00  0.00    +0.240 C 
BRANCH  20  21
ATOM     21  C   LIG    1        1.587  -1.903  -0.023  0.00  0.00    +0.430 C 
ATOM     22  O   LIG    1        0.699  -2.732  -0.018  0.00  0.00    -0.420 OA
BRANCH  21  23
ATOM     23  C   LIG    1        1.270  -0.529  -0.013  0.00  0.00    -0.310 A 
ATOM     24  C   LIG    1        0.002  -0.004   0.002  0.00  0.00    +0.150 A 
ATOM     25  C   LIG    1       -0.017   1.367   0.010  0.00  0.00    +0.020 A 
ATOM     26  C   LIG    1        1.191   1.953   0.001  0.00  0.00    -0.150 A 
ATOM     27 CL   LIG    1        1.451   3.670   0.007  0.00  0.00    +0.010 Cl
ATOM     28  S   LIG    1        2.436   0.787  -0.017  0.00  0.00    +0.280 S 
ENDBRANCH  21  23
ENDBRANCH  20  21
ENDBRANCH  19  20
ENDBRANCH  17  19
ENDBRANCH  15  17
ENDBRANCH   2  15
TORSDOF 9
