REMARK  Name = ZINCnE000001TrXQ.0
REMARK                            x       y       z     vdW  Elec       q    Type
REMARK                         _______ _______ _______ _____ _____    ______ ____
ROOT
ATOM      1  O   LIG    1        7.872  -0.908   2.427  0.00  0.00    -0.550 OA
ATOM      2  C   LIG    1        7.112  -1.741   2.884  0.00  0.00    +0.580 C 
ATOM      3  N   LIG    1        5.782  -1.526   2.857  0.00  0.00    -0.680 N 
ATOM      4  H   LIG    1        5.180  -2.158   3.281  0.00  0.00    +0.410 HD
ENDROOT
BRANCH   2   5
ATOM      5  C   LIG    1        7.647  -2.987   3.467  0.00  0.00    -0.290 A 
ATOM      6  C   LIG    1        9.026  -3.211   3.495  0.00  0.00    +0.110 A 
ATOM      7  C   LIG    1        9.522  -4.375   4.040  0.00  0.00    -0.160 A 
ATOM      8  C   LIG    1        8.653  -5.326   4.561  0.00  0.00    +0.300 A 
ATOM      9  C   LIG    1        7.279  -5.107   4.535  0.00  0.00    -0.180 A 
ATOM     10 CL   LIG    1        6.199  -6.298   5.188  0.00  0.00    -0.100 Cl
ATOM     11  O   LIG    1        9.146  -6.471   5.097  0.00  0.00    -0.680 OA
ATOM     12  C   LIG    1        6.776  -3.942   3.998  0.00  0.00    +0.090 A 
ENDBRANCH   2   5
BRANCH   3  13
ATOM     13  C   LIG    1        5.269  -0.392   2.220  0.00  0.00    +0.190 A 
ATOM     14  C   LIG    1        5.965   0.809   2.271  0.00  0.00    +0.000 A 
ATOM     15  C   LIG    1        5.459   1.930   1.642  0.00  0.00    +0.050 A 
ATOM     16  C   LIG    1        4.263   1.860   0.956  0.00  0.00    -0.060 A 
ATOM     17  C   LIG    1        3.558   0.663   0.906  0.00  0.00    +0.180 A 
ATOM     18  C   LIG    1        4.064  -0.465   1.536  0.00  0.00    -0.030 A 
BRANCH  17  19
ATOM     19  N   LIG    1        2.343   0.594   0.215  0.00  0.00    -0.560 N 
ATOM     20  C   LIG    1        1.662   1.750  -0.380  0.00  0.00    +0.270 C 
ATOM     21  C   LIG    1        0.209   1.288  -0.630  0.00  0.00    +0.060 C 
ATOM     22  C   LIG    1        0.383  -0.243  -0.760  0.00  0.00    +0.070 C 
ATOM     23  C   LIG    1        1.650  -0.540   0.011  0.00  0.00    +0.510 C 
ATOM     24  O   LIG    1        1.991  -1.640   0.391  0.00  0.00    -0.510 OA
ENDBRANCH  17  19
ENDBRANCH   3  13
TORSDOF 3
