REMARK  Name = ZINCvU0000000HMF.0
REMARK                            x       y       z     vdW  Elec       q    Type
REMARK                         _______ _______ _______ _____ _____    ______ ____
ROOT
ATOM      1  C   LIG    1        2.135   0.594  -0.420  0.00  0.00    +0.250 C 
ENDROOT
BRANCH   1   2
ATOM      2  C   LIG    1        2.773   0.410   0.933  0.00  0.00    -0.110 A 
ATOM      3  C   LIG    1        2.811   1.463   1.828  0.00  0.00    +0.050 A 
ATOM      4  C   LIG    1        3.393   1.293   3.070  0.00  0.00    +0.000 A 
ATOM      5  C   LIG    1        3.944   0.073   3.414  0.00  0.00    +0.010 A 
ATOM      6  C   LIG    1        3.910  -0.979   2.517  0.00  0.00    +0.010 A 
ATOM      7  C   LIG    1        3.325  -0.810   1.276  0.00  0.00    +0.020 A 
ENDBRANCH   1   2
BRANCH   1   8
ATOM      8  C   LIG    1        3.140   1.187  -1.373  0.00  0.00    +0.530 C 
ATOM      9  N   LIG    1        4.237   0.484  -1.718  0.00  0.00    -0.660 N 
ATOM     10  H   LIG    1        4.342  -0.432  -1.415  0.00  0.00    +0.410 HD
ATOM     11  O   LIG    1        2.963   2.296  -1.830  0.00  0.00    -0.490 OA
BRANCH   9  12
ATOM     12  C   LIG    1        5.225   1.074  -2.515  0.00  0.00    +0.160 A 
ATOM     13  C   LIG    1        5.482   2.434  -2.410  0.00  0.00    +0.030 A 
ATOM     14  C   LIG    1        6.458   3.015  -3.197  0.00  0.00    +0.050 A 
ATOM     15  C   LIG    1        7.178   2.243  -4.089  0.00  0.00    -0.090 A 
ATOM     16  C   LIG    1        6.924   0.886  -4.197  0.00  0.00    -0.020 A 
ATOM     17 CL   LIG    1        7.832  -0.079  -5.318  0.00  0.00    -0.060 Cl
ATOM     18  C   LIG    1        8.242   2.880  -4.945  0.00  0.00    +0.100 C 
ATOM     19  C   LIG    1        5.953   0.299  -3.408  0.00  0.00    +0.010 A 
ENDBRANCH   9  12
ENDBRANCH   1   8
BRANCH   1  20
ATOM     20  O   LIG    1        0.996   1.487  -0.301  0.00  0.00    -0.310 OA
BRANCH  20  21
ATOM     21  C   LIG    1       -0.199   0.923  -0.041  0.00  0.00    +0.520 C 
ATOM     22  O   LIG    1       -0.288  -0.282   0.083  0.00  0.00    -0.480 OA
BRANCH  21  28
ATOM     23  C   LIG    1       -2.264   1.603   1.174  0.00  0.00    -0.410 A 
ATOM     24  C   LIG    1       -3.387   2.397   1.288  0.00  0.00    +0.100 A 
ATOM     25  C   LIG    1       -3.660   3.357   0.329  0.00  0.00    +0.030 A 
ATOM     26  C   LIG    1       -2.810   3.527  -0.749  0.00  0.00    +0.050 A 
ATOM     27  C   LIG    1       -1.681   2.744  -0.873  0.00  0.00    +0.060 A 
ATOM     28  C   LIG    1       -1.403   1.770   0.088  0.00  0.00    -0.050 A 
BRANCH  23  29
ATOM     29  S   LIG    1       -1.918   0.383   2.397  0.00  0.00    +1.320 S 
ATOM     30  O   LIG    1       -0.498   0.329   2.402  0.00  0.00    -0.830 OA
BRANCH  29  32
ATOM     31  C   LIG    1       -2.351  -2.310   2.610  0.00  0.00    +0.050 C 
ATOM     32  C   LIG    1       -2.577  -1.136   1.655  0.00  0.00    -0.240 C 
ENDBRANCH  29  32
ENDBRANCH  23  29
ENDBRANCH  21  28
ENDBRANCH  20  21
ENDBRANCH   1  20
TORSDOF 8
