REMARK  Name = ZINCkj00000Nk24f.0
REMARK                            x       y       z     vdW  Elec       q    Type
REMARK                         _______ _______ _______ _____ _____    ______ ____
ROOT
ATOM      1  C   LIG    1        1.280   1.980   0.001  0.00  0.00    +0.020 C 
ATOM      2  C   LIG    1        1.363   2.853   1.256  0.00  0.00    +0.070 C 
ATOM      3  C   LIG    1        1.383   1.949   2.493  0.00  0.00    +0.050 C 
ATOM      4  C   LIG    1        2.557   0.973   2.386  0.00  0.00    +0.240 C 
ATOM      5  N   LIG    1        2.405   0.150   1.180  0.00  0.00    -0.380 N 
ATOM      6  H   LIG    1        1.518  -0.330   1.211  0.00  0.00    +0.430 HD
ATOM      7  C   LIG    1        2.457   1.002  -0.014  0.00  0.00    +0.300 C 
ENDROOT
BRANCH   1  10
ATOM      8  N   LIG    1       -1.191   1.867   0.018  0.00  0.00    -0.700 N 
ATOM      9  H   LIG    1       -1.204   2.837   0.023  0.00  0.00    +0.430 HD
ATOM     10  C   LIG    1       -0.014   1.209   0.009  0.00  0.00    +0.520 C 
ATOM     11  O   LIG    1        0.002  -0.004   0.002  0.00  0.00    -0.560 OA
BRANCH   8  12
ATOM     12  C   LIG    1       -2.449   1.117   0.020  0.00  0.00    +0.350 C 
BRANCH  12  13
ATOM     13  C   LIG    1       -3.608   2.080   0.030  0.00  0.00    +0.260 C 
ATOM     14  S   LIG    1       -3.337   3.656   0.038  0.00  0.00    -0.420 S 
BRANCH  13  15
ATOM     15  N   LIG    1       -4.872   1.614   0.034  0.00  0.00    -0.760 N 
ATOM     16  H   LIG    1       -5.618   2.234   0.041  0.00  0.00    +0.430 HD
ATOM     17  H   LIG    1       -5.037   0.658   0.029  0.00  0.00    +0.400 HD
ENDBRANCH  13  15
ENDBRANCH  12  13
ENDBRANCH   8  12
ENDBRANCH   1  10
BRANCH   5  18
ATOM     18  C   LIG    1        3.492  -0.837   1.124  0.00  0.00    +0.320 C 
BRANCH  18  19
ATOM     19  C   LIG    1        3.366  -1.789   2.285  0.00  0.00    -0.160 A 
ATOM     20  C   LIG    1        4.001  -1.509   3.481  0.00  0.00    +0.030 A 
ATOM     21  C   LIG    1        3.882  -2.380   4.547  0.00  0.00    +0.020 A 
ATOM     22  C   LIG    1        3.136  -3.537   4.415  0.00  0.00    +0.050 A 
ATOM     23  C   LIG    1        2.506  -3.819   3.218  0.00  0.00    +0.030 A 
ATOM     24  C   LIG    1        2.621  -2.946   2.153  0.00  0.00    +0.040 A 
ENDBRANCH  18  19
ENDBRANCH   5  18
TORSDOF 6
