REMARK  Name = ZINCkj00000Nk24f.1
REMARK                            x       y       z     vdW  Elec       q    Type
REMARK                         _______ _______ _______ _____ _____    ______ ____
ROOT
ATOM      1  C   LIG    1       -0.342   7.818  -2.781  0.00  0.00    -0.010 C 
ATOM      2  C   LIG    1        0.929   7.438  -3.546  0.00  0.00    +0.060 C 
ATOM      3  C   LIG    1        1.115   5.919  -3.484  0.00  0.00    +0.070 C 
ATOM      4  C   LIG    1        1.163   5.475  -2.021  0.00  0.00    +0.240 C 
ATOM      5  N   LIG    1       -0.090   5.844  -1.352  0.00  0.00    -0.380 N 
ATOM      6  H   LIG    1       -0.867   5.431  -1.846  0.00  0.00    +0.420 HD
ATOM      7  C   LIG    1       -0.240   7.304  -1.344  0.00  0.00    +0.290 C 
ENDROOT
BRANCH   1  10
ATOM      8  N   LIG    1       -0.597   9.993  -3.931  0.00  0.00    -0.710 N 
ATOM      9  H   LIG    1       -0.575   9.514  -4.775  0.00  0.00    +0.420 HD
ATOM     10  C   LIG    1       -0.493   9.318  -2.770  0.00  0.00    +0.530 C 
ATOM     11  O   LIG    1       -0.520   9.916  -1.716  0.00  0.00    -0.530 OA
BRANCH   8  12
ATOM     12  C   LIG    1       -0.744  11.451  -3.920  0.00  0.00    +0.350 C 
BRANCH  12  13
ATOM     13  C   LIG    1       -0.839  11.957  -5.337  0.00  0.00    +0.270 C 
ATOM     14  S   LIG    1       -0.774  10.928  -6.559  0.00  0.00    -0.430 S 
BRANCH  13  15
ATOM     15  N   LIG    1       -0.980  13.276  -5.573  0.00  0.00    -0.760 N 
ATOM     16  H   LIG    1       -1.041  13.602  -6.484  0.00  0.00    +0.430 HD
ATOM     17  H   LIG    1       -1.019  13.900  -4.831  0.00  0.00    +0.410 HD
ENDBRANCH  13  15
ENDBRANCH  12  13
ENDBRANCH   8  12
ENDBRANCH   1  10
BRANCH   5  18
ATOM     18  C   LIG    1       -0.070   5.347   0.030  0.00  0.00    +0.330 C 
BRANCH  18  19
ATOM     19  C   LIG    1       -0.050   3.840   0.022  0.00  0.00    -0.160 A 
ATOM     20  C   LIG    1        1.156   3.165   0.008  0.00  0.00    +0.030 A 
ATOM     21  C   LIG    1        1.175   1.783   0.000  0.00  0.00    +0.030 A 
ATOM     22  C   LIG    1       -0.013   1.076   0.008  0.00  0.00    +0.060 A 
ATOM     23  C   LIG    1       -1.219   1.751   0.017  0.00  0.00    +0.030 A 
ATOM     24  C   LIG    1       -1.238   3.133   0.030  0.00  0.00    +0.040 A 
ENDBRANCH  18  19
ENDBRANCH   5  18
TORSDOF 6
