REMARK  Name = ZINCrD00000hQ5c9.0
REMARK                            x       y       z     vdW  Elec       q    Type
REMARK                         _______ _______ _______ _____ _____    ______ ____
ROOT
ATOM      1  C   LIG    1       -2.643   1.080   1.723  0.00  0.00    +0.100 A 
ATOM      2  N   LIG    1       -3.084   0.209   2.588  0.00  0.00    -0.470 NA
ATOM      3  C   LIG    1       -4.291  -0.256   2.407  0.00  0.00    +0.150 A 
ATOM      4  C   LIG    1       -4.927   0.255   1.308  0.00  0.00    -0.310 A 
ATOM      5  C   LIG    1       -4.927  -1.266   3.327  0.00  0.00    +0.160 C 
ATOM      6  S   LIG    1       -3.829   1.394   0.533  0.00  0.00    +0.200 S 
ENDROOT
BRANCH   4   7
ATOM      7  C   LIG    1       -6.281  -0.081   0.860  0.00  0.00    +0.600 C 
ATOM      8  N   LIG    1       -7.173   0.900   0.615  0.00  0.00    -0.600 N 
ATOM      9  C   LIG    1       -6.775   2.312   0.702  0.00  0.00    +0.270 C 
ATOM     10  C   LIG    1       -7.731   3.041   1.644  0.00  0.00    +0.040 C 
ATOM     11  C   LIG    1       -9.172   2.820   1.176  0.00  0.00    -0.010 C 
ATOM     12  C   LIG    1       -9.499   1.326   1.214  0.00  0.00    +0.020 C 
ATOM     13  C   LIG    1       -8.562   0.578   0.261  0.00  0.00    +0.230 C 
ATOM     14  C   LIG    1       -8.788  -0.930   0.393  0.00  0.00    +0.060 C 
ATOM     15  O   LIG    1       -6.601  -1.245   0.709  0.00  0.00    -0.510 OA
BRANCH  11  16
ATOM     16  C   LIG    1      -10.129   3.575   2.101  0.00  0.00    +0.180 C 
BRANCH  16  17
ATOM     17  O   LIG    1       -9.901   4.981   1.978  0.00  0.00    -0.570 OA
ATOM     18  H   LIG    1      -10.474   5.523   2.537  0.00  0.00    +0.380 HD
ENDBRANCH  16  17
ENDBRANCH  11  16
ENDBRANCH   4   7
BRANCH   1  22
ATOM     19  C   LIG    1        1.199   2.893   1.846  0.00  0.00    +0.120 A 
ATOM     20  C   LIG    1        0.310   3.221   0.833  0.00  0.00    -0.020 A 
ATOM     21  C   LIG    1       -0.939   2.637   0.792  0.00  0.00    +0.040 A 
ATOM     22  C   LIG    1       -1.309   1.710   1.768  0.00  0.00    -0.040 A 
ATOM     23  C   LIG    1       -0.415   1.385   2.792  0.00  0.00    +0.030 A 
ATOM     24  C   LIG    1        0.835   1.973   2.827  0.00  0.00    +0.100 A 
BRANCH  19  26
ATOM     25  C   LIG    1        2.737   4.405   0.845  0.00  0.00    +0.240 C 
ATOM     26  O   LIG    1        2.429   3.471   1.882  0.00  0.00    -0.300 OA
ENDBRANCH  19  26
BRANCH  24  27
ATOM     27  O   LIG    1        1.709   1.654   3.819  0.00  0.00    -0.300 OA
ATOM     28  C   LIG    1        1.269   0.703   4.790  0.00  0.00    +0.240 C 
ENDBRANCH  24  27
ENDBRANCH   1  22
TORSDOF 6
