REMARK  Name = ZINCtV00000L6jKh.0
REMARK                            x       y       z     vdW  Elec       q    Type
REMARK                         _______ _______ _______ _____ _____    ______ ____
ROOT
ATOM      1  C   LIG    1       -4.694   5.912   5.098  0.00  0.00    -0.310 A 
ATOM      2  C   LIG    1       -3.916   4.901   5.588  0.00  0.00    +0.050 A 
ATOM      3  C   LIG    1       -2.960   4.451   4.710  0.00  0.00    -0.170 A 
ATOM      4  C   LIG    1       -2.972   5.107   3.501  0.00  0.00    +0.040 A 
ATOM      5  N   LIG    1       -2.077   4.785   2.485  0.00  0.00    -0.610 N 
ATOM      6  H   LIG    1       -1.935   5.391   1.740  0.00  0.00    +0.420 HD
ATOM      7  C   LIG    1       -1.403   3.594   2.558  0.00  0.00    +0.230 C 
ATOM      8  C   LIG    1       -1.332   2.878   3.699  0.00  0.00    -0.280 C 
ATOM      9  C   LIG    1       -0.650   1.647   3.735  0.00  0.00    +0.400 C 
ATOM     10  C   LIG    1        0.008   1.075   2.512  0.00  0.00    +0.040 C 
ATOM     11  C   LIG    1       -0.729   1.579   1.267  0.00  0.00    -0.050 C 
ATOM     12  C   LIG    1       -2.170   1.064   1.276  0.00  0.00    +0.030 C 
ATOM     13  C   LIG    1       -0.013   1.086   0.008  0.00  0.00    +0.050 C 
ATOM     14  O   LIG    1       -0.593   1.032   4.782  0.00  0.00    -0.470 OA
ATOM     15  C   LIG    1       -0.727   3.109   1.296  0.00  0.00    +0.100 C 
ATOM     16  C   LIG    1       -1.961   3.345   4.991  0.00  0.00    +0.190 C 
ATOM     17  C   LIG    1       -4.092   4.330   6.971  0.00  0.00    +0.130 C 
ATOM     18  S   LIG    1       -4.186   6.299   3.461  0.00  0.00    +0.280 S 
ENDROOT
BRANCH  16  19
ATOM     19  C   LIG    1       -0.886   3.862   5.912  0.00  0.00    -0.060 A 
ATOM     20  C   LIG    1       -0.091   4.922   5.519  0.00  0.00    +0.030 A 
ATOM     21  C   LIG    1        0.892   5.400   6.365  0.00  0.00    +0.020 A 
ATOM     22  C   LIG    1        1.086   4.811   7.602  0.00  0.00    -0.040 A 
ATOM     23  C   LIG    1        0.293   3.747   7.993  0.00  0.00    +0.020 A 
ATOM     24 CL   LIG    1        2.325   5.406   8.662  0.00  0.00    -0.070 Cl
ATOM     25  C   LIG    1       -0.693   3.273   7.148  0.00  0.00    +0.040 A 
ENDBRANCH  16  19
BRANCH   1  26
ATOM     26  C   LIG    1       -5.747   6.549   5.799  0.00  0.00    +0.550 C 
ATOM     27  O   LIG    1       -6.019   6.203   6.934  0.00  0.00    -0.500 OA
BRANCH  26  28
ATOM     28  O   LIG    1       -6.448   7.540   5.210  0.00  0.00    -0.360 OA
BRANCH  28  30
ATOM     29  C   LIG    1       -8.173   9.232   5.149  0.00  0.00    +0.070 C 
ATOM     30  C   LIG    1       -7.496   8.138   5.976  0.00  0.00    +0.200 C 
ENDBRANCH  28  30
ENDBRANCH  26  28
ENDBRANCH   1  26
TORSDOF 4
