REMARK  Name = ZINCpe000000U65Q.0
REMARK                            x       y       z     vdW  Elec       q    Type
REMARK                         _______ _______ _______ _____ _____    ______ ____
ROOT
ATOM      1  C   LIG    1       -1.005   0.550   5.580  0.00  0.00    +0.500 C 
ATOM      2  N   LIG    1       -0.839   0.132   6.851  0.00  0.00    -0.720 N 
ATOM      3  H   LIG    1       -0.483  -0.752   7.028  0.00  0.00    +0.410 HD
ATOM      4  O   LIG    1       -1.451   1.656   5.358  0.00  0.00    -0.520 OA
ENDROOT
BRANCH   1   5
ATOM      5  C   LIG    1       -0.637  -0.358   4.434  0.00  0.00    +0.360 C 
BRANCH   5  10
ATOM      6  C   LIG    1       -0.729   1.579   1.267  0.00  0.00    +0.120 C 
ATOM      7  N   LIG    1       -2.067   0.972   1.373  0.00  0.00    -0.720 N 
ATOM      8  H   LIG    1       -2.799   1.069   0.745  0.00  0.00    +0.440 HD
ATOM      9  C   LIG    1       -2.075   0.258   2.514  0.00  0.00    +0.710 C 
ATOM     10  N   LIG    1       -0.909   0.322   3.166  0.00  0.00    -0.560 N 
ATOM     11  O   LIG    1       -3.036  -0.375   2.907  0.00  0.00    -0.540 OA
ATOM     12  C   LIG    1       -0.825   3.106   1.266  0.00  0.00    +0.080 C 
ATOM     13  C   LIG    1       -0.016   1.091   2.512  0.00  0.00    +0.540 C 
ATOM     14  O   LIG    1        1.122   1.339   2.849  0.00  0.00    -0.460 OA
BRANCH   6  16
ATOM     15  C   LIG    1       -0.753   1.593  -1.232  0.00  0.00    +0.050 C 
ATOM     16  C   LIG    1       -0.013   1.086   0.008  0.00  0.00    +0.040 C 
ENDBRANCH   6  16
ENDBRANCH   5  10
ENDBRANCH   1   5
BRANCH   2  17
ATOM     17  C   LIG    1       -1.197   1.014   7.964  0.00  0.00    +0.320 C 
BRANCH  17  18
ATOM     18  C   LIG    1       -0.917   0.315   9.269  0.00  0.00    -0.080 A 
ATOM     19  C   LIG    1       -1.904  -0.449   9.867  0.00  0.00    +0.030 A 
ATOM     20  C   LIG    1       -1.653  -1.097  11.058  0.00  0.00    +0.080 A 
ATOM     21  C   LIG    1       -0.403  -0.971  11.668  0.00  0.00    -0.120 A 
ATOM     22  C   LIG    1        0.586  -0.194  11.062  0.00  0.00    +0.090 A 
ATOM     23  C   LIG    1        0.324   0.444   9.868  0.00  0.00    +0.030 A 
BRANCH  21  24
ATOM     24  C   LIG    1       -0.129  -1.657  12.947  0.00  0.00    +0.510 C 
ATOM     25  O   LIG    1        0.959  -1.545  13.475  0.00  0.00    -0.500 OA
BRANCH  24  26
ATOM     26  O   LIG    1       -1.086  -2.406  13.528  0.00  0.00    -0.350 OA
ATOM     27  C   LIG    1       -0.747  -3.050  14.785  0.00  0.00    +0.290 C 
ENDBRANCH  24  26
ENDBRANCH  21  24
ENDBRANCH  17  18
ENDBRANCH   2  17
TORSDOF 7
