REMARK  Name = ZINCkj000005hxre.0
REMARK                            x       y       z     vdW  Elec       q    Type
REMARK                         _______ _______ _______ _____ _____    ______ ____
ROOT
ATOM      1  C   LIG    1       -3.210   4.395   6.656  0.00  0.00    -0.030 C 
ATOM      2  C   LIG    1       -3.681   3.946   5.248  0.00  0.00    +0.070 C 
ATOM      3  C   LIG    1       -2.558   2.988   4.799  0.00  0.00    +0.260 C 
ATOM      4  N   LIG    1       -1.885   2.504   6.013  0.00  0.00    -0.620 N 
ATOM      5  C   LIG    1       -0.836   1.659   6.046  0.00  0.00    +0.590 C 
ATOM      6  O   LIG    1       -0.414   1.255   7.112  0.00  0.00    -0.520 OA
ATOM      7  C   LIG    1       -2.546   3.100   7.189  0.00  0.00    +0.270 C 
ENDROOT
BRANCH   5   8
ATOM      8  C   LIG    1       -0.196   1.225   4.786  0.00  0.00    -0.060 A 
ATOM      9  C   LIG    1        0.985   0.483   4.820  0.00  0.00    +0.020 A 
ATOM     10  C   LIG    1        1.583   0.083   3.636  0.00  0.00    +0.170 A 
ATOM     11  C   LIG    1        1.004   0.409   2.419  0.00  0.00    -0.130 A 
ATOM     12  C   LIG    1       -0.173   1.142   2.381  0.00  0.00    +0.160 A 
ATOM     13  C   LIG    1       -0.776   1.551   3.559  0.00  0.00    -0.030 A 
BRANCH  12  14
ATOM     14  O   LIG    1       -0.736   1.460   1.185  0.00  0.00    -0.310 OA
ATOM     15  C   LIG    1       -0.062   1.006   0.010  0.00  0.00    +0.250 C 
ENDBRANCH  12  14
BRANCH  10  16
ATOM     16  O   LIG    1        2.737  -0.635   3.668  0.00  0.00    -0.310 OA
ATOM     17  C   LIG    1        3.296  -1.020   2.411  0.00  0.00    +0.250 C 
ENDBRANCH  10  16
ENDBRANCH   5   8
BRANCH   1  18
ATOM     18  C   LIG    1       -4.399   4.800   7.529  0.00  0.00    +0.280 C 
BRANCH  18  20
ATOM     19  C   LIG    1       -5.060   5.576   9.701  0.00  0.00    +0.320 C 
ATOM     20  N   LIG    1       -3.918   5.187   8.862  0.00  0.00    -0.510 N 
ATOM     21  H   LIG    1       -3.283   5.966   8.778  0.00  0.00    +0.430 HD
ATOM     22  H   LIG    1       -3.440   4.407   9.287  0.00  0.00    +0.430 HD
ENDBRANCH  18  20
ENDBRANCH   1  18
TORSDOF 5
