REMARK  Name = ZINCvU0000000EdY.0
REMARK                            x       y       z     vdW  Elec       q    Type
REMARK                         _______ _______ _______ _____ _____    ______ ____
ROOT
ATOM      1  C   LIG    1       -0.653   1.626  -1.080  0.00  0.00    -0.070 A 
ATOM      2  C   LIG    1       -1.575   0.800  -1.696  0.00  0.00    +0.050 A 
ATOM      3  C   LIG    1       -2.207   1.210  -2.854  0.00  0.00    +0.010 A 
ATOM      4  C   LIG    1       -1.905   2.448  -3.407  0.00  0.00    +0.140 A 
ATOM      5  C   LIG    1       -0.974   3.273  -2.789  0.00  0.00    +0.010 A 
ATOM      6  C   LIG    1       -0.350   2.859  -1.628  0.00  0.00    +0.040 A 
ENDROOT
BRANCH   4   7
ATOM      7  N   LIG    1       -2.537   2.863  -4.581  0.00  0.00    -1.050 N 
ATOM      8  H   LIG    1       -2.901   3.760  -4.646  0.00  0.00    +0.430 HD
BRANCH   7   9
ATOM      9  S   LIG    1       -2.666   1.823  -5.864  0.00  0.00    +2.690 S 
ATOM     10  O   LIG    1       -3.243   2.567  -6.928  0.00  0.00    -0.940 OA
ATOM     11  O   LIG    1       -3.238   0.626  -5.354  0.00  0.00    -0.940 OA
BRANCH   9  12
ATOM     12  C   LIG    1       -1.029   1.415  -6.372  0.00  0.00    -0.670 A 
ATOM     13  C   LIG    1       -0.352   2.242  -7.249  0.00  0.00    +0.160 A 
ATOM     14  C   LIG    1        0.934   1.926  -7.644  0.00  0.00    +0.040 A 
ATOM     15  C   LIG    1        1.541   0.777  -7.170  0.00  0.00    +0.020 A 
ATOM     16  C   LIG    1        0.861  -0.054  -6.295  0.00  0.00    -0.050 A 
ATOM     17 CL   LIG    1        1.621  -1.496  -5.699  0.00  0.00    -0.030 Cl
ATOM     18 CL   LIG    1        3.154   0.377  -7.671  0.00  0.00    -0.030 Cl
ATOM     19  C   LIG    1       -0.424   0.267  -5.897  0.00  0.00    +0.170 A 
ENDBRANCH   9  12
ENDBRANCH   7   9
ENDBRANCH   4   7
BRANCH   1  20
ATOM     20  C   LIG    1        0.030   1.178   0.187  0.00  0.00    +0.120 C 
BRANCH  20  23
ATOM     21  N   LIG    1       -0.359   1.334   2.624  0.00  0.00    -0.680 N 
ATOM     22  H   LIG    1        0.426   0.779   2.755  0.00  0.00    +0.410 HD
ATOM     23  C   LIG    1       -0.779   1.624   1.377  0.00  0.00    +0.510 C 
ATOM     24  O   LIG    1       -1.809   2.244   1.213  0.00  0.00    -0.510 OA
BRANCH  21  28
ATOM     25  C   LIG    1       -2.432   2.817   5.920  0.00  0.00    -0.090 A 
ATOM     26  C   LIG    1       -3.122   2.452   4.778  0.00  0.00    +0.020 A 
ATOM     27  C   LIG    1       -2.438   1.960   3.684  0.00  0.00    +0.020 A 
ATOM     28  C   LIG    1       -1.056   1.832   3.731  0.00  0.00    +0.140 A 
ATOM     29  C   LIG    1       -0.366   2.194   4.881  0.00  0.00    -0.020 A 
ATOM     30  C   LIG    1       -1.056   2.691   5.970  0.00  0.00    +0.030 A 
BRANCH  25  31
ATOM     31  C   LIG    1       -3.182   3.353   7.112  0.00  0.00    +0.060 C 
BRANCH  31  33
ATOM     32  C   LIG    1       -4.338   2.739   9.240  0.00  0.00    +0.010 C 
ATOM     33  C   LIG    1       -3.577   2.195   8.029  0.00  0.00    +0.000 C 
ENDBRANCH  31  33
ENDBRANCH  25  31
ENDBRANCH  21  28
ENDBRANCH  20  23
ENDBRANCH   1  20
TORSDOF 8
