REMARK  Name = ZINCpk000000mP4Q.0
REMARK                            x       y       z     vdW  Elec       q    Type
REMARK                         _______ _______ _______ _____ _____    ______ ____
ROOT
ATOM      1  N   LIG    1       -6.477   0.671   1.423  0.00  0.00    -0.530 NA
ATOM      2  C   LIG    1       -6.221  -0.607   2.100  0.00  0.00    +0.170 C 
ATOM      3  C   LIG    1       -6.569  -0.472   3.587  0.00  0.00    +0.300 C 
ATOM      4  N   LIG    1       -7.947   0.026   3.701  0.00  0.00    -1.000 NA
ATOM      5  C   LIG    1       -8.318   1.229   2.939  0.00  0.00    +0.300 C 
ATOM      6  C   LIG    1       -7.901   1.028   1.478  0.00  0.00    +0.170 C 
ENDROOT
BRANCH   4   7
ATOM      7  S   LIG    1       -9.054  -0.745   4.662  0.00  0.00    +2.690 S 
ATOM      8  O   LIG    1      -10.040   0.222   4.995  0.00  0.00    -0.950 OA
ATOM      9  O   LIG    1       -8.308  -1.463   5.636  0.00  0.00    -0.950 OA
BRANCH   7  10
ATOM     10  C   LIG    1       -9.859  -1.953   3.663  0.00  0.00    -0.720 A 
ATOM     11  C   LIG    1      -11.008  -1.620   2.969  0.00  0.00    +0.160 A 
ATOM     12  C   LIG    1      -11.638  -2.563   2.181  0.00  0.00    -0.090 A 
ATOM     13  C   LIG    1      -11.124  -3.849   2.095  0.00  0.00    +0.180 A 
ATOM     14  C   LIG    1       -9.975  -4.182   2.797  0.00  0.00    -0.030 A 
ATOM     15  C   LIG    1       -9.345  -3.233   3.579  0.00  0.00    +0.170 A 
BRANCH  13  16
ATOM     16  O   LIG    1      -11.745  -4.780   1.325  0.00  0.00    -0.310 OA
ATOM     17  C   LIG    1      -12.924  -4.366   0.630  0.00  0.00    +0.250 C 
ENDBRANCH  13  16
ENDBRANCH   7  10
ENDBRANCH   4   7
BRANCH   1  18
ATOM     18  C   LIG    1       -5.996   0.637   0.035  0.00  0.00    +0.250 C 
BRANCH  18  21
ATOM     19  N   LIG    1       -2.362   1.006   0.019  0.00  0.00    -0.330 N 
ATOM     20  C   LIG    1       -3.611   1.539   0.033  0.00  0.00    +0.260 A 
ATOM     21  C   LIG    1       -4.494   0.513   0.027  0.00  0.00    -0.220 A 
ATOM     22  C   LIG    1       -3.768  -0.682   0.017  0.00  0.00    +0.240 A 
ATOM     23  N   LIG    1       -2.492  -0.389   0.012  0.00  0.00    -0.290 NA
BRANCH  19  25
ATOM     24  C   LIG    1       -0.013   1.076   0.008  0.00  0.00    +0.040 C 
ATOM     25  C   LIG    1       -1.163   1.720   0.017  0.00  0.00    +0.230 C 
ENDBRANCH  19  25
ENDBRANCH  18  21
ENDBRANCH   1  18
TORSDOF 6
