REMARK  Name = ZINCpe000000YhHb.1
REMARK                            x       y       z     vdW  Elec       q    Type
REMARK                         _______ _______ _______ _____ _____    ______ ____
ROOT
ATOM      1  N   LIG    1       -1.812   0.636  -1.635  0.00  0.00    -0.670 NA
ATOM      2  H   LIG    1       -1.467  -0.300  -1.488  0.00  0.00    +0.350 HD
ENDROOT
BRANCH   1   6
ATOM      3  N   LIG    1       -1.508   2.817   0.727  0.00  0.00    -0.530 N 
ATOM      4  C   LIG    1       -0.811   1.621   1.217  0.00  0.00    +0.280 C 
ATOM      5  C   LIG    1       -0.013   1.086   0.008  0.00  0.00    +0.050 C 
ATOM      6  C   LIG    1       -0.835   1.635  -1.181  0.00  0.00    +0.150 C 
ATOM      7  C   LIG    1       -1.541   2.847  -0.616  0.00  0.00    +0.530 C 
ATOM      8  O   LIG    1       -2.061   3.720  -1.279  0.00  0.00    -0.520 OA
BRANCH   3  12
ATOM      9  C   LIG    1       -3.835   6.876   2.271  0.00  0.00    +0.360 C 
ATOM     10  N   LIG    1       -3.103   5.608   2.252  0.00  0.00    -0.370 N 
ATOM     11  C   LIG    1       -2.719   4.923   1.144  0.00  0.00    +0.230 A 
ATOM     12  C   LIG    1       -2.069   3.805   1.558  0.00  0.00    +0.000 A 
ATOM     13  C   LIG    1       -2.062   3.807   2.961  0.00  0.00    +0.230 A 
ATOM     14  N   LIG    1       -2.674   4.886   3.374  0.00  0.00    -0.280 NA
ENDBRANCH   3  12
ENDBRANCH   1   6
BRANCH   1  15
ATOM     15  C   LIG    1       -2.167   0.850  -3.045  0.00  0.00    +0.300 C 
BRANCH  15  16
ATOM     16  C   LIG    1       -3.169  -0.191  -3.474  0.00  0.00    -0.060 A 
ATOM     17  C   LIG    1       -4.512  -0.053  -3.486  0.00  0.00    +0.260 A 
ATOM     18  N   LIG    1       -5.053  -1.191  -3.929  0.00  0.00    -0.480 NA
ATOM     19  C   LIG    1       -4.088  -2.057  -4.202  0.00  0.00    +0.240 A 
ATOM     20  C   LIG    1       -4.114  -3.381  -4.689  0.00  0.00    +0.100 A 
ATOM     21  C   LIG    1       -2.947  -4.046  -4.879  0.00  0.00    +0.070 A 
ATOM     22  C   LIG    1       -1.719  -3.402  -4.585  0.00  0.00    -0.040 A 
ATOM     23  C   LIG    1       -1.717  -2.120  -4.114  0.00  0.00    +0.290 A 
ATOM     24  N   LIG    1       -2.887  -1.452  -3.929  0.00  0.00    -0.360 N 
BRANCH  22  25
ATOM     25  C   LIG    1       -0.481  -4.095  -4.782  0.00  0.00    +0.260 C 
ATOM     26  N   LIG    1        0.500  -4.644  -4.938  0.00  0.00    -0.390 NA
ENDBRANCH  22  25
ENDBRANCH  15  16
ENDBRANCH   1  15
TORSDOF 5
