REMARK  Name = ZINCbw0000000Hr3.0
REMARK                            x       y       z     vdW  Elec       q    Type
REMARK                         _______ _______ _______ _____ _____    ______ ____
ROOT
ATOM      1  C   LIG    1        1.213  -0.680  -0.013  0.00  0.00    +0.100 A 
ATOM      2  C   LIG    1        0.002  -0.004   0.002  0.00  0.00    -0.010 A 
ATOM      3  C   LIG    1       -0.017   1.377   0.010  0.00  0.00    +0.030 A 
ATOM      4  C   LIG    1        1.171   2.086   0.002  0.00  0.00    -0.080 A 
ATOM      5  C   LIG    1        2.379   1.415  -0.013  0.00  0.00    +0.030 A 
ATOM      6  C   LIG    1        2.403   0.033  -0.021  0.00  0.00    -0.010 A 
ENDROOT
BRANCH   4   7
ATOM      7  C   LIG    1        1.147   3.593   0.010  0.00  0.00    +0.020 C 
ATOM      8  C   LIG    1        2.247   4.230  -0.855  0.00  0.00    +0.010 C 
ATOM      9  C   LIG    1        2.412   5.274   0.263  0.00  0.00    +0.010 C 
ATOM     10  C   LIG    1        1.853   4.213   1.227  0.00  0.00    +0.020 C 
ENDBRANCH   4   7
BRANCH   1  11
ATOM     11  O   LIG    1        1.234  -2.039  -0.020  0.00  0.00    -0.500 OA
ATOM     12  H   LIG    1        1.232  -2.428  -0.906  0.00  0.00    +0.390 HD
ENDBRANCH   1  11
TORSDOF 2
