REMARK  Name = ZINCvU00000005Ts.0
REMARK                            x       y       z     vdW  Elec       q    Type
REMARK                         _______ _______ _______ _____ _____    ______ ____
ROOT
ATOM      1  C   LIG    1       -0.839   3.702   0.230  0.00  0.00    +0.190 A 
ATOM      2  C   LIG    1        0.413   4.206   0.578  0.00  0.00    -0.080 A 
ATOM      3  C   LIG    1        1.502   3.381   0.613  0.00  0.00    +0.160 A 
ATOM      4  C   LIG    1        1.355   2.030   0.301  0.00  0.00    -0.250 A 
ATOM      5  C   LIG    1        2.506   1.107   0.315  0.00  0.00    +0.440 A 
ATOM      6  C   LIG    1        2.282  -0.210  -0.310  0.00  0.00    -0.150 A 
ATOM      7  C   LIG    1        1.004  -0.570  -0.602  0.00  0.00    +0.050 A 
ATOM      8  O   LIG    1       -0.049   0.201  -0.333  0.00  0.00    -0.190 OA
ATOM      9  O   LIG    1        3.576   1.415   0.812  0.00  0.00    -0.430 OA
ATOM     10  C   LIG    1        0.095   1.508  -0.044  0.00  0.00    +0.180 A 
ATOM     11  C   LIG    1       -1.000   2.362  -0.075  0.00  0.00    -0.130 A 
ATOM     12  C   LIG    1       -2.361   1.831  -0.445  0.00  0.00    +0.120 C 
ENDROOT
BRANCH   6  13
ATOM     13  C   LIG    1        3.417  -1.116  -0.611  0.00  0.00    -0.040 A 
ATOM     14  C   LIG    1        3.648  -2.236   0.185  0.00  0.00    +0.020 A 
ATOM     15  C   LIG    1        4.704  -3.078  -0.102  0.00  0.00    +0.020 A 
ATOM     16  C   LIG    1        5.537  -2.805  -1.172  0.00  0.00    +0.020 A 
ATOM     17  C   LIG    1        5.316  -1.692  -1.962  0.00  0.00    +0.020 A 
ATOM     18  C   LIG    1        4.260  -0.846  -1.688  0.00  0.00    +0.020 A 
ENDBRANCH   6  13
BRANCH   7  19
ATOM     19  C   LIG    1        0.767  -1.905  -1.259  0.00  0.00    +0.530 C 
ATOM     20  F   LIG    1       -0.016  -1.728  -2.405  0.00  0.00    -0.160 F 
ATOM     21  F   LIG    1        0.103  -2.753  -0.367  0.00  0.00    -0.160 F 
ATOM     22  F   LIG    1        1.995  -2.473  -1.617  0.00  0.00    -0.140 F 
ENDBRANCH   7  19
BRANCH   1  23
ATOM     23  O   LIG    1       -1.911   4.534   0.195  0.00  0.00    -0.270 OA
BRANCH  23  24
ATOM     24  C   LIG    1       -1.680   5.905   0.525  0.00  0.00    +0.240 C 
BRANCH  24  27
ATOM     25  N   LIG    1       -3.000   7.989   0.702  0.00  0.00    -0.720 N 
ATOM     26  H   LIG    1       -2.184   8.447   0.956  0.00  0.00    +0.400 HD
ATOM     27  C   LIG    1       -2.976   6.669   0.433  0.00  0.00    +0.520 C 
ATOM     28  O   LIG    1       -3.997   6.095   0.116  0.00  0.00    -0.510 OA
BRANCH  25  29
ATOM     29  C   LIG    1       -4.260   8.732   0.612  0.00  0.00    +0.230 C 
ATOM     30  C   LIG    1       -5.026   8.597   1.930  0.00  0.00    +0.020 C 
BRANCH  29  32
ATOM     31  C   LIG    1       -3.309  10.354  -1.032  0.00  0.00    +0.020 C 
ATOM     32  C   LIG    1       -3.963  10.208   0.343  0.00  0.00    +0.020 C 
ENDBRANCH  29  32
ENDBRANCH  25  29
ENDBRANCH  24  27
ENDBRANCH  23  24
ENDBRANCH   1  23
TORSDOF 7
