REMARK  Name = ZINCkj000005l1C1.0
REMARK                            x       y       z     vdW  Elec       q    Type
REMARK                         _______ _______ _______ _____ _____    ______ ____
ROOT
ATOM      1  C   LIG    1       -0.083  -1.964   1.379  0.00  0.00    +0.180 C 
ATOM      2  C   LIG    1       -1.373  -2.544   0.755  0.00  0.00    +0.100 C 
ATOM      3  C   LIG    1       -1.661  -3.780   1.578  0.00  0.00    +0.520 C 
ATOM      4  N   LIG    1       -0.959  -3.746   2.724  0.00  0.00    -0.550 N 
ATOM      5  O   LIG    1       -2.417  -4.671   1.252  0.00  0.00    -0.470 OA
ATOM      6  C   LIG    1       -0.148  -2.526   2.817  0.00  0.00    +0.300 C 
ENDROOT
BRANCH   4   7
ATOM      7  C   LIG    1       -0.996  -4.746   3.701  0.00  0.00    +0.140 A 
ATOM      8  C   LIG    1       -1.887  -5.805   3.582  0.00  0.00    +0.000 A 
ATOM      9  C   LIG    1       -1.917  -6.793   4.546  0.00  0.00    +0.040 A 
ATOM     10  C   LIG    1       -1.069  -6.723   5.636  0.00  0.00    +0.000 A 
ATOM     11  C   LIG    1       -0.183  -5.668   5.761  0.00  0.00    +0.040 A 
ATOM     12  C   LIG    1       -0.145  -4.680   4.797  0.00  0.00    -0.030 A 
ENDBRANCH   4   7
BRANCH   1  13
ATOM     13  N   LIG    1       -0.116  -0.496   1.387  0.00  0.00    -0.500 N 
ATOM     14  H   LIG    1       -0.985  -0.181   1.790  0.00  0.00    +0.420 HD
ATOM     15  H   LIG    1        0.656  -0.145   1.934  0.00  0.00    +0.440 HD
BRANCH  13  16
ATOM     16  C   LIG    1       -0.006   0.004   0.009  0.00  0.00    +0.390 C 
BRANCH  16  22
ATOM     17  C   LIG    1       -2.548   1.841   0.006  0.00  0.00    +0.340 C 
ATOM     18  N   LIG    1       -1.157   2.301   0.015  0.00  0.00    -0.460 N 
ATOM     19  C   LIG    1       -0.738   3.585   0.026  0.00  0.00    +0.460 A 
ATOM     20  N   LIG    1        0.567   3.598   0.026  0.00  0.00    -0.490 NA
ATOM     21  C   LIG    1        1.023   2.337   0.021  0.00  0.00    +0.230 A 
ATOM     22  C   LIG    1       -0.040   1.510   0.017  0.00  0.00    -0.130 A 
ENDBRANCH  16  22
ENDBRANCH  13  16
ENDBRANCH   1  13
TORSDOF 4
