REMARK  Name = ZINCqH0000000rmH.0
REMARK                            x       y       z     vdW  Elec       q    Type
REMARK                         _______ _______ _______ _____ _____    ______ ____
ROOT
ATOM      1  C   LIG    1       -0.976  -0.790   0.215  0.00  0.00    +0.510 C 
ATOM      2  N   LIG    1        0.221  -0.183   0.090  0.00  0.00    -0.670 N 
ATOM      3  H   LIG    1        1.010  -0.707  -0.120  0.00  0.00    +0.410 HD
ATOM      4  O   LIG    1       -1.977  -0.126   0.385  0.00  0.00    -0.500 OA
ENDROOT
BRANCH   2   5
ATOM      5  C   LIG    1        0.326   1.203   0.264  0.00  0.00    +0.130 A 
ATOM      6  C   LIG    1        1.257   1.927  -0.470  0.00  0.00    +0.040 A 
ATOM      7  C   LIG    1        1.356   3.293  -0.302  0.00  0.00    -0.030 A 
ATOM      8  C   LIG    1        0.533   3.942   0.607  0.00  0.00    +0.090 A 
ATOM      9  C   LIG    1       -0.394   3.219   1.344  0.00  0.00    +0.040 A 
ATOM     10  C   LIG    1       -0.497   1.853   1.173  0.00  0.00    +0.070 A 
BRANCH   8  11
ATOM     11  O   LIG    1        0.635   5.288   0.776  0.00  0.00    -0.310 OA
BRANCH  11  12
ATOM     12  C   LIG    1        1.610   5.969  -0.015  0.00  0.00    +0.600 C 
ATOM     13  F   LIG    1        2.881   5.457   0.268  0.00  0.00    -0.170 F 
ATOM     14  F   LIG    1        1.581   7.336   0.282  0.00  0.00    -0.130 F 
ATOM     15  F   LIG    1        1.324   5.781  -1.372  0.00  0.00    -0.170 F 
ENDBRANCH  11  12
ENDBRANCH   8  11
ENDBRANCH   2   5
BRANCH   1  16
ATOM     16  C   LIG    1       -1.071  -2.292   0.143  0.00  0.00    +0.080 C 
BRANCH  16  17
ATOM     17  C   LIG    1       -2.530  -2.720   0.313  0.00  0.00    +0.310 C 
BRANCH  17  18
ATOM     18  C   LIG    1       -2.610  -4.224   0.364  0.00  0.00    -0.100 A 
ATOM     19  C   LIG    1       -2.601  -4.957  -0.808  0.00  0.00    +0.010 A 
ATOM     20  C   LIG    1       -2.671  -6.336  -0.761  0.00  0.00    +0.000 A 
ATOM     21  C   LIG    1       -2.757  -6.983   0.458  0.00  0.00    +0.000 A 
ATOM     22  C   LIG    1       -2.771  -6.250   1.629  0.00  0.00    +0.000 A 
ATOM     23  C   LIG    1       -2.698  -4.870   1.583  0.00  0.00    +0.020 A 
ENDBRANCH  17  18
BRANCH  17  26
ATOM     24  C   LIG    1       -5.468  -1.582  -1.859  0.00  0.00    +0.090 C 
ATOM     25  C   LIG    1       -4.636  -1.989  -0.670  0.00  0.00    +0.520 C 
ATOM     26  N   LIG    1       -3.318  -2.227  -0.820  0.00  0.00    -0.720 N 
ATOM     27  H   LIG    1       -2.891  -2.072  -1.677  0.00  0.00    +0.400 HD
ATOM     28  O   LIG    1       -5.153  -2.103   0.421  0.00  0.00    -0.540 OA
ENDBRANCH  17  26
ENDBRANCH  16  17
ENDBRANCH   1  16
TORSDOF 7
