REMARK  Name = ZINCrg00000fR4EL.0
REMARK                            x       y       z     vdW  Elec       q    Type
REMARK                         _______ _______ _______ _____ _____    ______ ____
ROOT
ATOM      1  C   LIG    1        1.906   2.247  -1.204  0.00  0.00    +0.510 C 
ATOM      2  O   LIG    1        1.275   2.023  -2.218  0.00  0.00    -0.490 OA
ENDROOT
BRANCH   1   7
ATOM      3  C   LIG    1        5.167   3.462  -2.614  0.00  0.00    -0.690 A 
ATOM      4  C   LIG    1        5.883   3.715  -1.457  0.00  0.00    +0.160 A 
ATOM      5  C   LIG    1        5.308   3.492  -0.218  0.00  0.00    +0.000 A 
ATOM      6  C   LIG    1        4.015   3.021  -0.129  0.00  0.00    +0.150 A 
ATOM      7  C   LIG    1        3.289   2.757  -1.292  0.00  0.00    -0.150 A 
ATOM      8  C   LIG    1        3.875   2.985  -2.539  0.00  0.00    +0.210 A 
BRANCH   3   9
ATOM      9  S   LIG    1        5.909   3.749  -4.186  0.00  0.00    +2.700 S 
ATOM     10  O   LIG    1        5.218   2.923  -5.112  0.00  0.00    -0.940 OA
ATOM     11  O   LIG    1        7.314   3.686  -3.985  0.00  0.00    -0.950 OA
BRANCH   9  12
ATOM     12  N   LIG    1        5.567   5.313  -4.610  0.00  0.00    -1.120 NA
ATOM     13  H   LIG    1        5.008   5.496  -5.381  0.00  0.00    +0.430 HD
BRANCH  12  14
ATOM     14  C   LIG    1        6.110   6.422  -3.821  0.00  0.00    +0.430 C 
BRANCH  14  16
ATOM     15  C   LIG    1        5.872   8.676  -5.185  0.00  0.00    +0.060 C 
ATOM     16  C   LIG    1        5.978   7.676  -4.580  0.00  0.00    -0.210 C 
ENDBRANCH  14  16
ENDBRANCH  12  14
ENDBRANCH   9  12
ENDBRANCH   3   9
ENDBRANCH   1   7
BRANCH   1  17
ATOM     17  O   LIG    1        1.343   2.028   0.000  0.00  0.00    -0.320 OA
BRANCH  17  18
ATOM     18  C   LIG    1       -0.019   1.526   0.010  0.00  0.00    +0.200 C 
ATOM     19  C   LIG    1        0.002  -0.004   0.002  0.00  0.00    +0.080 C 
BRANCH  18  20
ATOM     20  C   LIG    1       -0.724   2.012   1.250  0.00  0.00    +0.530 C 
ATOM     21  N   LIG    1       -2.035   1.753   1.425  0.00  0.00    -0.630 N 
ATOM     22  H   LIG    1       -2.525   1.253   0.753  0.00  0.00    +0.420 HD
ATOM     23  O   LIG    1       -0.112   2.636   2.091  0.00  0.00    -0.490 OA
BRANCH  21  24
ATOM     24  C   LIG    1       -2.688   2.203   2.573  0.00  0.00    +0.240 A 
ATOM     25  N   LIG    1       -3.947   2.028   2.879  0.00  0.00    -0.380 NA
ATOM     26  O   LIG    1       -4.218   2.536   3.942  0.00  0.00    +0.100 OA
ATOM     27  C   LIG    1       -3.151   3.128   4.497  0.00  0.00    -0.020 A 
ATOM     28  C   LIG    1       -3.110   3.859   5.814  0.00  0.00    +0.190 C 
ATOM     29  C   LIG    1       -2.117   2.936   3.646  0.00  0.00    -0.040 A 
ENDBRANCH  21  24
ENDBRANCH  18  20
ENDBRANCH  17  18
ENDBRANCH   1  17
TORSDOF 9
