REMARK  Name = ZINCpk00000l5LBA.0
REMARK                            x       y       z     vdW  Elec       q    Type
REMARK                         _______ _______ _______ _____ _____    ______ ____
ROOT
ATOM      1  O   LIG    1       -0.134   5.953  -1.019  0.00  0.00    -0.500 OA
ATOM      2  C   LIG    1       -0.108   5.339   0.031  0.00  0.00    +0.580 C 
ATOM      3  N   LIG    1       -0.114   6.007   1.202  0.00  0.00    -0.720 N 
ATOM      4  H   LIG    1       -0.094   5.517   2.039  0.00  0.00    +0.400 HD
ENDROOT
BRANCH   2   5
ATOM      5  C   LIG    1       -0.069   3.868   0.023  0.00  0.00    -0.120 A 
ATOM      6  C   LIG    1        1.168   3.187   0.008  0.00  0.00    +0.110 A 
ATOM      7  N   LIG    1        2.451   3.596  -0.003  0.00  0.00    -0.490 NA
ATOM      8  C   LIG    1        3.244   2.562  -0.016  0.00  0.00    +0.500 A 
ATOM      9  N   LIG    1        2.514   1.417  -0.014  0.00  0.00    -0.590 N 
ATOM     10  H   LIG    1        2.862   0.512  -0.022  0.00  0.00    +0.430 HD
ATOM     11  C   LIG    1        1.181   1.784   0.000  0.00  0.00    +0.030 A 
ATOM     12  C   LIG    1       -0.013   1.076   0.008  0.00  0.00    +0.080 A 
ATOM     13  C   LIG    1       -1.219   1.747   0.017  0.00  0.00    +0.010 A 
ATOM     14  C   LIG    1       -1.255   3.132   0.031  0.00  0.00    +0.130 A 
ATOM     15  F   LIG    1       -2.444   3.774   0.046  0.00  0.00    -0.120 F 
ENDBRANCH   2   5
BRANCH   3  16
ATOM     16  C   LIG    1       -0.152   7.471   1.210  0.00  0.00    +0.260 C 
ATOM     17  C   LIG    1        0.416   8.021   2.542  0.00  0.00    +0.050 C 
ATOM     18  C   LIG    1       -0.235   9.422   2.640  0.00  0.00    -0.010 C 
ATOM     19  C   LIG    1       -1.664   9.214   2.095  0.00  0.00    +0.000 C 
ATOM     20  C   LIG    1       -1.611   7.973   1.183  0.00  0.00    +0.150 C 
BRANCH  20  21
ATOM     21  O   LIG    1       -1.981   8.327  -0.151  0.00  0.00    -0.550 OA
ATOM     22  H   LIG    1       -2.889   8.651  -0.235  0.00  0.00    +0.380 HD
ENDBRANCH  20  21
BRANCH  18  23
ATOM     23  C   LIG    1       -0.278   9.893   4.095  0.00  0.00    +0.310 C 
BRANCH  23  24
ATOM     24  N   LIG    1       -0.787  11.265   4.150  0.00  0.00    -0.460 N 
ATOM     25  C   LIG    1       -0.042  12.412   4.091  0.00  0.00    +0.110 A 
ATOM     26  C   LIG    1       -0.904  13.443   4.171  0.00  0.00    +0.140 A 
ATOM     27  N   LIG    1       -2.142  12.939   4.286  0.00  0.00    -0.500 NA
ATOM     28  C   LIG    1       -2.080  11.636   4.274  0.00  0.00    +0.380 A 
ENDBRANCH  23  24
ENDBRANCH  18  23
ENDBRANCH   3  16
TORSDOF 5
