REMARK  Name = ZINCrD00000l3t10.0
REMARK                            x       y       z     vdW  Elec       q    Type
REMARK                         _______ _______ _______ _____ _____    ______ ____
ROOT
ATOM      1  O   LIG    1       -0.736   1.573  -4.805  0.00  0.00    -0.340 OA
ENDROOT
BRANCH   1   2
ATOM      2  C   LIG    1       -1.284   1.944  -3.538  0.00  0.00    +0.220 C 
BRANCH   2  12
ATOM      3  C   LIG    1       -1.283   0.431   2.083  0.00  0.00    +0.060 C 
ATOM      4  C   LIG    1       -0.773   1.602   1.240  0.00  0.00    +0.040 C 
ATOM      5  C   LIG    1       -0.013   1.086   0.008  0.00  0.00    +0.290 C 
ATOM      6  N   LIG    1       -0.760   1.590  -1.147  0.00  0.00    -0.550 N 
ATOM      7  C   LIG    1       -1.862   2.336  -0.716  0.00  0.00    +0.140 A 
ATOM      8  C   LIG    1       -2.835   2.993  -1.471  0.00  0.00    -0.040 A 
ATOM      9  C   LIG    1       -3.853   3.681  -0.845  0.00  0.00    +0.050 A 
ATOM     10  C   LIG    1       -3.917   3.725   0.535  0.00  0.00    -0.010 A 
ATOM     11  C   LIG    1       -2.957   3.076   1.290  0.00  0.00    +0.060 A 
ATOM     12  C   LIG    1       -0.433   1.369  -2.436  0.00  0.00    +0.530 C 
ATOM     13  O   LIG    1        0.547   0.708  -2.708  0.00  0.00    -0.480 OA
ATOM     14  C   LIG    1       -1.936   2.386   0.667  0.00  0.00    -0.130 A 
ENDBRANCH   2  12
ENDBRANCH   1   2
BRANCH   1  15
ATOM     15  C   LIG    1       -1.472   2.070  -5.925  0.00  0.00    +0.220 C 
BRANCH  15  16
ATOM     16  C   LIG    1       -0.809   1.622  -7.201  0.00  0.00    +0.530 C 
ATOM     17  N   LIG    1       -1.331   1.975  -8.392  0.00  0.00    -0.550 N 
ATOM     18  C   LIG    1       -0.778   1.601  -9.697  0.00  0.00    +0.290 C 
ATOM     19  C   LIG    1       -1.720   2.236 -10.732  0.00  0.00    +0.040 C 
ATOM     20  C   LIG    1       -2.771   2.945  -9.906  0.00  0.00    -0.130 A 
ATOM     21  C   LIG    1       -3.872   3.688 -10.286  0.00  0.00    +0.060 A 
ATOM     22  C   LIG    1       -4.706   4.232  -9.326  0.00  0.00    -0.010 A 
ATOM     23  C   LIG    1       -4.427   4.044  -7.986  0.00  0.00    +0.050 A 
ATOM     24  C   LIG    1       -3.326   3.307  -7.602  0.00  0.00    -0.040 A 
ATOM     25  C   LIG    1       -0.959   3.236 -11.604  0.00  0.00    +0.060 C 
ATOM     26  C   LIG    1       -2.485   2.747  -8.565  0.00  0.00    +0.140 A 
ATOM     27  O   LIG    1        0.196   0.944  -7.157  0.00  0.00    -0.480 OA
ENDBRANCH  15  16
ENDBRANCH   1  15
TORSDOF 4
