REMARK  Name = ZINCAx0000000gFH.0
REMARK                            x       y       z     vdW  Elec       q    Type
REMARK                         _______ _______ _______ _____ _____    ______ ____
ROOT
ATOM      1  C   LIG    1      -10.594   8.023  -3.501  0.00  0.00    -0.010 C 
ATOM      2  C   LIG    1      -10.101   7.953  -4.948  0.00  0.00    +0.040 C 
ATOM      3  C   LIG    1       -9.462   6.583  -5.199  0.00  0.00    +0.280 C 
ATOM      4  N   LIG    1       -8.415   6.359  -4.193  0.00  0.00    -0.610 N 
ATOM      5  C   LIG    1       -8.762   6.486  -2.772  0.00  0.00    +0.280 C 
ATOM      6  C   LIG    1       -7.161   6.037  -4.568  0.00  0.00    +0.560 C 
ATOM      7  O   LIG    1       -6.867   6.007  -5.747  0.00  0.00    -0.520 OA
ATOM      8  C   LIG    1       -9.408   7.862  -2.548  0.00  0.00    +0.030 C 
ENDROOT
BRANCH   6   9
ATOM      9  C   LIG    1       -6.141   5.719  -3.543  0.00  0.00    -0.090 A 
ATOM     10  C   LIG    1       -6.479   4.923  -2.448  0.00  0.00    +0.030 A 
ATOM     11  C   LIG    1       -5.529   4.629  -1.492  0.00  0.00    +0.100 A 
ATOM     12  C   LIG    1       -4.234   5.128  -1.625  0.00  0.00    -0.150 A 
ATOM     13  C   LIG    1       -3.206   4.819  -0.600  0.00  0.00    +0.530 C 
ATOM     14  O   LIG    1       -1.925   5.164  -0.886  0.00  0.00    -0.350 OA
ATOM     15  C   LIG    1       -1.779   6.469  -1.518  0.00  0.00    +0.240 C 
ATOM     16  C   LIG    1       -2.492   6.458  -2.870  0.00  0.00    +0.110 C 
ATOM     17  O   LIG    1       -3.498   4.280   0.448  0.00  0.00    -0.440 OA
ATOM     18  C   LIG    1       -3.892   5.922  -2.720  0.00  0.00    -0.040 A 
ATOM     19  C   LIG    1       -4.844   6.216  -3.674  0.00  0.00    +0.070 A 
BRANCH  15  20
ATOM     20  C   LIG    1       -0.317   6.769  -1.722  0.00  0.00    -0.100 A 
ATOM     21  C   LIG    1        0.543   5.767  -2.134  0.00  0.00    +0.040 A 
ATOM     22  C   LIG    1        1.886   6.041  -2.316  0.00  0.00    +0.010 A 
ATOM     23  C   LIG    1        2.367   7.318  -2.096  0.00  0.00    +0.020 A 
ATOM     24  C   LIG    1        1.507   8.320  -1.689  0.00  0.00    +0.010 A 
ATOM     25  C   LIG    1        0.165   8.046  -1.502  0.00  0.00    +0.030 A 
ENDBRANCH  15  20
ENDBRANCH   6   9
BRANCH   1  31
ATOM     26  C   LIG    1      -14.482   9.622  -0.733  0.00  0.00    -0.010 C 
ATOM     27  C   LIG    1      -14.158  10.701  -1.769  0.00  0.00    +0.050 C 
ATOM     28  C   LIG    1      -12.638  10.843  -1.893  0.00  0.00    +0.280 C 
ATOM     29  N   LIG    1      -12.062   9.525  -2.194  0.00  0.00    -0.610 N 
ATOM     30  C   LIG    1      -12.389   8.394  -1.316  0.00  0.00    +0.280 C 
ATOM     31  C   LIG    1      -11.255   9.356  -3.260  0.00  0.00    +0.520 C 
ATOM     32  O   LIG    1      -11.059  10.277  -4.025  0.00  0.00    -0.530 OA
ATOM     33  C   LIG    1      -13.907   8.280  -1.195  0.00  0.00    +0.030 C 
BRANCH  26  37
ATOM     34  N   LIG    1      -16.498   8.608   0.280  0.00  0.00    -0.860 N 
ATOM     35  H   LIG    1      -17.461   8.531   0.376  0.00  0.00    +0.400 HD
ATOM     36  H   LIG    1      -15.912   8.042   0.805  0.00  0.00    +0.400 HD
ATOM     37  C   LIG    1      -15.977   9.502  -0.584  0.00  0.00    +0.520 C 
ATOM     38  O   LIG    1      -16.710  10.210  -1.241  0.00  0.00    -0.540 OA
ENDBRANCH  26  37
ENDBRANCH   1  31
TORSDOF 4
