REMARK  Name = ZINCpk00000xDwnG.0
REMARK                            x       y       z     vdW  Elec       q    Type
REMARK                         _______ _______ _______ _____ _____    ______ ____
ROOT
ATOM      1  C   LIG    1       -5.439   8.427   3.965  0.00  0.00    +0.010 C 
ATOM      2  C   LIG    1       -6.902   8.001   3.820  0.00  0.00    +0.060 C 
ATOM      3  C   LIG    1       -7.155   7.561   2.375  0.00  0.00    +0.070 C 
ATOM      4  C   LIG    1       -6.185   6.434   2.014  0.00  0.00    +0.080 C 
ATOM      5  N   LIG    1       -4.803   6.911   2.147  0.00  0.00    -0.360 N 
ATOM      6  H   LIG    1       -4.672   7.723   1.563  0.00  0.00    +0.430 HD
ATOM      7  C   LIG    1       -4.532   7.268   3.545  0.00  0.00    +0.270 C 
ENDROOT
BRANCH   1  10
ATOM      8  C   LIG    1       -5.606  11.924   2.421  0.00  0.00    +0.300 C 
ATOM      9  N   LIG    1       -5.771  10.798   3.344  0.00  0.00    -0.600 N 
ATOM     10  C   LIG    1       -5.171   9.619   3.084  0.00  0.00    +0.520 C 
ATOM     11  O   LIG    1       -4.416   9.519   2.140  0.00  0.00    -0.540 OA
ATOM     12  C   LIG    1       -6.587  10.954   4.551  0.00  0.00    +0.280 C 
ENDBRANCH   1  10
BRANCH   4  13
ATOM     13  C   LIG    1       -6.430   5.997   0.593  0.00  0.00    +0.490 C 
ATOM     14  O   LIG    1       -5.605   6.243  -0.271  0.00  0.00    -0.660 OA
ATOM     15  O   LIG    1       -7.453   5.399   0.306  0.00  0.00    -0.640 OA
ENDBRANCH   4  13
BRANCH   5  16
ATOM     16  C   LIG    1       -3.878   5.851   1.726  0.00  0.00    +0.260 C 
BRANCH  16  17
ATOM     17  C   LIG    1       -2.446   6.390   1.736  0.00  0.00    +0.090 C 
BRANCH  17  18
ATOM     18  C   LIG    1       -1.496   5.303   1.304  0.00  0.00    -0.120 A 
ATOM     19  C   LIG    1       -1.181   5.149  -0.033  0.00  0.00    +0.070 A 
ATOM     20  C   LIG    1       -0.316   4.152  -0.435  0.00  0.00    +0.000 A 
ATOM     21  C   LIG    1        0.247   3.292   0.503  0.00  0.00    +0.110 A 
ATOM     22  O   LIG    1        1.106   2.250   0.328  0.00  0.00    -0.300 OA
ATOM     23  C   LIG    1        1.748   1.950   1.579  0.00  0.00    +0.240 C 
ATOM     24  C   LIG    1        0.705   2.413   2.624  0.00  0.00    +0.070 C 
ATOM     25  C   LIG    1       -0.071   3.462   1.845  0.00  0.00    -0.180 A 
ATOM     26  C   LIG    1       -0.938   4.454   2.244  0.00  0.00    +0.060 A 
ENDBRANCH  17  18
ENDBRANCH  16  17
ENDBRANCH   5  16
TORSDOF 5
