REMARK  Name = ZINCpk00000xDwnG.1
REMARK                            x       y       z     vdW  Elec       q    Type
REMARK                         _______ _______ _______ _____ _____    ______ ____
ROOT
ATOM      1  C   LIG    1        5.810  -2.122  -0.942  0.00  0.00    -0.020 C 
ATOM      2  C   LIG    1        6.027  -2.092  -2.458  0.00  0.00    +0.050 C 
ATOM      3  C   LIG    1        5.942  -0.643  -2.947  0.00  0.00    +0.080 C 
ATOM      4  C   LIG    1        4.589  -0.053  -2.544  0.00  0.00    +0.070 C 
ATOM      5  N   LIG    1        4.453  -0.086  -1.083  0.00  0.00    -0.350 N 
ATOM      6  H   LIG    1        5.223   0.414  -0.663  0.00  0.00    +0.390 HD
ATOM      7  C   LIG    1        4.462  -1.477  -0.615  0.00  0.00    +0.290 C 
ENDROOT
BRANCH   1  10
ATOM      8  C   LIG    1        6.976  -5.640   0.012  0.00  0.00    +0.290 C 
ATOM      9  N   LIG    1        6.978  -4.229  -0.382  0.00  0.00    -0.620 N 
ATOM     10  C   LIG    1        5.817  -3.550  -0.461  0.00  0.00    +0.520 C 
ATOM     11  O   LIG    1        4.777  -4.088  -0.145  0.00  0.00    -0.520 OA
ATOM     12  C   LIG    1        8.243  -3.556  -0.690  0.00  0.00    +0.290 C 
ENDBRANCH   1  10
BRANCH   4  13
ATOM     13  C   LIG    1        3.482  -0.862  -3.169  0.00  0.00    +0.500 C 
ATOM     14  O   LIG    1        3.450  -1.020  -4.378  0.00  0.00    -0.630 OA
ATOM     15  O   LIG    1        2.619  -1.359  -2.467  0.00  0.00    -0.660 OA
ENDBRANCH   4  13
BRANCH   5  16
ATOM     16  C   LIG    1        3.188   0.552  -0.696  0.00  0.00    +0.260 C 
BRANCH  16  17
ATOM     17  C   LIG    1        3.104   0.634   0.830  0.00  0.00    +0.080 C 
BRANCH  17  18
ATOM     18  C   LIG    1        1.806   1.288   1.227  0.00  0.00    -0.120 A 
ATOM     19  C   LIG    1        0.677   0.518   1.438  0.00  0.00    +0.070 A 
ATOM     20  C   LIG    1       -0.514   1.113   1.800  0.00  0.00    +0.000 A 
ATOM     21  C   LIG    1       -0.587   2.493   1.967  0.00  0.00    +0.110 A 
ATOM     22  O   LIG    1       -1.641   3.275   2.329  0.00  0.00    -0.300 OA
ATOM     23  C   LIG    1       -1.379   4.634   1.942  0.00  0.00    +0.240 C 
ATOM     24  C   LIG    1        0.167   4.706   1.971  0.00  0.00    +0.070 C 
ATOM     25  C   LIG    1        0.552   3.257   1.745  0.00  0.00    -0.180 A 
ATOM     26  C   LIG    1        1.740   2.662   1.382  0.00  0.00    +0.060 A 
ENDBRANCH  17  18
ENDBRANCH  16  17
ENDBRANCH   5  16
TORSDOF 5
