REMARK  Name = ZINCtV00001bB3K3.0
REMARK                            x       y       z     vdW  Elec       q    Type
REMARK                         _______ _______ _______ _____ _____    ______ ____
ROOT
ATOM      1  C   LIG    1       -3.052   4.157   1.257  0.00  0.00    +0.310 A 
ATOM      2  N   LIG    1       -4.173   4.793   1.388  0.00  0.00    -0.460 NA
ATOM      3  C   LIG    1       -4.595   5.023   2.632  0.00  0.00    +0.110 A 
ATOM      4  C   LIG    1       -3.779   4.564   3.608  0.00  0.00    -0.070 A 
ATOM      5  S   LIG    1       -2.393   3.787   2.847  0.00  0.00    +0.100 S 
ENDROOT
BRANCH   1   8
ATOM      6  C   LIG    1       -2.411   3.799  -2.428  0.00  0.00    +0.110 C 
ATOM      7  C   LIG    1       -3.056   4.160  -1.115  0.00  0.00    +0.510 C 
ATOM      8  N   LIG    1       -2.457   3.824   0.045  0.00  0.00    -0.470 N 
ATOM      9  O   LIG    1       -4.113   4.755  -1.101  0.00  0.00    -0.470 OA
BRANCH   8  10
ATOM     10  C   LIG    1       -1.236   3.138   0.030  0.00  0.00    +0.090 A 
ATOM     11  C   LIG    1       -1.218   1.749   0.017  0.00  0.00    -0.060 A 
ATOM     12  C   LIG    1       -0.013   1.076   0.008  0.00  0.00    +0.010 A 
ATOM     13  C   LIG    1        1.176   1.783   0.000  0.00  0.00    +0.040 A 
ATOM     14  C   LIG    1        1.161   3.166   0.008  0.00  0.00    +0.010 A 
ATOM     15  C   LIG    1       -2.513   0.978   0.019  0.00  0.00    +0.100 C 
ATOM     16  C   LIG    1       -0.041   3.845   0.023  0.00  0.00    -0.060 A 
ATOM     17  C   LIG    1       -0.056   5.352   0.030  0.00  0.00    +0.100 C 
ENDBRANCH   8  10
ENDBRANCH   1   8
BRANCH   3  18
ATOM     18  C   LIG    1       -5.852   5.728   2.922  0.00  0.00    +0.100 C 
ATOM     19  C   LIG    1       -6.628   6.164   1.911  0.00  0.00    +0.060 C 
BRANCH  19  20
ATOM     20  C   LIG    1       -7.885   6.869   2.201  0.00  0.00    +0.190 A 
ATOM     21  N   LIG    1       -8.240   7.069   3.459  0.00  0.00    -0.470 NA
ATOM     22  C   LIG    1       -9.374   7.705   3.766  0.00  0.00    +0.130 A 
ATOM     23  C   LIG    1       -9.747   7.913   5.106  0.00  0.00    +0.050 A 
ATOM     24  C   LIG    1      -10.909   8.564   5.391  0.00  0.00    +0.030 A 
ATOM     25  C   LIG    1      -11.739   9.030   4.374  0.00  0.00    +0.010 A 
ATOM     26  C   LIG    1      -11.410   8.847   3.064  0.00  0.00    +0.030 A 
ATOM     27  C   LIG    1      -10.221   8.181   2.733  0.00  0.00    -0.110 A 
ATOM     28  C   LIG    1       -9.850   7.973   1.388  0.00  0.00    +0.080 A 
ATOM     29  C   LIG    1       -8.682   7.324   1.132  0.00  0.00    -0.020 A 
ENDBRANCH  19  20
ENDBRANCH   3  18
TORSDOF 4
