REMARK  Name = ZINCqH0000008TCD.0
REMARK                            x       y       z     vdW  Elec       q    Type
REMARK                         _______ _______ _______ _____ _____    ______ ____
ROOT
ATOM      1  C   LIG    1       -8.160   8.501   1.624  0.00  0.00    +0.030 C 
ATOM      2  C   LIG    1       -7.208   7.673   2.490  0.00  0.00    -0.020 C 
ATOM      3  C   LIG    1       -8.008   6.553   3.149  0.00  0.00    +0.030 C 
ATOM      4  C   LIG    1       -9.064   6.061   2.190  0.00  0.00    +0.020 C 
ATOM      5  C   LIG    1       -8.519   4.882   1.357  0.00  0.00    +0.250 C 
ATOM      6  N   LIG    1       -7.118   5.098   0.945  0.00  0.00    -0.610 N 
ATOM      7  C   LIG    1       -6.634   6.370   0.460  0.00  0.00    +0.310 C 
ATOM      8  C   LIG    1       -6.257   4.064   1.019  0.00  0.00    +0.700 C 
ATOM      9  N   LIG    1       -6.691   2.853   1.421  0.00  0.00    -0.680 N 
ATOM     10  H   LIG    1       -7.626   2.721   1.640  0.00  0.00    +0.410 HD
ATOM     11  O   LIG    1       -5.088   4.224   0.724  0.00  0.00    -0.560 OA
ATOM     12  C   LIG    1       -6.096   7.208   1.647  0.00  0.00    +0.030 C 
ENDROOT
BRANCH   9  13
ATOM     13  C   LIG    1       -5.795   1.789   1.520  0.00  0.00    +0.200 A 
ATOM     14  C   LIG    1       -6.029   0.767   2.435  0.00  0.00    -0.030 A 
ATOM     15  C   LIG    1       -5.146  -0.284   2.536  0.00  0.00    +0.110 A 
ATOM     16  C   LIG    1       -4.013  -0.324   1.719  0.00  0.00    -0.170 A 
ATOM     17  C   LIG    1       -3.777   0.707   0.805  0.00  0.00    +0.070 A 
ATOM     18  C   LIG    1       -4.668   1.752   0.705  0.00  0.00    +0.020 A 
BRANCH  16  19
ATOM     19  C   LIG    1       -3.064  -1.449   1.825  0.00  0.00    +0.570 C 
ATOM     20  O   LIG    1       -3.267  -2.343   2.624  0.00  0.00    -0.540 OA
ATOM     21  N   LIG    1       -1.975  -1.489   1.032  0.00  0.00    -0.850 N 
ATOM     22  H   LIG    1       -1.812  -0.776   0.395  0.00  0.00    +0.400 HD
ATOM     23  H   LIG    1       -1.353  -2.231   1.099  0.00  0.00    +0.410 HD
ENDBRANCH  16  19
ENDBRANCH   9  13
BRANCH   2  24
ATOM     24  C   LIG    1       -6.650   8.563   3.570  0.00  0.00    -0.070 A 
ATOM     25  C   LIG    1       -5.634   8.104   4.387  0.00  0.00    +0.000 A 
ATOM     26  C   LIG    1       -5.119   8.922   5.375  0.00  0.00    +0.000 A 
ATOM     27  C   LIG    1       -5.627  10.196   5.553  0.00  0.00    +0.000 A 
ATOM     28  C   LIG    1       -6.647  10.652   4.739  0.00  0.00    +0.000 A 
ATOM     29  C   LIG    1       -7.159   9.836   3.748  0.00  0.00    +0.010 A 
ENDBRANCH   2  24
TORSDOF 3
