REMARK  Name = ZINCrH000004swZv.0
REMARK                            x       y       z     vdW  Elec       q    Type
REMARK                         _______ _______ _______ _____ _____    ______ ____
ROOT
ATOM      1  C   LIG    1        5.123   1.794  -1.562  0.00  0.00    +0.610 C 
ATOM      2  N   LIG    1        3.898   1.848  -1.002  0.00  0.00    -0.730 N 
ATOM      3  H   LIG    1        3.285   2.559  -1.244  0.00  0.00    +0.400 HD
ATOM      4  O   LIG    1        5.892   0.901  -1.258  0.00  0.00    -0.500 OA
ENDROOT
BRANCH   1   7
ATOM      5  C   LIG    1        7.827   1.873  -2.952  0.00  0.00    +0.170 C 
ATOM      6  C   LIG    1        6.724   2.876  -3.176  0.00  0.00    +0.170 A 
ATOM      7  C   LIG    1        5.528   2.810  -2.538  0.00  0.00    -0.310 A 
ATOM      8  S   LIG    1        4.546   4.162  -3.099  0.00  0.00    +0.160 S 
ATOM      9  C   LIG    1        5.822   4.680  -4.112  0.00  0.00    +0.080 A 
ATOM     10  N   LIG    1        6.837   3.885  -4.003  0.00  0.00    -0.470 NA
BRANCH   9  11
ATOM     11  C   LIG    1        5.770   5.889  -5.011  0.00  0.00    +0.050 C 
ATOM     12  C   LIG    1        6.881   6.867  -4.618  0.00  0.00    +0.040 C 
ATOM     13  C   LIG    1        6.868   8.053  -5.588  0.00  0.00    -0.010 C 
ATOM     14  C   LIG    1        7.028   7.535  -7.020  0.00  0.00    +0.220 C 
ATOM     15  O   LIG    1        5.981   6.607  -7.309  0.00  0.00    -0.380 OA
ATOM     16  C   LIG    1        5.973   5.454  -6.465  0.00  0.00    +0.240 C 
ENDBRANCH   9  11
ENDBRANCH   1   7
BRANCH   2  17
ATOM     17  C   LIG    1        3.493   0.832  -0.026  0.00  0.00    +0.390 C 
BRANCH  17  18
ATOM     18  C   LIG    1        1.990   0.720  -0.013  0.00  0.00    +0.170 A 
ATOM     19  N   LIG    1        1.291  -0.389  -0.012  0.00  0.00    -0.460 NA
ATOM     20  C   LIG    1        0.002  -0.004   0.002  0.00  0.00    +0.210 A 
ATOM     21  N   LIG    1       -0.015   1.295   0.009  0.00  0.00    -0.380 NA
ATOM     22  O   LIG    1        1.117   1.731   0.001  0.00  0.00    +0.080 OA
BRANCH  20  23
ATOM     23  C   LIG    1       -1.200  -0.912   0.009  0.00  0.00    +0.050 C 
ATOM     24  C   LIG    1       -2.575  -0.267  -0.181  0.00  0.00    +0.050 C 
ATOM     25  C   LIG    1       -2.163  -0.802   1.193  0.00  0.00    +0.060 C 
ENDBRANCH  20  23
ENDBRANCH  17  18
BRANCH  17  26
ATOM     26  C   LIG    1        3.987   1.236   1.365  0.00  0.00    -0.020 C 
ATOM     27  C   LIG    1        5.512   1.350   1.351  0.00  0.00    +0.050 C 
ATOM     28  C   LIG    1        3.564   0.175   2.383  0.00  0.00    +0.040 C 
ENDBRANCH  17  26
ENDBRANCH   2  17
TORSDOF 6
