REMARK  Name = ZINCpe000000XWhq.0
REMARK                            x       y       z     vdW  Elec       q    Type
REMARK                         _______ _______ _______ _____ _____    ______ ____
ROOT
ATOM      1  S   LIG    1       -1.232  -0.745  -1.102  0.00  0.00    +2.620 S 
ATOM      2  O   LIG    1       -0.905  -0.485  -2.461  0.00  0.00    -0.940 OA
ATOM      3  O   LIG    1       -2.544  -0.517  -0.608  0.00  0.00    -0.940 OA
ENDROOT
BRANCH   1   4
ATOM      4  C   LIG    1        0.002  -0.004   0.002  0.00  0.00    -0.500 C 
ATOM      5  C   LIG    1       -0.019   1.535   0.011  0.00  0.00    +0.350 C 
ATOM      6  N   LIG    1        1.455   1.455  -0.004  0.00  0.00    -0.640 N 
ATOM      7  C   LIG    1        2.449   2.275   0.392  0.00  0.00    +0.550 C 
ATOM      8  O   LIG    1        2.188   3.350   0.887  0.00  0.00    -0.530 OA
ATOM      9  C   LIG    1        1.402   0.118  -0.626  0.00  0.00    +0.340 C 
BRANCH   7  10
ATOM     10  C   LIG    1        3.886   1.854   0.218  0.00  0.00    -0.010 C 
ATOM     11  C   LIG    1        4.172   0.593   1.059  0.00  0.00    +0.030 C 
ATOM     12  C   LIG    1        5.614   0.805   1.583  0.00  0.00    +0.020 C 
ATOM     13  C   LIG    1        5.648   2.324   1.885  0.00  0.00    +0.010 C 
ATOM     14  C   LIG    1        4.824   2.955   0.744  0.00  0.00    +0.040 C 
ENDBRANCH   7  10
ENDBRANCH   1   4
BRANCH   1  15
ATOM     15  N   LIG    1       -1.009  -2.377  -0.934  0.00  0.00    -1.110 NA
ATOM     16  H   LIG    1       -0.701  -2.905  -1.688  0.00  0.00    +0.430 HD
BRANCH  15  22
ATOM     17  C   LIG    1        0.433  -5.423   5.606  0.00  0.00    +0.140 C 
ATOM     18  C   LIG    1       -0.048  -4.982   4.248  0.00  0.00    +0.000 A 
ATOM     19  C   LIG    1        0.558  -4.084   3.445  0.00  0.00    +0.120 A 
ATOM     20  N   LIG    1       -0.208  -3.982   2.322  0.00  0.00    -0.460 N 
ATOM     21  C   LIG    1        0.026  -3.134   1.151  0.00  0.00    +0.270 C 
ATOM     22  C   LIG    1       -1.278  -3.025   0.352  0.00  0.00    +0.240 C 
ATOM     23  C   LIG    1       -1.848  -4.425   0.110  0.00  0.00    +0.050 C 
ATOM     24  C   LIG    1       -2.347  -5.005   1.440  0.00  0.00    +0.170 C 
ATOM     25  C   LIG    1       -1.260  -4.821   2.472  0.00  0.00    +0.210 A 
ATOM     26  N   LIG    1       -1.157  -5.414   3.625  0.00  0.00    -0.480 NA
ENDBRANCH  15  22
ENDBRANCH   1  15
TORSDOF 4
