REMARK  Name = ZINCAx00000009VC.0
REMARK                            x       y       z     vdW  Elec       q    Type
REMARK                         _______ _______ _______ _____ _____    ______ ____
ROOT
ATOM      1  C   LIG    1       -9.053   6.641  -2.253  0.00  0.00    +0.520 C 
ATOM      2  N   LIG    1       -8.422   6.385  -1.091  0.00  0.00    -0.510 N 
ATOM      3  H   LIG    1       -8.868   6.561  -0.247  0.00  0.00    +0.440 HD
ATOM      4  O   LIG    1       -8.495   6.421  -3.308  0.00  0.00    -0.530 OA
ENDROOT
BRANCH   2   5
ATOM      5  N   LIG    1       -7.121   5.865  -1.100  0.00  0.00    -0.520 N 
ATOM      6  H   LIG    1       -6.675   5.689  -1.943  0.00  0.00    +0.430 HD
ATOM      7  C   LIG    1       -6.490   5.609   0.063  0.00  0.00    +0.560 C 
ATOM      8  O   LIG    1       -7.049   5.829   1.120  0.00  0.00    -0.530 OA
BRANCH   7   9
ATOM      9  C   LIG    1       -5.117   5.060   0.054  0.00  0.00    -0.120 A 
ATOM     10  C   LIG    1       -4.460   4.794   1.256  0.00  0.00    +0.090 A 
ATOM     11  C   LIG    1       -3.179   4.283   1.240  0.00  0.00    +0.040 A 
ATOM     12  C   LIG    1       -2.545   4.034   0.036  0.00  0.00    -0.060 A 
ATOM     13  C   LIG    1       -3.188   4.301  -1.159  0.00  0.00    +0.040 A 
ATOM     14  C   LIG    1       -4.472   4.807  -1.158  0.00  0.00    +0.040 A 
BRANCH  12  15
ATOM     15  C   LIG    1       -1.145   3.475   0.026  0.00  0.00    +0.260 C 
BRANCH  15  16
ATOM     16  O   LIG    1       -1.202   2.048   0.019  0.00  0.00    -0.310 OA
BRANCH  16  17
ATOM     17  C   LIG    1       -0.017   1.383   0.010  0.00  0.00    +0.130 A 
ATOM     18  C   LIG    1        1.177   2.091   0.002  0.00  0.00    -0.080 A 
ATOM     19  C   LIG    1        2.380   1.413  -0.013  0.00  0.00    +0.050 A 
ATOM     20  C   LIG    1        2.396   0.030  -0.021  0.00  0.00    -0.040 A 
ATOM     21  C   LIG    1        1.208  -0.677  -0.013  0.00  0.00    +0.050 A 
ATOM     22  C   LIG    1        0.002  -0.004   0.002  0.00  0.00    -0.020 A 
ENDBRANCH  16  17
ENDBRANCH  15  16
ENDBRANCH  12  15
ENDBRANCH   7   9
ENDBRANCH   2   5
BRANCH   1  23
ATOM     23  C   LIG    1      -10.453   7.200  -2.244  0.00  0.00    +0.270 C 
BRANCH  23  24
ATOM     24  N   LIG    1      -10.913   7.389  -3.622  0.00  0.00    -0.710 N 
ATOM     25  H   LIG    1      -10.532   6.856  -4.338  0.00  0.00    +0.410 HD
ATOM     26  C   LIG    1      -11.866   8.302  -3.895  0.00  0.00    +0.570 C 
ATOM     27  O   LIG    1      -12.344   8.969  -2.999  0.00  0.00    -0.530 OA
BRANCH  26  28
ATOM     28  C   LIG    1      -12.330   8.492  -5.285  0.00  0.00    -0.140 A 
ATOM     29  C   LIG    1      -11.779   7.731  -6.318  0.00  0.00    +0.070 A 
ATOM     30  C   LIG    1      -12.220   7.909  -7.613  0.00  0.00    +0.020 A 
ATOM     31  C   LIG    1      -13.199   8.848  -7.891  0.00  0.00    -0.010 A 
ATOM     32  C   LIG    1      -13.746   9.610  -6.871  0.00  0.00    +0.020 A 
ATOM     33 CL   LIG    1      -13.744   9.072  -9.524  0.00  0.00    -0.060 Cl
ATOM     34  C   LIG    1      -13.317   9.437  -5.572  0.00  0.00    +0.110 A 
ENDBRANCH  26  28
ENDBRANCH  23  24
BRANCH  23  35
ATOM     35  C   LIG    1      -11.386   6.226  -1.523  0.00  0.00    +0.060 C 
BRANCH  35  36
ATOM     36  C   LIG    1      -12.779   6.848  -1.403  0.00  0.00    +0.070 C 
BRANCH  36  40
ATOM     37  N   LIG    1      -14.985   6.226  -0.473  0.00  0.00    -0.860 N 
ATOM     38  H   LIG    1      -15.577   5.608  -0.016  0.00  0.00    +0.400 HD
ATOM     39  H   LIG    1      -15.319   7.086  -0.772  0.00  0.00    +0.400 HD
ATOM     40  C   LIG    1      -13.699   5.889  -0.693  0.00  0.00    +0.510 C 
ATOM     41  O   LIG    1      -13.281   4.813  -0.320  0.00  0.00    -0.550 OA
ENDBRANCH  36  40
ENDBRANCH  35  36
ENDBRANCH  23  35
ENDBRANCH   1  23
TORSDOF 11
