REMARK  Name = ZINCrD0000075bJZ.0
REMARK                            x       y       z     vdW  Elec       q    Type
REMARK                         _______ _______ _______ _____ _____    ______ ____
ROOT
ATOM      1  C   LIG    1        0.661   2.962   6.586  0.00  0.00    +0.330 C 
ENDROOT
BRANCH   1   2
ATOM      2  C   LIG    1        2.115   2.844   6.963  0.00  0.00    -0.110 A 
ATOM      3  C   LIG    1        3.038   2.415   6.029  0.00  0.00    +0.170 A 
ATOM      4  C   LIG    1        4.373   2.306   6.374  0.00  0.00    -0.070 A 
ATOM      5  C   LIG    1        4.786   2.624   7.654  0.00  0.00    +0.150 A 
ATOM      6  C   LIG    1        3.866   3.054   8.593  0.00  0.00    -0.200 A 
ATOM      7  C   LIG    1        4.327   3.394   9.988  0.00  0.00    +0.320 C 
ATOM      8  O   LIG    1        3.309   4.151  10.650  0.00  0.00    -0.380 OA
ATOM      9  C   LIG    1        2.008   3.563  10.534  0.00  0.00    +0.450 C 
ATOM     10  O   LIG    1        1.614   3.594   9.160  0.00  0.00    -0.320 OA
ATOM     11  C   LIG    1        2.529   3.171   8.247  0.00  0.00    +0.200 A 
BRANCH   4  12
ATOM     12  N   LIG    1        5.360   1.847   5.372  0.00  0.00    +0.030 N 
ATOM     13  O   LIG    1        6.536   1.751   5.675  0.00  0.00    -0.160 OA
ATOM     14  O   LIG    1        4.997   1.566   4.244  0.00  0.00    -0.160 OA
ENDBRANCH   4  12
ENDBRANCH   1   2
BRANCH   1  15
ATOM     15  O   LIG    1        0.487   2.571   5.199  0.00  0.00    -0.360 OA
BRANCH  15  16
ATOM     16  C   LIG    1       -0.765   2.620   4.701  0.00  0.00    +0.550 C 
ATOM     17  O   LIG    1       -1.687   2.981   5.408  0.00  0.00    -0.510 OA
BRANCH  16  21
ATOM     18  C   LIG    1       -0.013   1.086   0.008  0.00  0.00    +0.330 C 
ATOM     19  N   LIG    1       -0.698   1.558   1.213  0.00  0.00    -0.470 N 
ATOM     20  C   LIG    1       -0.091   1.818   2.396  0.00  0.00    +0.340 A 
ATOM     21  C   LIG    1       -1.016   2.240   3.306  0.00  0.00    -0.230 A 
ATOM     22  C   LIG    1       -2.317   2.237   2.612  0.00  0.00    -0.060 A 
ATOM     23  C   LIG    1       -3.617   2.560   2.992  0.00  0.00    +0.060 A 
ATOM     24  C   LIG    1       -4.643   2.448   2.079  0.00  0.00    +0.000 A 
ATOM     25  C   LIG    1       -4.384   2.017   0.786  0.00  0.00    +0.030 A 
ATOM     26  C   LIG    1       -3.102   1.695   0.396  0.00  0.00    +0.000 A 
ATOM     27  C   LIG    1       -2.053   1.807   1.302  0.00  0.00    +0.080 A 
ENDBRANCH  16  21
ENDBRANCH  15  16
ENDBRANCH   1  15
TORSDOF 5
