REMARK  Name = ZINCtV00000L6kOe.0
REMARK                            x       y       z     vdW  Elec       q    Type
REMARK                         _______ _______ _______ _____ _____    ______ ____
ROOT
ATOM      1  C   LIG    1        2.536   4.367  -2.775  0.00  0.00    -0.350 A 
ATOM      2  C   LIG    1        1.634   3.498  -2.195  0.00  0.00    +0.270 A 
ATOM      3  N   LIG    1        0.597   4.100  -1.652  0.00  0.00    -0.530 NA
ATOM      4  C   LIG    1        0.559   5.397  -1.719  0.00  0.00    +0.340 A 
ATOM      5  S   LIG    1        1.926   6.004  -2.546  0.00  0.00    +0.160 S 
ENDROOT
BRANCH   2   6
ATOM      6  C   LIG    1        1.813   2.027  -2.190  0.00  0.00    -0.040 A 
ATOM      7  C   LIG    1        3.034   1.472  -1.809  0.00  0.00    +0.080 A 
ATOM      8  C   LIG    1        3.194   0.101  -1.806  0.00  0.00    -0.010 A 
ATOM      9  C   LIG    1        2.146  -0.721  -2.180  0.00  0.00    +0.020 A 
ATOM     10  C   LIG    1        0.933  -0.176  -2.560  0.00  0.00    +0.000 A 
ATOM     11  C   LIG    1        0.760   1.193  -2.567  0.00  0.00    +0.040 A 
ENDBRANCH   2   6
BRANCH   1  13
ATOM     12  O   LIG    1        3.986   2.834  -3.648  0.00  0.00    -0.500 OA
ATOM     13  C   LIG    1        3.736   4.007  -3.435  0.00  0.00    +0.600 C 
ATOM     14  N   LIG    1        4.601   4.963  -3.829  0.00  0.00    -0.670 N 
ATOM     15  H   LIG    1        4.439   5.890  -3.595  0.00  0.00    +0.400 HD
BRANCH  14  16
ATOM     16  C   LIG    1        5.732   4.618  -4.574  0.00  0.00    +0.150 A 
ATOM     17  C   LIG    1        6.902   5.357  -4.447  0.00  0.00    -0.030 A 
ATOM     18  C   LIG    1        8.019   5.010  -5.182  0.00  0.00    +0.030 A 
ATOM     19  C   LIG    1        7.971   3.935  -6.050  0.00  0.00    -0.020 A 
ATOM     20  C   LIG    1        6.807   3.201  -6.183  0.00  0.00    +0.030 A 
ATOM     21  C   LIG    1        5.688   3.539  -5.448  0.00  0.00    +0.020 A 
ENDBRANCH  14  16
ENDBRANCH   1  13
BRANCH   4  22
ATOM     22  N   LIG    1       -0.450   6.179  -1.198  0.00  0.00    -0.630 N 
ATOM     23  H   LIG    1       -1.223   5.762  -0.786  0.00  0.00    +0.430 HD
BRANCH  22  24
ATOM     24  C   LIG    1       -0.360   7.575  -1.264  0.00  0.00    +0.040 A 
ATOM     25  C   LIG    1        0.550   8.254  -0.462  0.00  0.00    +0.140 A 
ATOM     26  C   LIG    1        0.640   9.632  -0.534  0.00  0.00    +0.000 A 
ATOM     27  C   LIG    1       -0.182  10.336  -1.394  0.00  0.00    +0.110 A 
ATOM     28  C   LIG    1       -1.092   9.666  -2.190  0.00  0.00    +0.000 A 
ATOM     29  F   LIG    1        1.350   7.567   0.383  0.00  0.00    -0.120 F 
ATOM     30  C   LIG    1       -1.184   8.287  -2.128  0.00  0.00    +0.140 A 
ATOM     31  F   LIG    1       -2.075   7.633  -2.905  0.00  0.00    -0.120 F 
ENDBRANCH  22  24
ENDBRANCH   4  22
TORSDOF 5
