REMARK  Name = ZINCpk00000y6vGv.1
REMARK                            x       y       z     vdW  Elec       q    Type
REMARK                         _______ _______ _______ _____ _____    ______ ____
ROOT
ATOM      1  N   LIG    1       -0.053   5.240   0.042  0.00  0.00    -0.940 N 
ATOM      2  C   LIG    1       -1.316   5.955  -0.190  0.00  0.00    +0.310 C 
ATOM      3  C   LIG    1       -2.416   5.232   0.598  0.00  0.00    +0.160 C 
ATOM      4  C   LIG    1       -2.569   3.815   0.045  0.00  0.00    +0.120 C 
ATOM      5  C   LIG    1       -1.232   3.125  -0.015  0.00  0.00    -0.130 A 
ATOM      6  C   LIG    1       -1.194   1.742  -0.075  0.00  0.00    +0.040 A 
ATOM      7  C   LIG    1        0.018   1.080  -0.130  0.00  0.00    +0.000 A 
ATOM      8  C   LIG    1        1.201   1.795  -0.137  0.00  0.00    +0.070 A 
ATOM      9  C   LIG    1        1.172   3.174  -0.083  0.00  0.00    +0.000 A 
ATOM     10  C   LIG    1       -0.046   3.843  -0.021  0.00  0.00    +0.180 A 
ENDROOT
BRANCH   3  11
ATOM     11  N   LIG    1       -3.684   5.957   0.451  0.00  0.00    -0.380 N 
ATOM     12  C   LIG    1       -3.534   7.318   0.983  0.00  0.00    +0.330 C 
ATOM     13  C   LIG    1       -4.739   5.255   1.194  0.00  0.00    +0.330 C 
ATOM     14  H   LIG    1       -3.934   6.003  -0.525  0.00  0.00    +0.430 HD
ENDBRANCH   3  11
BRANCH   1  15
ATOM     15  S   LIG    1        1.339   6.076   0.370  0.00  0.00    +2.710 S 
ATOM     16  O   LIG    1        2.121   5.237   1.209  0.00  0.00    -0.930 OA
ATOM     17  O   LIG    1        0.941   7.389   0.738  0.00  0.00    -0.960 OA
BRANCH  15  21
ATOM     18  C   LIG    1        3.110   7.884  -4.240  0.00  0.00    +0.330 C 
ATOM     19  N   LIG    1        2.943   7.017  -3.072  0.00  0.00    -0.390 N 
ATOM     20  C   LIG    1        2.108   7.244  -2.038  0.00  0.00    +0.260 A 
ATOM     21  C   LIG    1        2.225   6.230  -1.145  0.00  0.00    -0.760 A 
ATOM     22  C   LIG    1        3.176   5.333  -1.636  0.00  0.00    +0.060 A 
ATOM     23  C   LIG    1        3.615   5.835  -2.847  0.00  0.00    -0.020 A 
BRANCH  23  24
ATOM     24  C   LIG    1        4.612   5.226  -3.725  0.00  0.00    +0.540 C 
ATOM     25  O   LIG    1        5.140   4.166  -3.410  0.00  0.00    -0.660 OA
ATOM     26  O   LIG    1        4.921   5.776  -4.775  0.00  0.00    -0.680 OA
ENDBRANCH  23  24
ENDBRANCH  15  21
ENDBRANCH   1  15
TORSDOF 4
