REMARK  Name = ZINCpe00000gN7Am.0
REMARK                            x       y       z     vdW  Elec       q    Type
REMARK                         _______ _______ _______ _____ _____    ______ ____
ROOT
ATOM      1  C   LIG    1       -4.577   6.325   0.074  0.00  0.00    +0.470 C 
ATOM      2  O   LIG    1       -5.298   5.354   0.077  0.00  0.00    -0.500 OA
ENDROOT
BRANCH   1   6
ATOM      3  N   LIG    1       -6.747   9.784   1.191  0.00  0.00    -1.010 NA
ATOM      4  C   LIG    1       -7.308   9.009   0.076  0.00  0.00    +0.300 C 
ATOM      5  C   LIG    1       -6.703   7.602   0.099  0.00  0.00    +0.050 C 
ATOM      6  C   LIG    1       -5.176   7.707   0.086  0.00  0.00    +0.040 C 
ATOM      7  C   LIG    1       -4.705   8.457   1.334  0.00  0.00    +0.050 C 
ATOM      8  C   LIG    1       -5.287   9.874   1.325  0.00  0.00    +0.300 C 
BRANCH   3   9
ATOM      9  S   LIG    1       -7.742  10.540   2.277  0.00  0.00    +2.790 S 
ATOM     10  O   LIG    1       -8.982  10.743   1.613  0.00  0.00    -0.980 OA
ATOM     11  O   LIG    1       -6.984  11.598   2.847  0.00  0.00    -0.980 OA
BRANCH   9  12
ATOM     12  N   LIG    1       -8.039   9.465   3.502  0.00  0.00    -1.260 NA
ATOM     13  H   LIG    1       -8.044   8.513   3.320  0.00  0.00    +0.410 HD
ATOM     14  H   LIG    1       -8.207   9.789   4.401  0.00  0.00    +0.420 HD
ENDBRANCH   9  12
ENDBRANCH   3   9
ENDBRANCH   1   6
BRANCH   1  15
ATOM     15  O   LIG    1       -3.244   6.171   0.061  0.00  0.00    -0.330 OA
BRANCH  15  16
ATOM     16  C   LIG    1       -2.738   4.810   0.051  0.00  0.00    +0.240 C 
BRANCH  16  17
ATOM     17  C   LIG    1       -1.231   4.835   0.037  0.00  0.00    +0.420 C 
ATOM     18  O   LIG    1       -0.641   5.896   0.036  0.00  0.00    -0.410 OA
BRANCH  17  19
ATOM     19  C   LIG    1       -0.479   3.581   0.025  0.00  0.00    -0.020 A 
ATOM     20  C   LIG    1        0.879   3.474   0.012  0.00  0.00    +0.070 A 
ATOM     21  C   LIG    1        1.202   2.097   0.002  0.00  0.00    -0.130 A 
ATOM     22  C   LIG    1        2.413   1.393  -0.013  0.00  0.00    +0.070 A 
ATOM     23  C   LIG    1        2.405   0.028  -0.021  0.00  0.00    -0.020 A 
ATOM     24  C   LIG    1        1.206  -0.672  -0.013  0.00  0.00    +0.050 A 
ATOM     25  C   LIG    1        0.002  -0.004   0.002  0.00  0.00    -0.010 A 
ATOM     26  C   LIG    1       -0.017   1.388   0.010  0.00  0.00    +0.120 A 
ATOM     27  N   LIG    1       -1.033   2.314   0.019  0.00  0.00    -0.580 N 
ATOM     28  H   LIG    1       -1.982   2.111   0.022  0.00  0.00    +0.420 HD
ENDBRANCH  17  19
ENDBRANCH  16  17
ENDBRANCH  15  16
ENDBRANCH   1  15
TORSDOF 7
