REMARK  Name = ZINCrg00000OJxg4.0
REMARK                            x       y       z     vdW  Elec       q    Type
REMARK                         _______ _______ _______ _____ _____    ______ ____
ROOT
ATOM      1  C   LIG    1        2.272   2.003  -7.643  0.00  0.00    +0.540 C 
ATOM      2  N   LIG    1        1.230   1.960  -6.790  0.00  0.00    -0.620 N 
ATOM      3  C   LIG    1        1.269   1.954  -5.307  0.00  0.00    +0.260 C 
ATOM      4  C   LIG    1        0.162   0.960  -4.895  0.00  0.00    +0.250 C 
ATOM      5  C   LIG    1       -0.814   0.928  -6.089  0.00  0.00    +0.020 C 
ATOM      6  C   LIG    1       -0.213   1.908  -7.121  0.00  0.00    +0.280 C 
ATOM      7  O   LIG    1        2.077   2.000  -8.840  0.00  0.00    -0.510 OA
ENDROOT
BRANCH   4   8
ATOM      8  N   LIG    1       -0.524   1.433  -3.689  0.00  0.00    -0.720 N 
ATOM      9  H   LIG    1       -1.321   1.980  -3.768  0.00  0.00    +0.400 HD
ATOM     10  C   LIG    1       -0.047   1.107  -2.471  0.00  0.00    +0.520 C 
ATOM     11  O   LIG    1        0.949   0.422  -2.373  0.00  0.00    -0.530 OA
BRANCH  10  12
ATOM     12  C   LIG    1       -0.753   1.593  -1.232  0.00  0.00    +0.060 C 
BRANCH  12  13
ATOM     13  C   LIG    1       -0.013   1.086   0.008  0.00  0.00    +0.110 C 
BRANCH  13  14
ATOM     14  C   LIG    1       -0.718   1.572   1.248  0.00  0.00    -0.040 A 
ATOM     15  C   LIG    1       -0.372   2.780   1.834  0.00  0.00    -0.030 A 
ATOM     16  C   LIG    1       -1.044   3.195   2.968  0.00  0.00    +0.260 A 
ATOM     17  N   LIG    1       -1.997   2.453   3.497  0.00  0.00    -0.490 NA
ATOM     18  C   LIG    1       -2.349   1.297   2.970  0.00  0.00    +0.260 A 
ATOM     19  C   LIG    1       -1.725   0.819   1.833  0.00  0.00    -0.030 A 
ENDBRANCH  13  14
ENDBRANCH  12  13
ENDBRANCH  10  12
ENDBRANCH   4   8
BRANCH   5  20
ATOM     20  C   LIG    1       -0.890  -0.482  -6.677  0.00  0.00    -0.040 C 
ATOM     21  C   LIG    1       -2.279  -1.093  -6.872  0.00  0.00    +0.030 C 
ATOM     22  C   LIG    1       -1.367  -1.607  -5.755  0.00  0.00    +0.010 C 
ENDBRANCH   5  20
BRANCH   1  23
ATOM     23  C   LIG    1        3.681   2.054  -7.109  0.00  0.00    +0.210 C 
BRANCH  23  24
ATOM     24  O   LIG    1        4.603   2.092  -8.200  0.00  0.00    -0.360 OA
BRANCH  24  25
ATOM     25  C   LIG    1        5.974   2.142  -7.801  0.00  0.00    +0.190 C 
BRANCH  25  26
ATOM     26  C   LIG    1        6.866   2.180  -9.044  0.00  0.00    +0.190 C 
BRANCH  26  28
ATOM     27  C   LIG    1        7.423   3.533 -10.942  0.00  0.00    +0.200 C 
ATOM     28  O   LIG    1        6.636   3.397  -9.758  0.00  0.00    -0.380 OA
ENDBRANCH  26  28
ENDBRANCH  25  26
ENDBRANCH  24  25
ENDBRANCH  23  24
ENDBRANCH   1  23
TORSDOF 10
