REMARK  Name = ZINCrD0000074w4b.0
REMARK                            x       y       z     vdW  Elec       q    Type
REMARK                         _______ _______ _______ _____ _____    ______ ____
ROOT
ATOM      1  C   LIG    1       -0.212  12.358   0.642  0.00  0.00    +0.160 C 
ATOM      2  C   LIG    1       -0.668  11.401  -0.429  0.00  0.00    +0.220 A 
ATOM      3  C   LIG    1       -0.485  10.041  -0.273  0.00  0.00    -0.130 A 
ATOM      4  C   LIG    1       -0.919   9.190  -1.293  0.00  0.00    +0.390 A 
ATOM      5  N   LIG    1       -1.498   9.716  -2.368  0.00  0.00    -0.500 NA
ATOM      6  C   LIG    1       -1.658  11.024  -2.475  0.00  0.00    +0.580 A 
ATOM      7  N   LIG    1       -1.253  11.854  -1.528  0.00  0.00    -0.540 NA
ENDROOT
BRANCH   6   8
ATOM      8  N   LIG    1       -2.270  11.543  -3.616  0.00  0.00    -0.320 N 
ATOM      9  N   LIG    1       -2.753  10.802  -4.703  0.00  0.00    -0.260 NA
ATOM     10  C   LIG    1       -3.256  11.636  -5.576  0.00  0.00    +0.090 A 
ATOM     11  C   LIG    1       -3.113  12.936  -5.078  0.00  0.00    -0.100 A 
ATOM     12  C   LIG    1       -3.884  11.260  -6.893  0.00  0.00    +0.170 C 
ATOM     13  C   LIG    1       -2.510  12.856  -3.870  0.00  0.00    +0.110 A 
ATOM     14  C   LIG    1       -2.163  14.014  -2.970  0.00  0.00    +0.160 C 
ENDBRANCH   6   8
BRANCH   4  15
ATOM     15  N   LIG    1       -0.752   7.819  -1.183  0.00  0.00    -0.500 N 
ATOM     16  C   LIG    1        0.660   7.476  -0.965  0.00  0.00    +0.220 C 
ATOM     17  C   LIG    1        0.812   5.954  -0.929  0.00  0.00    +0.200 C 
ATOM     18  N   LIG    1       -0.031   5.404   0.141  0.00  0.00    -0.500 N 
ATOM     19  C   LIG    1       -1.444   5.748  -0.077  0.00  0.00    +0.150 C 
ATOM     20  C   LIG    1       -2.290   5.177   1.063  0.00  0.00    +0.040 C 
ATOM     21  C   LIG    1       -1.596   7.270  -0.113  0.00  0.00    +0.230 C 
BRANCH  18  22
ATOM     22  C   LIG    1        0.136   4.022   0.252  0.00  0.00    +0.090 A 
ATOM     23  C   LIG    1        0.570   3.467   1.449  0.00  0.00    +0.040 A 
ATOM     24  C   LIG    1        0.736   2.100   1.554  0.00  0.00    +0.020 A 
ATOM     25  C   LIG    1        0.470   1.284   0.470  0.00  0.00    +0.000 A 
ATOM     26  C   LIG    1        0.043   1.834  -0.725  0.00  0.00    +0.010 A 
ATOM     27  C   LIG    1       -0.130   3.200  -0.836  0.00  0.00    -0.030 A 
ENDBRANCH  18  22
ENDBRANCH   4  15
TORSDOF 3
