REMARK  Name = ZINCtV00001bB397.0
REMARK                            x       y       z     vdW  Elec       q    Type
REMARK                         _______ _______ _______ _____ _____    ______ ____
ROOT
ATOM      1  C   LIG    1       -1.121  -0.833   0.014  0.00  0.00    -0.060 A 
ATOM      2  C   LIG    1        0.002  -0.004   0.002  0.00  0.00    +0.240 A 
ATOM      3  O   LIG    1        1.105  -0.772  -0.012  0.00  0.00    -0.180 OA
ATOM      4  C   LIG    1        0.787  -2.081  -0.015  0.00  0.00    +0.120 A 
ATOM      5  C   LIG    1       -0.596  -2.208  -0.003  0.00  0.00    -0.040 A 
ENDROOT
BRANCH   4   6
ATOM      6  C   LIG    1        1.744  -3.190  -0.029  0.00  0.00    +0.030 A 
ATOM      7  C   LIG    1        3.105  -3.075  -0.047  0.00  0.00    +0.000 A 
ATOM      8  C   LIG    1        3.622  -4.384  -0.052  0.00  0.00    -0.050 A 
ATOM      9  C   LIG    1        2.568  -5.226  -0.047  0.00  0.00    +0.200 A 
ATOM     10  O   LIG    1        1.436  -4.502  -0.033  0.00  0.00    -0.150 OA
ENDBRANCH   4   6
BRANCH   5  11
ATOM     11  C   LIG    1       -1.375  -3.458  -0.002  0.00  0.00    +0.040 A 
ATOM     12  C   LIG    1       -2.180  -3.899   1.005  0.00  0.00    -0.020 A 
ATOM     13  C   LIG    1       -2.725  -5.126   0.581  0.00  0.00    -0.060 A 
ATOM     14  C   LIG    1       -2.227  -5.378  -0.645  0.00  0.00    +0.180 A 
ATOM     15  O   LIG    1       -1.411  -4.369  -0.995  0.00  0.00    -0.160 OA
ENDBRANCH   5  11
BRANCH   1  17
ATOM     16  N   LIG    1       -3.584  -0.110   0.052  0.00  0.00    -0.390 NA
ATOM     17  C   LIG    1       -2.494  -0.429   0.035  0.00  0.00    +0.290 C 
ENDBRANCH   1  17
BRANCH   2  18
ATOM     18  N   LIG    1       -0.016   1.342   0.009  0.00  0.00    -0.440 NA
ATOM     19  C   LIG    1        1.109   2.013   0.002  0.00  0.00    +0.370 C 
BRANCH  19  20
ATOM     20  C   LIG    1        1.089   3.480   0.010  0.00  0.00    -0.120 A 
ATOM     21  C   LIG    1       -0.132   4.167   0.020  0.00  0.00    +0.120 A 
ATOM     22  C   LIG    1       -0.144   5.543   0.033  0.00  0.00    -0.060 A 
ATOM     23  C   LIG    1        1.052   6.252   0.025  0.00  0.00    +0.140 A 
ATOM     24  C   LIG    1        2.267   5.576   0.010  0.00  0.00    +0.010 A 
ATOM     25  C   LIG    1        2.291   4.200   0.003  0.00  0.00    +0.120 A 
BRANCH  23  26
ATOM     26  O   LIG    1        1.033   7.609   0.032  0.00  0.00    -0.320 OA
BRANCH  26  27
ATOM     27  C   LIG    1       -0.249   8.241   0.047  0.00  0.00    +0.600 C 
ATOM     28  F   LIG    1       -0.947   7.850   1.194  0.00  0.00    -0.200 F 
ATOM     29  F   LIG    1       -0.969   7.860  -1.090  0.00  0.00    -0.200 F 
ENDBRANCH  26  27
ENDBRANCH  23  26
ENDBRANCH  19  20
ENDBRANCH   2  18
TORSDOF 7
