REMARK  Name = ZINCvU0000000E2X.0
REMARK                            x       y       z     vdW  Elec       q    Type
REMARK                         _______ _______ _______ _____ _____    ______ ____
ROOT
ATOM      1  N   LIG    1       -3.431  -0.550   1.329  0.00  0.00    -0.660 N 
ATOM      2  H   LIG    1       -3.487  -1.516   1.261  0.00  0.00    +0.410 HD
ATOM      3  C   LIG    1       -2.324   0.093   0.908  0.00  0.00    +0.560 C 
ATOM      4  O   LIG    1       -2.292   1.309   0.900  0.00  0.00    -0.500 OA
ENDROOT
BRANCH   3   5
ATOM      5  C   LIG    1       -1.150  -0.678   0.460  0.00  0.00    -0.150 A 
ATOM      6  C   LIG    1       -1.186  -2.072   0.470  0.00  0.00    +0.060 A 
ATOM      7  C   LIG    1       -0.086  -2.789   0.052  0.00  0.00    -0.110 A 
ATOM      8  C   LIG    1        1.051  -2.128  -0.376  0.00  0.00    +0.060 A 
ATOM      9  C   LIG    1        1.105  -0.744  -0.390  0.00  0.00    -0.130 A 
ATOM     10  C   LIG    1        2.382  -0.087  -0.852  0.00  0.00    +0.030 C 
ATOM     11  C   LIG    1        2.885  -0.786  -2.117  0.00  0.00    +0.040 C 
ATOM     12  C   LIG    1        2.121   1.390  -1.156  0.00  0.00    -0.010 C 
ATOM     13  C   LIG    1        1.325   1.978   0.016  0.00  0.00    +0.230 C 
ATOM     14  N   LIG    1       -0.012   1.381   0.020  0.00  0.00    -0.610 N 
ATOM     15  H   LIG    1       -0.569   1.734  -0.744  0.00  0.00    +0.370 HD
ATOM     16  C   LIG    1       -0.123  -4.295   0.059  0.00  0.00    +0.100 C 
ATOM     17  C   LIG    1        0.009  -0.005   0.020  0.00  0.00    +0.180 A 
ENDBRANCH   3   5
BRANCH   1  21
ATOM     18  C   LIG    1       -6.623   1.618   2.922  0.00  0.00    +0.150 A 
ATOM     19  C   LIG    1       -5.338   2.139   2.965  0.00  0.00    -0.090 A 
ATOM     20  C   LIG    1       -4.281   1.421   2.438  0.00  0.00    +0.110 A 
ATOM     21  C   LIG    1       -4.504   0.178   1.864  0.00  0.00    +0.090 A 
ATOM     22  C   LIG    1       -5.795  -0.344   1.815  0.00  0.00    +0.140 A 
ATOM     23  C   LIG    1       -6.851   0.376   2.349  0.00  0.00    -0.080 A 
BRANCH  18  25
ATOM     24  C   LIG    1       -7.354   3.599   4.016  0.00  0.00    +0.250 C 
ATOM     25  O   LIG    1       -7.660   2.327   3.442  0.00  0.00    -0.320 OA
ENDBRANCH  18  25
BRANCH  22  26
ATOM     26  O   LIG    1       -6.016  -1.560   1.249  0.00  0.00    -0.310 OA
BRANCH  26  27
ATOM     27  C   LIG    1       -7.365  -2.032   1.234  0.00  0.00    +0.240 C 
BRANCH  27  28
ATOM     28  C   LIG    1       -7.416  -3.385   0.572  0.00  0.00    -0.100 A 
ATOM     29  C   LIG    1       -7.618  -3.480  -0.792  0.00  0.00    +0.030 A 
ATOM     30  C   LIG    1       -7.660  -4.721  -1.400  0.00  0.00    +0.010 A 
ATOM     31  C   LIG    1       -7.511  -5.867  -0.642  0.00  0.00    +0.010 A 
ATOM     32  C   LIG    1       -7.314  -5.772   0.723  0.00  0.00    +0.010 A 
ATOM     33  C   LIG    1       -7.267  -4.532   1.330  0.00  0.00    +0.020 A 
ENDBRANCH  27  28
ENDBRANCH  26  27
ENDBRANCH  22  26
ENDBRANCH   1  21
TORSDOF 6
