REMARK  Name = ZINCrD000000fTLr.0
REMARK                            x       y       z     vdW  Elec       q    Type
REMARK                         _______ _______ _______ _____ _____    ______ ____
ROOT
ATOM      1  C   LIG    1       -6.702   5.479   2.593  0.00  0.00    +0.530 C 
ATOM      2  N   LIG    1       -5.690   5.425   1.705  0.00  0.00    -0.720 N 
ATOM      3  H   LIG    1       -5.237   4.584   1.535  0.00  0.00    +0.400 HD
ATOM      4  O   LIG    1       -7.267   6.530   2.806  0.00  0.00    -0.500 OA
ENDROOT
BRANCH   1  10
ATOM      5  C   LIG    1       -7.970   0.827   2.771  0.00  0.00    +0.530 C 
ATOM      6  N   LIG    1       -8.287   2.101   3.073  0.00  0.00    -0.610 N 
ATOM      7  C   LIG    1       -9.223   2.410   4.166  0.00  0.00    +0.250 C 
ATOM      8  C   LIG    1       -8.572   3.457   5.078  0.00  0.00    +0.220 C 
ATOM      9  O   LIG    1       -8.133   4.563   4.287  0.00  0.00    -0.350 OA
ATOM     10  C   LIG    1       -7.130   4.232   3.323  0.00  0.00    +0.150 C 
ATOM     11  C   LIG    1       -7.707   3.225   2.321  0.00  0.00    +0.280 C 
ATOM     12  O   LIG    1       -7.270   0.587   1.809  0.00  0.00    -0.530 OA
BRANCH   5  14
ATOM     13  C   LIG    1       -7.972  -1.634   3.078  0.00  0.00    +0.050 C 
ATOM     14  C   LIG    1       -8.486  -0.302   3.626  0.00  0.00    -0.090 C 
ATOM     15  C   LIG    1      -10.016  -0.298   3.606  0.00  0.00    +0.040 C 
ATOM     16  C   LIG    1       -7.995  -0.117   5.063  0.00  0.00    +0.050 C 
ENDBRANCH   5  14
ENDBRANCH   1  10
BRANCH   2  17
ATOM     17  C   LIG    1       -5.273   6.638   0.996  0.00  0.00    +0.300 C 
BRANCH  17  18
ATOM     18  C   LIG    1       -3.833   6.501   0.571  0.00  0.00    -0.100 A 
ATOM     19  C   LIG    1       -3.369   5.294   0.084  0.00  0.00    +0.050 A 
ATOM     20  C   LIG    1       -2.048   5.166  -0.302  0.00  0.00    -0.010 A 
ATOM     21  C   LIG    1       -1.192   6.251  -0.211  0.00  0.00    +0.100 A 
ATOM     22  C   LIG    1       -1.660   7.461   0.272  0.00  0.00    -0.010 A 
ATOM     23  F   LIG    1        0.098   6.129  -0.593  0.00  0.00    -0.140 F 
ATOM     24  C   LIG    1       -2.980   7.585   0.662  0.00  0.00    +0.070 A 
ENDBRANCH  17  18
BRANCH  17  25
ATOM     25  C   LIG    1       -6.153   6.834  -0.240  0.00  0.00    -0.070 C 
ATOM     26  C   LIG    1       -5.718   8.100  -0.981  0.00  0.00    +0.040 C 
ATOM     27  C   LIG    1       -7.614   6.972   0.191  0.00  0.00    +0.030 C 
ATOM     28  C   LIG    1       -6.008   5.625  -1.167  0.00  0.00    +0.020 C 
ENDBRANCH  17  25
ENDBRANCH   2  17
TORSDOF 5
