REMARK  Name = ZINCpe000000TXpP.0
REMARK                            x       y       z     vdW  Elec       q    Type
REMARK                         _______ _______ _______ _____ _____    ______ ____
ROOT
ATOM      1  C   LIG    1       -0.268   1.258  -2.409  0.00  0.00    +0.570 C 
ATOM      2  N   LIG    1       -0.721   1.571  -1.179  0.00  0.00    -0.730 N 
ATOM      3  H   LIG    1       -1.516   2.118  -1.079  0.00  0.00    +0.400 HD
ATOM      4  O   LIG    1        0.729   0.574  -2.534  0.00  0.00    -0.510 OA
ENDROOT
BRANCH   1  11
ATOM      5  C   LIG    1       -0.521   1.429  -4.891  0.00  0.00    +0.380 A 
ATOM      6  N   LIG    1       -1.164   1.869  -5.959  0.00  0.00    -0.550 NA
ATOM      7  C   LIG    1       -2.248   2.613  -5.861  0.00  0.00    +0.200 A 
ATOM      8  C   LIG    1       -2.763   2.969  -4.627  0.00  0.00    -0.070 A 
ATOM      9  C   LIG    1       -2.134   2.531  -3.475  0.00  0.00    +0.140 A 
ATOM     10  C   LIG    1       -2.938   3.086  -7.114  0.00  0.00    +0.140 C 
ATOM     11  C   LIG    1       -0.982   1.747  -3.604  0.00  0.00    -0.220 A 
BRANCH   5  12
ATOM     12  O   LIG    1        0.589   0.667  -5.039  0.00  0.00    -0.270 OA
BRANCH  12  14
ATOM     13  C   LIG    1        2.265  -0.486  -6.343  0.00  0.00    +0.070 C 
ATOM     14  C   LIG    1        1.004   0.380  -6.376  0.00  0.00    +0.200 C 
ENDBRANCH  12  14
ENDBRANCH   5  12
ENDBRANCH   1  11
BRANCH   2  15
ATOM     15  C   LIG    1       -0.013   1.086   0.008  0.00  0.00    +0.270 C 
BRANCH  15  16
ATOM     16  C   LIG    1       -0.729   1.579   1.267  0.00  0.00    +0.000 C 
ATOM     17  C   LIG    1       -0.600   3.114   1.383  0.00  0.00    +0.040 C 
ATOM     18  C   LIG    1       -0.431   3.367   2.904  0.00  0.00    +0.040 C 
ATOM     19  C   LIG    1        0.449   2.173   3.357  0.00  0.00    +0.060 C 
ATOM     20  C   LIG    1       -0.061   0.996   2.514  0.00  0.00    +0.120 C 
ATOM     21  N   LIG    1       -0.992   0.163   3.279  0.00  0.00    -0.710 N 
ATOM     22  H   LIG    1       -1.833   0.441   3.673  0.00  0.00    +0.440 HD
ATOM     23  C   LIG    1       -0.445  -1.068   3.325  0.00  0.00    +0.700 C 
ATOM     24  N   LIG    1        0.728  -1.130   2.681  0.00  0.00    -0.680 N 
ATOM     25  H   LIG    1        1.268  -1.932   2.608  0.00  0.00    +0.440 HD
ATOM     26  O   LIG    1       -0.958  -2.016   3.886  0.00  0.00    -0.540 OA
ATOM     27  C   LIG    1        1.065   0.064   2.147  0.00  0.00    +0.530 C 
ATOM     28  O   LIG    1        2.061   0.329   1.509  0.00  0.00    -0.450 OA
ENDBRANCH  15  16
ENDBRANCH   2  15
TORSDOF 5
