REMARK  Name = ZINCpk00000e9WhH.0
REMARK                            x       y       z     vdW  Elec       q    Type
REMARK                         _______ _______ _______ _____ _____    ______ ____
ROOT
ATOM      1  C   LIG    1       -0.019   1.526   0.010  0.00  0.00    +0.080 C 
ENDROOT
BRANCH   1   7
ATOM      2  C   LIG    1        2.057   5.961  -1.058  0.00  0.00    +0.030 C 
ATOM      3  C   LIG    1        3.139   4.885  -1.170  0.00  0.00    +0.050 C 
ATOM      4  C   LIG    1        2.996   3.899  -0.006  0.00  0.00    +0.280 C 
ATOM      5  N   LIG    1        1.623   3.376   0.005  0.00  0.00    -0.610 N 
ATOM      6  C   LIG    1        0.504   4.327   0.014  0.00  0.00    +0.280 C 
ATOM      7  C   LIG    1        1.395   2.047  -0.000  0.00  0.00    +0.520 C 
ATOM      8  O   LIG    1        2.328   1.272  -0.013  0.00  0.00    -0.530 OA
ATOM      9  C   LIG    1        0.675   5.308  -1.144  0.00  0.00    +0.040 C 
BRANCH   2  10
ATOM     10  C   LIG    1        2.215   6.952  -2.182  0.00  0.00    +0.460 C 
ATOM     11  O   LIG    1        3.103   6.811  -2.990  0.00  0.00    -0.500 OA
BRANCH  10  13
ATOM     12  C   LIG    1        1.583   8.904  -3.394  0.00  0.00    +0.250 C 
ATOM     13  O   LIG    1        1.371   7.990  -2.286  0.00  0.00    -0.360 OA
ENDBRANCH  10  13
ENDBRANCH   2  10
ENDBRANCH   1   7
BRANCH   1  14
ATOM     14  C   LIG    1        0.002  -0.004   0.002  0.00  0.00    +0.230 C 
BRANCH  14  15
ATOM     15  C   LIG    1       -1.412  -0.526   0.013  0.00  0.00    +0.190 A 
ATOM     16  N   LIG    1       -2.154  -0.784  -1.035  0.00  0.00    -0.470 NA
ATOM     17  C   LIG    1       -3.333  -1.229  -0.545  0.00  0.00    +0.220 A 
ATOM     18  N   LIG    1       -3.241  -1.206   0.759  0.00  0.00    -0.370 NA
ATOM     19  O   LIG    1       -2.147  -0.806   1.094  0.00  0.00    +0.090 OA
BRANCH  17  20
ATOM     20  C   LIG    1       -4.512  -1.656  -1.339  0.00  0.00    -0.080 A 
ATOM     21  C   LIG    1       -5.677  -2.091  -0.701  0.00  0.00    +0.100 A 
ATOM     22  C   LIG    1       -6.749  -2.478  -1.486  0.00  0.00    -0.020 A 
ATOM     23  C   LIG    1       -6.635  -2.423  -2.863  0.00  0.00    +0.280 A 
ATOM     24  N   LIG    1       -5.521  -2.008  -3.436  0.00  0.00    -0.480 NA
ATOM     25  C   LIG    1       -4.477  -1.625  -2.731  0.00  0.00    +0.320 A 
ENDBRANCH  17  20
ENDBRANCH  14  15
ENDBRANCH   1  14
TORSDOF 6
