REMARK  Name = ZINCqH0000008akz.0
REMARK                            x       y       z     vdW  Elec       q    Type
REMARK                         _______ _______ _______ _____ _____    ______ ____
ROOT
ATOM      1  C   LIG    1       -3.666   3.297   2.934  0.00  0.00    +0.520 C 
ATOM      2  N   LIG    1       -4.889   3.713   3.318  0.00  0.00    -0.670 N 
ATOM      3  H   LIG    1       -5.584   3.852   2.656  0.00  0.00    +0.410 HD
ATOM      4  O   LIG    1       -2.774   3.199   3.750  0.00  0.00    -0.480 OA
ENDROOT
BRANCH   2   5
ATOM      5  C   LIG    1       -5.155   3.947   4.673  0.00  0.00    +0.150 A 
ATOM      6  C   LIG    1       -6.409   3.658   5.194  0.00  0.00    +0.000 A 
ATOM      7  C   LIG    1       -6.671   3.884   6.532  0.00  0.00    +0.050 A 
ATOM      8  C   LIG    1       -5.687   4.410   7.356  0.00  0.00    +0.030 A 
ATOM      9  O   LIG    1       -5.967   4.634   8.670  0.00  0.00    -0.310 OA
ATOM     10  C   LIG    1       -4.847   4.809   9.545  0.00  0.00    +0.220 C 
ATOM     11  C   LIG    1       -3.864   5.781   8.879  0.00  0.00    +0.220 C 
ATOM     12  O   LIG    1       -3.451   5.216   7.630  0.00  0.00    -0.300 OA
ATOM     13  C   LIG    1       -4.431   4.704   6.836  0.00  0.00    +0.070 A 
ATOM     14  C   LIG    1       -4.168   4.473   5.495  0.00  0.00    +0.040 A 
ENDBRANCH   2   5
BRANCH   1  16
ATOM     15  C   LIG    1       -4.069   1.614   1.157  0.00  0.00    +0.030 C 
ATOM     16  C   LIG    1       -3.406   2.953   1.490  0.00  0.00    +0.180 C 
BRANCH  16  17
ATOM     17  N   LIG    1       -1.958   2.853   1.263  0.00  0.00    -0.510 NA
ATOM     18  C   LIG    1       -1.644   2.921  -0.171  0.00  0.00    +0.200 C 
BRANCH  17  19
ATOM     19  C   LIG    1       -1.415   1.627   1.863  0.00  0.00    +0.250 C 
BRANCH  19  20
ATOM     20  C   LIG    1        0.091   1.675   1.828  0.00  0.00    -0.110 A 
ATOM     21  C   LIG    1        0.775   1.163   0.740  0.00  0.00    +0.110 A 
ATOM     22  C   LIG    1        2.159   1.203   0.711  0.00  0.00    -0.020 A 
ATOM     23  C   LIG    1        2.856   1.754   1.769  0.00  0.00    +0.060 A 
ATOM     24  C   LIG    1        2.173   2.266   2.856  0.00  0.00    +0.010 A 
ATOM     25  F   LIG    1        0.093   0.623  -0.294  0.00  0.00    -0.130 F 
ATOM     26  C   LIG    1        0.790   2.227   2.886  0.00  0.00    +0.010 A 
ATOM     27 CL   LIG    1       -0.067   2.871   4.252  0.00  0.00    -0.020 Cl
ENDBRANCH  19  20
ENDBRANCH  17  19
ENDBRANCH  16  17
ENDBRANCH   1  16
TORSDOF 5
