REMARK  Name = ZINCvU0000000Iqw.0
REMARK                            x       y       z     vdW  Elec       q    Type
REMARK                         _______ _______ _______ _____ _____    ______ ____
ROOT
ATOM      1  C   LIG    1       -0.136   1.426   0.911  0.00  0.00    -0.680 A 
ATOM      2  C   LIG    1       -0.434   0.638   2.003  0.00  0.00    +0.230 A 
ATOM      3  C   LIG    1       -0.958   1.221   3.159  0.00  0.00    -0.150 A 
ATOM      4  C   LIG    1       -1.187   2.598   3.197  0.00  0.00    +0.130 A 
ATOM      5  C   LIG    1       -0.890   3.374   2.097  0.00  0.00    +0.030 A 
ATOM      6  C   LIG    1       -0.365   2.791   0.956  0.00  0.00    +0.080 A 
ATOM      7 CL   LIG    1        0.006   3.775  -0.425  0.00  0.00    -0.030 Cl
ENDROOT
BRANCH   3   8
ATOM      8  C   LIG    1       -1.274   0.384   4.334  0.00  0.00    +0.560 C 
ATOM      9  N   LIG    1       -1.785   0.948   5.446  0.00  0.00    -0.660 N 
ATOM     10  H   LIG    1       -2.009   1.892   5.452  0.00  0.00    +0.410 HD
ATOM     11  O   LIG    1       -1.074  -0.815   4.298  0.00  0.00    -0.500 OA
BRANCH   9  12
ATOM     12  C   LIG    1       -1.994   0.173   6.592  0.00  0.00    +0.160 A 
ATOM     13  C   LIG    1       -2.212  -1.194   6.477  0.00  0.00    +0.040 A 
ATOM     14  C   LIG    1       -2.411  -1.957   7.610  0.00  0.00    +0.060 A 
ATOM     15  C   LIG    1       -2.405  -1.361   8.858  0.00  0.00    -0.110 A 
ATOM     16  C   LIG    1       -2.193   0.002   8.975  0.00  0.00    +0.060 A 
ATOM     17  I   LIG    1       -2.716  -2.522  10.574  0.00  0.00    -0.040 I 
ATOM     18  C   LIG    1       -1.988   0.770   7.846  0.00  0.00    -0.110 A 
ATOM     19  C   LIG    1       -1.757   2.253   7.975  0.00  0.00    +0.100 C 
ENDBRANCH   9  12
ENDBRANCH   3   8
BRANCH   1  20
ATOM     20  S   LIG    1        0.531   0.693  -0.545  0.00  0.00    +2.680 S 
ATOM     21  O   LIG    1        1.660   1.476  -0.908  0.00  0.00    -0.920 OA
ATOM     22  O   LIG    1        0.602  -0.704  -0.295  0.00  0.00    -0.930 OA
BRANCH  20  23
ATOM     23  N   LIG    1       -0.586   0.896  -1.752  0.00  0.00    -0.930 N 
BRANCH  23  24
ATOM     24  C   LIG    1       -1.811   0.229  -1.688  0.00  0.00    +0.160 A 
ATOM     25  C   LIG    1       -1.917  -0.968  -0.990  0.00  0.00    -0.020 A 
ATOM     26  C   LIG    1       -3.131  -1.623  -0.926  0.00  0.00    +0.050 A 
ATOM     27  C   LIG    1       -4.238  -1.094  -1.564  0.00  0.00    -0.020 A 
ATOM     28  C   LIG    1       -4.135   0.094  -2.264  0.00  0.00    +0.040 A 
ATOM     29  C   LIG    1       -2.925   0.757  -2.328  0.00  0.00    -0.010 A 
ENDBRANCH  23  24
BRANCH  23  30
ATOM     30  C   LIG    1       -0.288   1.775  -2.885  0.00  0.00    +0.330 C 
BRANCH  30  32
ATOM     31  C   LIG    1       -0.438   1.050  -5.212  0.00  0.00    +0.040 C 
ATOM     32  C   LIG    1        0.172   0.947  -4.057  0.00  0.00    -0.070 C 
ENDBRANCH  30  32
ENDBRANCH  23  30
ENDBRANCH  20  23
ENDBRANCH   1  20
TORSDOF 7
