REMARK  Name = ZINCqH0000051CM6.1
REMARK                            x       y       z     vdW  Elec       q    Type
REMARK                         _______ _______ _______ _____ _____    ______ ____
ROOT
ATOM      1  O   LIG    1       -1.375   5.258   1.929  0.00  0.00    -0.500 OA
ATOM      2  C   LIG    1       -1.537   4.087   2.212  0.00  0.00    +0.570 C 
ATOM      3  N   LIG    1       -1.812   3.192   1.243  0.00  0.00    -0.590 N 
ATOM      4  C   LIG    1       -2.160   1.802   1.577  0.00  0.00    +0.240 C 
ATOM      5  C   LIG    1       -1.268   0.866   0.753  0.00  0.00    +0.220 C 
ATOM      6  N   LIG    1       -1.384   1.212  -0.670  0.00  0.00    -0.680 NA
ATOM      7  H   LIG    1       -2.333   1.100  -0.994  0.00  0.00    +0.340 HD
ATOM      8  C   LIG    1       -0.896   2.573  -0.930  0.00  0.00    +0.220 C 
ATOM      9  C   LIG    1       -1.773   3.578  -0.175  0.00  0.00    +0.240 C 
ENDROOT
BRANCH   9  10
ATOM     10  C   LIG    1       -1.186   4.960  -0.307  0.00  0.00    -0.070 A 
ATOM     11  C   LIG    1        0.096   5.212   0.144  0.00  0.00    +0.070 A 
ATOM     12  C   LIG    1        0.637   6.478   0.018  0.00  0.00    -0.020 A 
ATOM     13  C   LIG    1       -0.110   7.496  -0.549  0.00  0.00    +0.100 A 
ATOM     14  C   LIG    1       -1.396   7.244  -0.996  0.00  0.00    -0.020 A 
ATOM     15  F   LIG    1        0.416   8.735  -0.668  0.00  0.00    -0.140 F 
ATOM     16  C   LIG    1       -1.933   5.976  -0.874  0.00  0.00    +0.050 A 
ENDBRANCH   9  10
BRANCH   2  17
ATOM     17  C   LIG    1       -1.432   3.644   3.622  0.00  0.00    +0.090 A 
ATOM     18  C   LIG    1       -1.603   4.568   4.649  0.00  0.00    +0.040 A 
ATOM     19  C   LIG    1       -1.504   4.145   5.968  0.00  0.00    +0.080 A 
ATOM     20  C   LIG    1       -1.236   2.813   6.218  0.00  0.00    +0.000 A 
ATOM     21  C   LIG    1       -1.074   1.934   5.140  0.00  0.00    +0.200 A 
ATOM     22  N   LIG    1       -1.180   2.369   3.893  0.00  0.00    -0.440 NA
BRANCH  21  23
ATOM     23  C   LIG    1       -0.788   0.508   5.395  0.00  0.00    -0.160 A 
ATOM     24  C   LIG    1       -0.617  -0.434   4.445  0.00  0.00    +0.060 A 
ATOM     25  C   LIG    1       -0.355  -1.698   4.928  0.00  0.00    +0.010 A 
ATOM     26  C   LIG    1       -0.320  -1.800   6.261  0.00  0.00    -0.030 A 
ATOM     27  S   LIG    1       -0.625  -0.226   6.985  0.00  0.00    +0.140 S 
ENDBRANCH  21  23
ENDBRANCH   2  17
TORSDOF 3
