REMARK  Name = ZINCrH00000tj1fh.0
REMARK                            x       y       z     vdW  Elec       q    Type
REMARK                         _______ _______ _______ _____ _____    ______ ____
ROOT
ATOM      1  N   LIG    1        2.357   3.890   0.005  0.00  0.00    -0.450 N 
ATOM      2  C   LIG    1        3.594   3.361   0.090  0.00  0.00    +0.480 A 
ATOM      3  N   LIG    1        4.475   4.382   0.040  0.00  0.00    -0.370 N 
ATOM      4  N   LIG    1        3.734   5.566  -0.072  0.00  0.00    -0.280 NA
ATOM      5  S   LIG    1        3.977   1.698   0.234  0.00  0.00    -0.570 S 
ATOM      6  C   LIG    1        2.478   5.256  -0.091  0.00  0.00    +0.280 A 
ATOM      7  C   LIG    1        1.335   6.232  -0.200  0.00  0.00    +0.220 C 
ENDROOT
BRANCH   1  12
ATOM      8  C   LIG    1       -2.519   0.986   0.050  0.00  0.00    +0.100 C 
ATOM      9  C   LIG    1       -1.222   1.755   0.039  0.00  0.00    -0.060 A 
ATOM     10  C   LIG    1       -0.355   1.630  -1.030  0.00  0.00    +0.030 A 
ATOM     11  C   LIG    1        0.831   2.337  -1.046  0.00  0.00    +0.060 A 
ATOM     12  C   LIG    1        1.154   3.171   0.017  0.00  0.00    +0.110 A 
ATOM     13  C   LIG    1        0.283   3.290   1.092  0.00  0.00    +0.040 A 
ATOM     14  C   LIG    1       -0.901   2.580   1.101  0.00  0.00    +0.030 A 
ENDBRANCH   1  12
BRANCH   3  15
ATOM     15  C   LIG    1        5.934   4.273   0.097  0.00  0.00    +0.520 C 
BRANCH  15  16
ATOM     16  N   LIG    1        6.405   4.690   1.425  0.00  0.00    -0.550 NA
ATOM     17  C   LIG    1        6.488   6.155   1.517  0.00  0.00    +0.190 C 
ATOM     18  C   LIG    1        6.904   6.550   2.936  0.00  0.00    +0.200 C 
ATOM     19  N   LIG    1        8.198   5.931   3.255  0.00  0.00    -0.490 N 
ATOM     20  C   LIG    1        8.115   4.467   3.162  0.00  0.00    +0.200 C 
ATOM     21  C   LIG    1        7.699   4.071   1.744  0.00  0.00    +0.210 C 
BRANCH  19  22
ATOM     22  C   LIG    1        8.645   6.328   4.517  0.00  0.00    +0.110 A 
ATOM     23  C   LIG    1        8.937   5.374   5.484  0.00  0.00    -0.040 A 
ATOM     24  C   LIG    1        9.384   5.770   6.730  0.00  0.00    +0.030 A 
ATOM     25  C   LIG    1        9.530   7.114   7.018  0.00  0.00    -0.030 A 
ATOM     26  C   LIG    1        9.235   8.067   6.060  0.00  0.00    +0.020 A 
ATOM     27  C   LIG    1        8.793   7.678   4.811  0.00  0.00    -0.020 A 
ENDBRANCH  19  22
ENDBRANCH  15  16
ENDBRANCH   3  15
TORSDOF 4
