REMARK  Name = ZINCqH0000032kMi.0
REMARK                            x       y       z     vdW  Elec       q    Type
REMARK                         _______ _______ _______ _____ _____    ______ ____
ROOT
ATOM      1  C   LIG    1       -0.174  -0.695   0.107  0.00  0.00    +0.120 A 
ATOM      2  C   LIG    1        1.026  -1.051   0.704  0.00  0.00    +0.050 A 
ATOM      3  C   LIG    1        2.094  -0.175   0.684  0.00  0.00    +0.080 A 
ATOM      4  C   LIG    1        1.966   1.062   0.068  0.00  0.00    +0.180 A 
ATOM      5  C   LIG    1        0.764   1.418  -0.530  0.00  0.00    -0.170 A 
ATOM      6  C   LIG    1       -0.303   0.542  -0.510  0.00  0.00    +0.000 A 
ENDROOT
BRANCH   4   7
ATOM      7  N   LIG    1        3.049   1.951   0.048  0.00  0.00    -0.690 N 
ATOM      8  H   LIG    1        2.893   2.907   0.102  0.00  0.00    +0.410 HD
ATOM      9  C   LIG    1        4.307   1.478  -0.046  0.00  0.00    +0.710 C 
ATOM     10  N   LIG    1        5.343   2.334  -0.148  0.00  0.00    -0.620 N 
ATOM     11  C   LIG    1        6.696   1.816  -0.359  0.00  0.00    +0.330 C 
ATOM     12  C   LIG    1        7.791   2.503   0.475  0.00  0.00    -0.250 C 
ATOM     13  S   LIG    1        7.248   2.765   2.170  0.00  0.00    +1.250 S 
ATOM     14  C   LIG    1        6.313   4.325   2.072  0.00  0.00    -0.240 C 
ATOM     15  C   LIG    1        5.012   4.161   1.433  0.00  0.00    +0.000 C 
ATOM     16  C   LIG    1        4.246   5.482   1.532  0.00  0.00    +0.030 C 
ATOM     17  O   LIG    1        8.382   2.944   3.008  0.00  0.00    -0.850 OA
ATOM     18  C   LIG    1        5.108   3.759  -0.056  0.00  0.00    +0.270 C 
ATOM     19  O   LIG    1        4.508   0.279  -0.038  0.00  0.00    -0.560 OA
ENDBRANCH   4   7
BRANCH   5  20
ATOM     20  C   LIG    1        0.624   2.760  -1.200  0.00  0.00    +0.510 C 
ATOM     21  F   LIG    1        1.560   2.865  -2.234  0.00  0.00    -0.170 F 
ATOM     22  F   LIG    1        0.849   3.775  -0.263  0.00  0.00    -0.180 F 
ATOM     23  F   LIG    1       -0.667   2.888  -1.724  0.00  0.00    -0.170 F 
ENDBRANCH   5  20
BRANCH   1  24
ATOM     24  O   LIG    1       -1.225  -1.557   0.126  0.00  0.00    -0.300 OA
BRANCH  24  26
ATOM     25  C   LIG    1       -3.306  -2.284  -0.865  0.00  0.00    +0.070 C 
ATOM     26  C   LIG    1       -2.458  -1.090  -0.424  0.00  0.00    +0.140 C 
ATOM     27  C   LIG    1       -3.218  -0.289   0.636  0.00  0.00    +0.020 C 
ENDBRANCH  24  26
ENDBRANCH   1  24
TORSDOF 4
