REMARK  Name = ZINCrH00000No51P.0
REMARK                            x       y       z     vdW  Elec       q    Type
REMARK                         _______ _______ _______ _____ _____    ______ ____
ROOT
ATOM      1  C   LIG    1        1.086  -0.684   0.513  0.00  0.00    -0.160 C 
ATOM      2  C   LIG    1       -0.018  -0.009   0.034  0.00  0.00    +0.240 C 
ENDROOT
BRANCH   2   3
ATOM      3  C   LIG    1       -0.030   1.454   0.015  0.00  0.00    -0.140 A 
ATOM      4  C   LIG    1       -1.245   2.149   0.110  0.00  0.00    +0.100 A 
ATOM      5  C   LIG    1       -1.251   3.514   0.097  0.00  0.00    -0.040 A 
ATOM      6  C   LIG    1       -0.053   4.217  -0.020  0.00  0.00    +0.140 A 
ATOM      7  C   LIG    1        1.156   3.531  -0.120  0.00  0.00    -0.010 A 
ATOM      8  C   LIG    1        1.173   2.166  -0.103  0.00  0.00    +0.070 A 
BRANCH   6   9
ATOM      9  N   LIG    1       -0.065   5.606  -0.037  0.00  0.00    -0.490 N 
ATOM     10  C   LIG    1        0.791   6.153   1.026  0.00  0.00    +0.180 C 
ATOM     11  C   LIG    1        0.796   7.681   0.933  0.00  0.00    +0.230 C 
ATOM     12  O   LIG    1       -0.548   8.164   1.017  0.00  0.00    -0.380 OA
ATOM     13  C   LIG    1       -1.409   7.651  -0.003  0.00  0.00    +0.230 C 
ATOM     14  C   LIG    1       -1.436   6.122   0.080  0.00  0.00    +0.170 C 
ENDBRANCH   6   9
ENDBRANCH   2   3
BRANCH   1  16
ATOM     15  N   LIG    1        2.999   0.615   1.631  0.00  0.00    -0.420 NA
ATOM     16  C   LIG    1        2.152   0.040   1.136  0.00  0.00    +0.270 C 
ENDBRANCH   1  16
BRANCH   1  17
ATOM     17  C   LIG    1        1.167  -2.147   0.385  0.00  0.00    +0.480 C 
ATOM     18  O   LIG    1        0.310  -2.752  -0.235  0.00  0.00    -0.450 OA
BRANCH  17  19
ATOM     19  C   LIG    1        2.280  -2.879   1.004  0.00  0.00    -0.260 A 
ATOM     20  C   LIG    1        3.369  -2.337   1.625  0.00  0.00    +0.290 A 
ATOM     21  N   LIG    1        4.181  -3.326   2.070  0.00  0.00    -0.570 N 
ATOM     22  H   LIG    1        5.016  -3.185   2.543  0.00  0.00    +0.420 HD
ATOM     23  C   LIG    1        3.652  -4.561   1.756  0.00  0.00    +0.080 A 
ATOM     24  C   LIG    1        4.081  -5.865   1.982  0.00  0.00    +0.000 A 
ATOM     25  C   LIG    1        3.320  -6.926   1.539  0.00  0.00    +0.030 A 
ATOM     26  C   LIG    1        2.127  -6.707   0.868  0.00  0.00    -0.010 A 
ATOM     27  C   LIG    1        1.685  -5.423   0.635  0.00  0.00    +0.060 A 
ATOM     28  C   LIG    1        2.440  -4.342   1.082  0.00  0.00    -0.060 A 
ENDBRANCH  17  19
ENDBRANCH   1  17
TORSDOF 5
