REMARK  Name = ZINCrH000004kZKo.0
REMARK                            x       y       z     vdW  Elec       q    Type
REMARK                         _______ _______ _______ _____ _____    ______ ____
ROOT
ATOM      1  O   LIG    1       -2.438   3.792   0.046  0.00  0.00    -0.280 OA
ENDROOT
BRANCH   1   6
ATOM      2  C   LIG    1        1.157   3.176   0.008  0.00  0.00    -0.030 A 
ATOM      3  C   LIG    1        1.174   1.780   0.000  0.00  0.00    +0.070 A 
ATOM      4  C   LIG    1       -0.013   1.076   0.008  0.00  0.00    +0.140 A 
ATOM      5  C   LIG    1       -1.220   1.748   0.017  0.00  0.00    -0.050 A 
ATOM      6  C   LIG    1       -1.248   3.137   0.031  0.00  0.00    +0.200 A 
ATOM      7  C   LIG    1       -0.063   3.853   0.023  0.00  0.00    +0.020 A 
BRANCH   5   8
ATOM      8  N   LIG    1       -2.489   0.986   0.019  0.00  0.00    +0.030 N 
ATOM      9  O   LIG    1       -3.554   1.576   0.028  0.00  0.00    -0.130 OA
ATOM     10  O   LIG    1       -2.468  -0.232   0.013  0.00  0.00    -0.160 OA
ENDBRANCH   5   8
BRANCH   2  11
ATOM     11  C   LIG    1        2.425   3.933   0.001  0.00  0.00    +0.510 C 
ATOM     12  O   LIG    1        2.408   5.148   0.007  0.00  0.00    -0.480 OA
BRANCH  11  14
ATOM     13  C   LIG    1        4.808   4.085  -0.021  0.00  0.00    +0.290 C 
ATOM     14  O   LIG    1        3.602   3.277  -0.014  0.00  0.00    -0.350 OA
ENDBRANCH  11  14
ENDBRANCH   2  11
ENDBRANCH   1   6
BRANCH   1  15
ATOM     15  C   LIG    1       -2.392   5.221   0.053  0.00  0.00    +0.340 C 
BRANCH  15  16
ATOM     16  C   LIG    1       -3.796   5.769   0.069  0.00  0.00    -0.030 A 
ATOM     17  C   LIG    1       -4.929   5.044   0.071  0.00  0.00    +0.210 A 
ATOM     18  O   LIG    1       -5.960   5.912   0.091  0.00  0.00    -0.190 OA
ATOM     19  C   LIG    1       -5.447   7.155   0.092  0.00  0.00    +0.240 A 
ATOM     20  N   LIG    1       -4.138   7.066   0.079  0.00  0.00    -0.450 NA
BRANCH  19  21
ATOM     21  C   LIG    1       -6.227   8.411   0.106  0.00  0.00    +0.010 A 
ATOM     22  C   LIG    1       -5.571   9.642   0.112  0.00  0.00    +0.070 A 
ATOM     23  C   LIG    1       -6.303  10.812   0.119  0.00  0.00    +0.060 A 
ATOM     24  C   LIG    1       -7.686  10.766   0.132  0.00  0.00    +0.010 A 
ATOM     25  C   LIG    1       -8.344   9.546   0.132  0.00  0.00    +0.100 A 
ATOM     26  F   LIG    1       -9.694   9.509   0.145  0.00  0.00    -0.130 F 
ATOM     27  C   LIG    1       -7.621   8.369   0.119  0.00  0.00    +0.020 A 
ENDBRANCH  19  21
ENDBRANCH  15  16
ENDBRANCH   1  15
TORSDOF 7
