REMARK  Name = ZINCvU0000000AHF.1
REMARK                            x       y       z     vdW  Elec       q    Type
REMARK                         _______ _______ _______ _____ _____    ______ ____
ROOT
ATOM      1  C   LIG    1        1.654   6.618  -3.333  0.00  0.00    -0.260 A 
ATOM      2  C   LIG    1        1.974   6.110  -2.088  0.00  0.00    +0.120 A 
ATOM      3  N   LIG    1        0.847   6.052  -1.357  0.00  0.00    -0.430 N 
ATOM      4  C   LIG    1       -0.214   6.516  -2.078  0.00  0.00    +0.010 A 
ATOM      5  C   LIG    1       -1.635   6.605  -1.584  0.00  0.00    +0.130 C 
ATOM      6  C   LIG    1        3.348   5.692  -1.631  0.00  0.00    +0.150 C 
ATOM      7  C   LIG    1        0.209   6.880  -3.300  0.00  0.00    +0.000 A 
ENDROOT
BRANCH   1   8
ATOM      8  C   LIG    1        2.568   6.851  -4.453  0.00  0.00    +0.450 C 
ATOM      9  O   LIG    1        3.747   6.586  -4.340  0.00  0.00    -0.460 OA
BRANCH   8  10
ATOM     10  C   LIG    1        2.046   7.421  -5.746  0.00  0.00    +0.110 C 
BRANCH  10  11
ATOM     11  S   LIG    1        3.409   7.591  -6.925  0.00  0.00    +0.050 S 
BRANCH  11  18
ATOM     12  C   LIG    1        0.802  10.505 -13.562  0.00  0.00    +0.100 C 
ATOM     13  C   LIG    1        0.848   9.982 -12.149  0.00  0.00    -0.070 A 
ATOM     14  C   LIG    1       -0.315   9.930 -11.396  0.00  0.00    +0.010 A 
ATOM     15  C   LIG    1       -0.291   9.453 -10.104  0.00  0.00    +0.070 A 
ATOM     16  C   LIG    1        0.915   9.021  -9.547  0.00  0.00    +0.050 A 
ATOM     17  N   LIG    1        1.253   8.514  -8.332  0.00  0.00    -0.490 NA
ATOM     18  C   LIG    1        2.538   8.259  -8.305  0.00  0.00    +0.250 A 
ATOM     19  N   LIG    1        3.104   8.593  -9.503  0.00  0.00    -0.580 N 
ATOM     20  H   LIG    1        4.040   8.507  -9.741  0.00  0.00    +0.430 HD
ATOM     21  C   LIG    1        2.091   9.076 -10.314  0.00  0.00    +0.060 A 
ATOM     22  C   LIG    1        2.047   9.558 -11.613  0.00  0.00    +0.010 A 
ENDBRANCH  11  18
ENDBRANCH  10  11
ENDBRANCH   8  10
ENDBRANCH   1   8
BRANCH   3  23
ATOM     23  C   LIG    1        0.771   5.565   0.023  0.00  0.00    +0.360 C 
BRANCH  23  24
ATOM     24  C   LIG    1        0.496   4.083   0.018  0.00  0.00    -0.110 A 
ATOM     25  C   LIG    1       -0.808   3.624   0.028  0.00  0.00    +0.050 A 
ATOM     26  C   LIG    1       -1.065   2.265   0.019  0.00  0.00    +0.040 A 
ATOM     27  C   LIG    1       -0.016   1.361   0.009  0.00  0.00    +0.040 A 
ATOM     28  O   LIG    1        0.002  -0.004   0.002  0.00  0.00    -0.310 OA
ATOM     29  C   LIG    1        1.336  -0.373   0.399  0.00  0.00    +0.440 C 
ATOM     30  O   LIG    1        2.139   0.749  -0.014  0.00  0.00    -0.310 OA
ATOM     31  C   LIG    1        1.297   1.824  -0.001  0.00  0.00    +0.030 A 
ATOM     32  C   LIG    1        1.548   3.186   0.004  0.00  0.00    +0.060 A 
ENDBRANCH  23  24
ENDBRANCH   3  23
TORSDOF 6
