REMARK  Name = ZINCtV00000oW4sI.0
REMARK                            x       y       z     vdW  Elec       q    Type
REMARK                         _______ _______ _______ _____ _____    ______ ____
ROOT
ATOM      1  C   LIG    1        3.993  -4.695   0.341  0.00  0.00    +0.090 C 
ATOM      2  C   LIG    1        5.041  -3.954  -0.497  0.00  0.00    +0.080 C 
ATOM      3  C   LIG    1        5.081  -2.497  -0.044  0.00  0.00    +0.110 C 
ATOM      4  C   LIG    1        3.693  -1.903  -0.043  0.00  0.00    +0.180 A 
ATOM      5  N   LIG    1        3.605  -0.585  -0.033  0.00  0.00    -0.470 NA
ATOM      6  C   LIG    1        2.438   0.058  -0.020  0.00  0.00    +0.140 A 
ATOM      7  C   LIG    1        2.380   1.463  -0.012  0.00  0.00    +0.070 A 
ATOM      8  C   LIG    1        1.171   2.089   0.002  0.00  0.00    +0.050 A 
ATOM      9  C   LIG    1       -0.016   1.360   0.009  0.00  0.00    -0.030 A 
ATOM     10  C   LIG    1        0.002  -0.004   0.002  0.00  0.00    +0.060 A 
ATOM     11 CL   LIG    1       -1.537   2.197   0.021  0.00  0.00    -0.060 Cl
ATOM     12  C   LIG    1        1.229  -0.679  -0.014  0.00  0.00    -0.080 A 
ATOM     13  C   LIG    1        1.298  -2.093  -0.026  0.00  0.00    +0.020 A 
ATOM     14  C   LIG    1        2.555  -2.694  -0.044  0.00  0.00    -0.120 A 
ATOM     15  C   LIG    1        2.609  -4.199  -0.072  0.00  0.00    +0.140 C 
ENDROOT
BRANCH  13  16
ATOM     16  C   LIG    1        0.065  -2.913  -0.020  0.00  0.00    -0.060 A 
ATOM     17  C   LIG    1       -0.222  -3.739   1.067  0.00  0.00    +0.020 A 
ATOM     18  C   LIG    1       -1.375  -4.496   1.070  0.00  0.00    +0.020 A 
ATOM     19  C   LIG    1       -2.241  -4.447  -0.008  0.00  0.00    +0.020 A 
ATOM     20  C   LIG    1       -1.959  -3.635  -1.092  0.00  0.00    +0.020 A 
ATOM     21  C   LIG    1       -0.812  -2.868  -1.104  0.00  0.00    +0.030 A 
ENDBRANCH  13  16
BRANCH   1  22
ATOM     22  C   LIG    1        4.097  -6.177   0.088  0.00  0.00    -0.080 A 
ATOM     23  C   LIG    1        3.012  -6.870  -0.415  0.00  0.00    +0.020 A 
ATOM     24  C   LIG    1        3.108  -8.229  -0.651  0.00  0.00    +0.010 A 
ATOM     25  C   LIG    1        4.287  -8.896  -0.373  0.00  0.00    +0.010 A 
ATOM     26  C   LIG    1        5.370  -8.204   0.135  0.00  0.00    +0.010 A 
ATOM     27  C   LIG    1        5.275  -6.845   0.366  0.00  0.00    +0.020 A 
ENDBRANCH   1  22
BRANCH   1  29
ATOM     28  N   LIG    1        4.386  -4.205   2.872  0.00  0.00    -0.410 NA
ATOM     29  C   LIG    1        4.215  -4.418   1.769  0.00  0.00    +0.210 C 
ENDBRANCH   1  29
TORSDOF 3
