REMARK  Name = ZINCpe000000ZuVN.0
REMARK                            x       y       z     vdW  Elec       q    Type
REMARK                         _______ _______ _______ _____ _____    ______ ____
ROOT
ATOM      1  O   LIG    1        4.575   1.800   0.102  0.00  0.00    -0.500 OA
ATOM      2  C   LIG    1        3.478   2.309  -0.019  0.00  0.00    +0.590 C 
ATOM      3  N   LIG    1        3.363   3.649  -0.113  0.00  0.00    -0.600 N 
ATOM      4  C   LIG    1        2.036   4.268  -0.102  0.00  0.00    +0.350 C 
ATOM      5  C   LIG    1        1.774   4.959  -1.438  0.00  0.00    -0.320 C 
ATOM      6  S   LIG    1        3.072   6.195  -1.732  0.00  0.00    +2.410 S 
ATOM      7  C   LIG    1        4.570   5.178  -1.591  0.00  0.00    -0.440 C 
ATOM      8  C   LIG    1        5.814   6.062  -1.697  0.00  0.00    +0.060 C 
ATOM      9  C   LIG    1        7.066   5.191  -1.574  0.00  0.00    +0.030 C 
ATOM     10  C   LIG    1        7.061   4.472  -0.224  0.00  0.00    +0.000 C 
ATOM     11  C   LIG    1        5.815   3.603  -0.108  0.00  0.00    +0.070 C 
ATOM     12  O   LIG    1        2.963   6.660  -3.071  0.00  0.00    -0.930 OA
ATOM     13  O   LIG    1        3.057   7.134  -0.665  0.00  0.00    -0.930 OA
ATOM     14  C   LIG    1        4.565   4.475  -0.230  0.00  0.00    +0.270 C 
ENDROOT
BRANCH   2  15
ATOM     15  C   LIG    1        2.268   1.458  -0.064  0.00  0.00    +0.000 A 
ATOM     16  C   LIG    1        2.314   0.147   0.420  0.00  0.00    +0.150 A 
ATOM     17  C   LIG    1        1.156  -0.611   0.357  0.00  0.00    +0.040 A 
ATOM     18  C   LIG    1        0.017  -0.021  -0.186  0.00  0.00    +0.320 A 
ATOM     19  N   LIG    1        0.064   1.232  -0.622  0.00  0.00    -0.250 NA
ATOM     20  N   LIG    1        1.135   1.937  -0.564  0.00  0.00    -0.170 NA
BRANCH  18  21
ATOM     21  N   LIG    1       -1.172  -0.746  -0.271  0.00  0.00    -0.420 N 
ATOM     22  C   LIG    1       -2.341  -0.331  -0.859  0.00  0.00    +0.160 A 
ATOM     23  C   LIG    1       -3.225  -1.335  -0.717  0.00  0.00    +0.160 A 
ATOM     24  N   LIG    1       -2.624  -2.335  -0.054  0.00  0.00    -0.470 NA
ATOM     25  C   LIG    1       -1.394  -1.995   0.219  0.00  0.00    +0.420 A 
ENDBRANCH  18  21
ENDBRANCH   2  15
TORSDOF 2
