REMARK  Name = ZINCrD000000CgZ3.1
REMARK                            x       y       z     vdW  Elec       q    Type
REMARK                         _______ _______ _______ _____ _____    ______ ____
ROOT
ATOM      1  C   LIG    1       -3.966  -0.726  -0.057  0.00  0.00    +0.170 C 
ATOM      2  C   LIG    1       -4.752   0.575  -0.342  0.00  0.00    +0.090 C 
ATOM      3  C   LIG    1       -3.756   1.655   0.142  0.00  0.00    +0.310 C 
ATOM      4  N   LIG    1       -2.428   1.042   0.023  0.00  0.00    -0.540 N 
ATOM      5  C   LIG    1       -2.515  -0.295  -0.081  0.00  0.00    +0.510 C 
ATOM      6  O   LIG    1       -1.569  -1.048  -0.181  0.00  0.00    -0.470 OA
ENDROOT
BRANCH   1  11
ATOM      7  C   LIG    1       -5.948  -2.978  -2.312  0.00  0.00    -0.020 C 
ATOM      8  C   LIG    1       -5.184  -4.282  -2.065  0.00  0.00    +0.040 C 
ATOM      9  C   LIG    1       -3.691  -3.968  -1.926  0.00  0.00    +0.050 C 
ATOM     10  C   LIG    1       -3.490  -2.955  -0.797  0.00  0.00    +0.260 C 
ATOM     11  N   LIG    1       -4.224  -1.722  -1.105  0.00  0.00    -0.370 N 
ATOM     12  H   LIG    1       -3.914  -1.361  -1.995  0.00  0.00    +0.420 HD
ATOM     13  C   LIG    1       -5.664  -2.001  -1.169  0.00  0.00    +0.250 C 
BRANCH   7  14
ATOM     14  C   LIG    1       -7.449  -3.269  -2.374  0.00  0.00    +0.060 C 
BRANCH  14  15
ATOM     15  C   LIG    1       -7.747  -4.150  -3.589  0.00  0.00    -0.070 C 
BRANCH  15  17
ATOM     16  O   LIG    1       -9.971  -3.979  -2.801  0.00  0.00    -0.700 OA
ATOM     17  C   LIG    1       -9.225  -4.437  -3.650  0.00  0.00    +0.490 C 
ATOM     18  O   LIG    1       -9.676  -5.126  -4.549  0.00  0.00    -0.700 OA
ENDBRANCH  15  17
ENDBRANCH  14  15
ENDBRANCH   7  14
ENDBRANCH   1  11
BRANCH   4  19
ATOM     19  C   LIG    1       -1.225   1.757   0.023  0.00  0.00    +0.180 A 
ATOM     20  C   LIG    1       -0.013   1.079   0.031  0.00  0.00    +0.020 A 
ATOM     21  C   LIG    1        1.172   1.788   0.025  0.00  0.00    +0.110 A 
ATOM     22  C   LIG    1        1.153   3.170   0.019  0.00  0.00    -0.190 A 
ATOM     23  C   LIG    1       -0.052   3.848   0.016  0.00  0.00    +0.110 A 
ATOM     24  C   LIG    1       -1.241   3.145   0.021  0.00  0.00    -0.010 A 
BRANCH  22  25
ATOM     25  C   LIG    1        2.449   3.940   0.013  0.00  0.00    +0.510 C 
ATOM     26  F   LIG    1        3.434   3.200   0.676  0.00  0.00    -0.170 F 
ATOM     27  F   LIG    1        2.267   5.164   0.667  0.00  0.00    -0.170 F 
ATOM     28  F   LIG    1        2.848   4.172  -1.307  0.00  0.00    -0.170 F 
ENDBRANCH  22  25
ENDBRANCH   4  19
TORSDOF 6
