REMARK  Name = ZINCrD000000CgZ3.0
REMARK                            x       y       z     vdW  Elec       q    Type
REMARK                         _______ _______ _______ _____ _____    ______ ____
ROOT
ATOM      1  C   LIG    1       -1.369   3.521   2.515  0.00  0.00    +0.170 C 
ATOM      2  C   LIG    1       -1.423   5.066   2.561  0.00  0.00    +0.090 C 
ATOM      3  C   LIG    1       -1.166   5.346   4.059  0.00  0.00    +0.310 C 
ATOM      4  N   LIG    1       -0.414   4.185   4.550  0.00  0.00    -0.540 N 
ATOM      5  C   LIG    1       -0.515   3.144   3.706  0.00  0.00    +0.510 C 
ATOM      6  O   LIG    1        0.003   2.060   3.874  0.00  0.00    -0.460 OA
ENDROOT
BRANCH   1  11
ATOM      7  C   LIG    1        0.021   1.120  -0.012  0.00  0.00    +0.010 C 
ATOM      8  C   LIG    1       -0.726   1.629  -1.248  0.00  0.00    +0.050 C 
ATOM      9  C   LIG    1       -0.827   3.155  -1.180  0.00  0.00    +0.060 C 
ATOM     10  C   LIG    1       -1.519   3.558   0.124  0.00  0.00    +0.250 C 
ATOM     11  N   LIG    1       -0.741   3.066   1.268  0.00  0.00    -0.370 N 
ATOM     12  H   LIG    1        0.199   3.427   1.214  0.00  0.00    +0.430 HD
ATOM     13  C   LIG    1       -0.702   1.599   1.248  0.00  0.00    +0.250 C 
BRANCH   7  14
ATOM     14  C   LIG    1        1.451   1.666  -0.019  0.00  0.00    +0.020 C 
BRANCH  14  15
ATOM     15  C   LIG    1        2.211   1.090  -1.215  0.00  0.00    -0.060 C 
BRANCH  15  17
ATOM     16  O   LIG    1        3.980   2.400  -0.351  0.00  0.00    -0.700 OA
ATOM     17  C   LIG    1        3.619   1.627  -1.222  0.00  0.00    +0.490 C 
ATOM     18  O   LIG    1        4.396   1.290  -2.098  0.00  0.00    -0.690 OA
ENDBRANCH  15  17
ENDBRANCH  14  15
ENDBRANCH   7  14
ENDBRANCH   1  11
BRANCH   4  19
ATOM     19  C   LIG    1        0.315   4.165   5.745  0.00  0.00    +0.180 A 
ATOM     20  C   LIG    1        0.892   2.982   6.188  0.00  0.00    +0.020 A 
ATOM     21  C   LIG    1        1.616   2.967   7.364  0.00  0.00    +0.110 A 
ATOM     22  C   LIG    1        1.756   4.125   8.106  0.00  0.00    -0.200 A 
ATOM     23  C   LIG    1        1.178   5.303   7.670  0.00  0.00    +0.110 A 
ATOM     24  C   LIG    1        0.458   5.326   6.492  0.00  0.00    -0.010 A 
BRANCH  22  25
ATOM     25  C   LIG    1        2.540   4.103   9.393  0.00  0.00    +0.510 C 
ATOM     26  F   LIG    1        3.124   5.356   9.604  0.00  0.00    -0.180 F 
ATOM     27  F   LIG    1        3.542   3.129   9.312  0.00  0.00    -0.170 F 
ATOM     28  F   LIG    1        1.683   3.803  10.457  0.00  0.00    -0.170 F 
ENDBRANCH  22  25
ENDBRANCH   4  19
TORSDOF 6
