REMARK  Name = ZINCpe000000XTzh.0
REMARK                            x       y       z     vdW  Elec       q    Type
REMARK                         _______ _______ _______ _____ _____    ______ ____
ROOT
ATOM      1  C   LIG    1       -2.871   0.627   1.461  0.00  0.00    +0.040 C 
ENDROOT
BRANCH   1   2
ATOM      2  C   LIG    1       -4.138  -0.189   1.463  0.00  0.00    +0.530 C 
ATOM      3  N   LIG    1       -4.700  -0.560   2.630  0.00  0.00    -0.710 N 
ATOM      4  H   LIG    1       -4.288  -0.303   3.470  0.00  0.00    +0.410 HD
ATOM      5  O   LIG    1       -4.653  -0.511   0.413  0.00  0.00    -0.540 OA
BRANCH   3   6
ATOM      6  C   LIG    1       -5.931  -1.353   2.632  0.00  0.00    +0.250 C 
ATOM      7  C   LIG    1       -6.683  -1.134   3.947  0.00  0.00    +0.040 C 
ATOM      8  C   LIG    1       -8.165  -1.411   3.773  0.00  0.00    +0.030 C 
ATOM      9  C   LIG    1       -8.487  -2.867   3.488  0.00  0.00    +0.010 C 
ATOM     10  C   LIG    1       -7.949  -3.287   2.119  0.00  0.00    +0.270 C 
ATOM     11  N   LIG    1       -6.551  -3.718   2.274  0.00  0.00    -0.720 N 
ATOM     12  H   LIG    1       -6.325  -4.659   2.203  0.00  0.00    +0.400 HD
ATOM     13  C   LIG    1       -5.591  -2.823   2.507  0.00  0.00    +0.510 C 
ATOM     14  O   LIG    1       -4.440  -3.189   2.625  0.00  0.00    -0.540 OA
ENDBRANCH   3   6
ENDBRANCH   1   2
BRANCH   1  15
ATOM     15  C   LIG    1       -2.449   0.911   0.018  0.00  0.00    +0.330 C 
BRANCH  15  24
ATOM     16  C   LIG    1        3.697   2.972  -0.017  0.00  0.00    +0.110 C 
ATOM     17  C   LIG    1        2.401   3.742  -0.001  0.00  0.00    -0.070 A 
ATOM     18  C   LIG    1        2.415   5.119   0.006  0.00  0.00    +0.050 A 
ATOM     19  C   LIG    1        1.229   5.842   0.020  0.00  0.00    +0.000 A 
ATOM     20  C   LIG    1        0.014   5.194   0.029  0.00  0.00    +0.090 A 
ATOM     21  C   LIG    1       -0.022   3.801   0.023  0.00  0.00    -0.190 A 
ATOM     22  C   LIG    1       -1.290   3.055   0.031  0.00  0.00    +0.550 A 
ATOM     23  O   LIG    1       -2.362   3.631   0.044  0.00  0.00    -0.510 OA
ATOM     24  N   LIG    1       -1.217   1.704   0.017  0.00  0.00    -0.550 N 
ATOM     25  C   LIG    1       -0.013   1.076   0.008  0.00  0.00    +0.570 A 
ATOM     26  N   LIG    1        1.122   1.707   0.001  0.00  0.00    -0.520 NA
ATOM     27  C   LIG    1        1.182   3.062   0.007  0.00  0.00    +0.150 A 
ENDBRANCH  15  24
ENDBRANCH   1  15
TORSDOF 4
