REMARK  Name = ZINCkj000005h9j3.0
REMARK                            x       y       z     vdW  Elec       q    Type
REMARK                         _______ _______ _______ _____ _____    ______ ____
ROOT
ATOM      1  C   LIG    1        1.032   1.782   2.939  0.00  0.00    +0.520 C 
ATOM      2  N   LIG    1       -0.020   1.094   2.454  0.00  0.00    -0.740 N 
ATOM      3  H   LIG    1       -0.308   0.277   2.890  0.00  0.00    +0.400 HD
ATOM      4  O   LIG    1        1.392   2.804   2.393  0.00  0.00    -0.530 OA
ENDROOT
BRANCH   2   5
ATOM      5  C   LIG    1       -0.729   1.579   1.267  0.00  0.00    +0.250 C 
ATOM      6  C   LIG    1       -0.013   1.086   0.008  0.00  0.00    +0.020 C 
ATOM      7  C   LIG    1       -0.753   1.593  -1.232  0.00  0.00    +0.060 C 
ATOM      8  C   LIG    1       -2.188   1.063  -1.221  0.00  0.00    +0.040 C 
ATOM      9  C   LIG    1       -2.904   1.556   0.038  0.00  0.00    +0.170 C 
ATOM     10  C   LIG    1       -2.164   1.050   1.278  0.00  0.00    +0.040 C 
BRANCH   9  11
ATOM     11  N   LIG    1       -4.282   1.048   0.049  0.00  0.00    -0.380 N 
ATOM     12  C   LIG    1       -4.993   1.535  -1.141  0.00  0.00    +0.330 C 
ATOM     13  C   LIG    1       -4.970   1.522   1.257  0.00  0.00    +0.320 C 
ATOM     14  H   LIG    1       -4.269   0.039   0.043  0.00  0.00    +0.420 HD
ENDBRANCH   9  11
ENDBRANCH   2   5
BRANCH   1  15
ATOM     15  C   LIG    1        1.761   1.283   4.160  0.00  0.00    +0.060 C 
BRANCH  15  16
ATOM     16  C   LIG    1        2.905   2.241   4.498  0.00  0.00    +0.140 C 
BRANCH  16  20
ATOM     17  C   LIG    1        6.153  -0.148   7.476  0.00  0.00    +0.360 C 
ATOM     18  N   LIG    1        5.051   0.699   7.010  0.00  0.00    -0.370 N 
ATOM     19  C   LIG    1        4.692   0.899   5.725  0.00  0.00    +0.230 A 
ATOM     20  C   LIG    1        3.634   1.742   5.719  0.00  0.00    -0.250 A 
ATOM     21  C   LIG    1        3.339   2.072   7.045  0.00  0.00    +0.230 A 
ATOM     22  N   LIG    1        4.185   1.443   7.821  0.00  0.00    -0.290 NA
ENDBRANCH  16  20
ENDBRANCH  15  16
ENDBRANCH   1  15
TORSDOF 5
