REMARK  Name = ZINCrH000004tcKq.0
REMARK                            x       y       z     vdW  Elec       q    Type
REMARK                         _______ _______ _______ _____ _____    ______ ____
ROOT
ATOM      1  N   LIG    1        3.244  -5.993   2.703  0.00  0.00    -0.530 NA
ATOM      2  C   LIG    1        1.937  -6.595   2.407  0.00  0.00    +0.190 C 
ATOM      3  C   LIG    1        1.466  -6.132   1.026  0.00  0.00    +0.190 C 
ATOM      4  N   LIG    1        1.384  -4.665   1.006  0.00  0.00    -0.530 NA
ATOM      5  C   LIG    1        2.692  -4.063   1.302  0.00  0.00    +0.170 C 
ATOM      6  C   LIG    1        3.162  -4.526   2.683  0.00  0.00    +0.170 C 
ENDROOT
BRANCH   1   7
ATOM      7  C   LIG    1        3.766  -6.474   3.989  0.00  0.00    +0.230 C 
BRANCH   7  12
ATOM      8  C   LIG    1        7.345  -5.322   4.334  0.00  0.00    -0.180 A 
ATOM      9  C   LIG    1        7.193  -4.173   5.086  0.00  0.00    +0.070 A 
ATOM     10  C   LIG    1        5.933  -3.768   5.484  0.00  0.00    +0.020 A 
ATOM     11  C   LIG    1        4.824  -4.513   5.130  0.00  0.00    +0.050 A 
ATOM     12  C   LIG    1        4.975  -5.662   4.376  0.00  0.00    -0.090 A 
ATOM     13  C   LIG    1        6.236  -6.069   3.982  0.00  0.00    +0.090 A 
BRANCH   8  15
ATOM     14  F   LIG    1        9.672  -4.856   4.376  0.00  0.00    -0.180 F 
ATOM     15  C   LIG    1        8.719  -5.763   3.900  0.00  0.00    +0.510 C 
ATOM     16  F   LIG    1        8.775  -5.808   2.503  0.00  0.00    -0.180 F 
ATOM     17  F   LIG    1        8.985  -7.035   4.419  0.00  0.00    -0.180 F 
ENDBRANCH   8  15
ENDBRANCH   7  12
ENDBRANCH   1   7
BRANCH   4  18
ATOM     18  C   LIG    1        0.862  -4.184  -0.280  0.00  0.00    +0.240 C 
BRANCH  18  19
ATOM     19  C   LIG    1        0.561  -2.711  -0.181  0.00  0.00    -0.070 A 
ATOM     20  C   LIG    1       -0.691  -2.288   0.222  0.00  0.00    +0.050 A 
ATOM     21  C   LIG    1       -0.972  -0.938   0.314  0.00  0.00    +0.040 A 
ATOM     22  C   LIG    1        0.002  -0.004   0.002  0.00  0.00    +0.030 A 
ATOM     23  O   LIG    1       -0.016   1.361   0.009  0.00  0.00    -0.310 OA
ATOM     24  C   LIG    1        1.366   1.764  -0.002  0.00  0.00    +0.430 C 
ATOM     25  O   LIG    1        2.037   0.668  -0.651  0.00  0.00    -0.310 OA
ATOM     26  C   LIG    1        1.265  -0.430  -0.404  0.00  0.00    +0.030 A 
ATOM     27  C   LIG    1        1.539  -1.784  -0.494  0.00  0.00    +0.030 A 
ENDBRANCH  18  19
ENDBRANCH   4  18
TORSDOF 5
