REMARK  Name = ZINCpk00000e8Wkh.2
REMARK                            x       y       z     vdW  Elec       q    Type
REMARK                         _______ _______ _______ _____ _____    ______ ____
ROOT
ATOM      1  C   LIG    1       -0.130   3.018  -0.903  0.00  0.00    +0.140 C 
ATOM      2  C   LIG    1       -1.173   4.069  -0.442  0.00  0.00    +0.280 C 
ATOM      3  N   LIG    1       -1.350   3.821   1.000  0.00  0.00    -0.620 N 
ATOM      4  C   LIG    1       -0.144   3.158   1.516  0.00  0.00    +0.250 C 
ATOM      5  C   LIG    1       -2.438   4.148   1.726  0.00  0.00    +0.580 C 
ATOM      6  O   LIG    1       -3.423   4.600   1.175  0.00  0.00    -0.510 OA
ATOM      7  C   LIG    1        0.817   2.963   0.324  0.00  0.00    -0.010 C 
ATOM      8  C   LIG    1        1.845   4.096   0.267  0.00  0.00    +0.050 C 
ENDROOT
BRANCH   1  15
ATOM      9  C   LIG    1        2.841   6.790  -4.545  0.00  0.00    +0.080 C 
ATOM     10  C   LIG    1        3.145   5.614  -3.654  0.00  0.00    +0.510 C 
ATOM     11  N   LIG    1        2.479   4.454  -3.819  0.00  0.00    -0.600 N 
ATOM     12  C   LIG    1        1.422   4.398  -4.806  0.00  0.00    +0.270 C 
ATOM     13  C   LIG    1        0.072   4.768  -4.141  0.00  0.00    +0.020 C 
ATOM     14  C   LIG    1       -0.337   3.695  -3.213  0.00  0.00    +0.160 C 
ATOM     15  N   LIG    1        0.588   3.474  -2.102  0.00  0.00    -0.520 NA
ATOM     16  C   LIG    1        1.621   2.532  -2.477  0.00  0.00    +0.170 C 
ATOM     17  C   LIG    1        2.859   3.296  -2.984  0.00  0.00    +0.280 C 
ATOM     18  O   LIG    1        3.989   5.710  -2.788  0.00  0.00    -0.550 OA
ENDBRANCH   1  15
BRANCH   5  19
ATOM     19  C   LIG    1       -2.433   3.957   3.189  0.00  0.00    -0.160 A 
ATOM     20  C   LIG    1       -1.322   4.338   3.944  0.00  0.00    +0.060 A 
ATOM     21  C   LIG    1       -1.326   4.161   5.311  0.00  0.00    +0.000 A 
ATOM     22  C   LIG    1       -2.424   3.597   5.939  0.00  0.00    +0.050 A 
ATOM     23  C   LIG    1       -3.527   3.212   5.204  0.00  0.00    -0.010 A 
ATOM     24  C   LIG    1       -3.543   3.387   3.829  0.00  0.00    +0.160 A 
BRANCH  24  25
ATOM     25  O   LIG    1       -4.627   3.009   3.106  0.00  0.00    -0.480 OA
ATOM     26  H   LIG    1       -4.589   2.096   2.789  0.00  0.00    +0.390 HD
ENDBRANCH  24  25
ENDBRANCH   5  19
TORSDOF 3
