REMARK  Name = ZINCrH000004sY2R.0
REMARK                            x       y       z     vdW  Elec       q    Type
REMARK                         _______ _______ _______ _____ _____    ______ ____
ROOT
ATOM      1  N   LIG    1        7.231   5.871  -1.216  0.00  0.00    -0.720 N 
ATOM      2  H   LIG    1        7.261   6.760  -1.602  0.00  0.00    +0.400 HD
ATOM      3  C   LIG    1        6.048   5.247  -1.051  0.00  0.00    +0.560 C 
ATOM      4  O   LIG    1        6.010   4.133  -0.567  0.00  0.00    -0.500 OA
ENDROOT
BRANCH   3   5
ATOM      5  C   LIG    1        4.799   5.916  -1.459  0.00  0.00    -0.130 A 
ATOM      6  C   LIG    1        4.838   7.197  -2.016  0.00  0.00    +0.070 A 
ATOM      7  C   LIG    1        3.667   7.817  -2.394  0.00  0.00    -0.010 A 
ATOM      8  C   LIG    1        2.449   7.177  -2.226  0.00  0.00    +0.060 A 
ATOM      9  C   LIG    1        2.394   5.910  -1.683  0.00  0.00    -0.020 A 
ATOM     10  C   LIG    1        3.563   5.270  -1.290  0.00  0.00    -0.040 A 
BRANCH  10  11
ATOM     11  S   LIG    1        3.497   3.655  -0.590  0.00  0.00    +0.030 S 
BRANCH  11  12
ATOM     12  C   LIG    1        1.721   3.283  -0.590  0.00  0.00    +0.030 C 
BRANCH  12  13
ATOM     13  C   LIG    1        1.492   1.889  -0.002  0.00  0.00    +0.180 C 
ATOM     14  C   LIG    1       -0.019   1.544   0.011  0.00  0.00    +0.010 C 
ATOM     15  C   LIG    1        0.002  -0.004   0.002  0.00  0.00    +0.000 C 
ATOM     16  C   LIG    1        1.398  -0.360  -0.546  0.00  0.00    +0.190 C 
ATOM     17  O   LIG    1        2.062   0.876  -0.858  0.00  0.00    -0.360 OA
ENDBRANCH  12  13
ENDBRANCH  11  12
ENDBRANCH  10  11
ENDBRANCH   3   5
BRANCH   1  18
ATOM     18  C   LIG    1        8.472   5.206  -0.810  0.00  0.00    +0.400 C 
BRANCH  18  28
ATOM     19  C   LIG    1        9.674   7.295   1.127  0.00  0.00    +0.330 C 
ATOM     20  N   LIG    1       10.155   7.022  -0.229  0.00  0.00    -0.480 N 
ATOM     21  C   LIG    1       11.213   7.644  -0.862  0.00  0.00    +0.050 A 
ATOM     22  C   LIG    1       12.109   8.639  -0.497  0.00  0.00    +0.010 A 
ATOM     23  C   LIG    1       13.078   9.047  -1.389  0.00  0.00    +0.030 A 
ATOM     24  C   LIG    1       13.163   8.469  -2.647  0.00  0.00    +0.000 A 
ATOM     25  C   LIG    1       12.290   7.488  -3.024  0.00  0.00    +0.070 A 
ATOM     26  C   LIG    1       11.300   7.059  -2.137  0.00  0.00    +0.040 A 
ATOM     27  N   LIG    1       10.316   6.126  -2.212  0.00  0.00    -0.470 NA
ATOM     28  C   LIG    1        9.643   6.109  -1.098  0.00  0.00    +0.260 A 
ENDBRANCH  18  28
ENDBRANCH   1  18
TORSDOF 6
