REMARK  Name = ZINCpk00000eb8Yr.0
REMARK                            x       y       z     vdW  Elec       q    Type
REMARK                         _______ _______ _______ _____ _____    ______ ____
ROOT
ATOM      1  C   LIG    1        4.840   1.109  -0.014  0.00  0.00    +0.140 C 
ATOM      2  C   LIG    1        3.526   1.846  -0.010  0.00  0.00    +0.200 A 
ATOM      3  N   LIG    1        2.425   1.187   0.244  0.00  0.00    -0.490 NA
ATOM      4  C   LIG    1        1.231   1.791   0.261  0.00  0.00    +0.130 A 
ATOM      5  C   LIG    1        0.061   1.063   0.536  0.00  0.00    +0.100 A 
ATOM      6  C   LIG    1       -1.145   1.693   0.543  0.00  0.00    -0.030 A 
ATOM      7  C   LIG    1       -1.242   3.065   0.290  0.00  0.00    +0.090 A 
ATOM      8  C   LIG    1       -0.126   3.805   0.017  0.00  0.00    +0.050 A 
ATOM      9  C   LIG    1        1.132   3.181  -0.002  0.00  0.00    -0.100 A 
ATOM     10  C   LIG    1        2.302   3.910  -0.278  0.00  0.00    +0.160 A 
ATOM     11  C   LIG    1        3.511   3.226  -0.280  0.00  0.00    -0.130 A 
ENDROOT
BRANCH  11  12
ATOM     12  C   LIG    1        4.772   3.942  -0.563  0.00  0.00    +0.580 C 
ATOM     13  N   LIG    1        4.770   5.284  -0.695  0.00  0.00    -1.120 NA
ATOM     14  O   LIG    1        5.812   3.322  -0.677  0.00  0.00    -0.600 OA
BRANCH  13  15
ATOM     15  S   LIG    1        6.183   6.087  -1.013  0.00  0.00    +2.560 S 
ATOM     16  O   LIG    1        6.577   5.611  -2.292  0.00  0.00    -0.990 OA
ATOM     17  O   LIG    1        6.986   5.851   0.136  0.00  0.00    -0.990 OA
BRANCH  15  18
ATOM     18  C   LIG    1        5.700   7.833  -1.104  0.00  0.00    -0.360 C 
BRANCH  18  19
ATOM     19  C   LIG    1        6.935   8.688  -1.396  0.00  0.00    +0.290 C 
BRANCH  19  20
ATOM     20  N   LIG    1        6.544  10.103  -1.470  0.00  0.00    -0.630 N 
ATOM     21  H   LIG    1        6.139  10.386  -0.591  0.00  0.00    +0.440 HD
ATOM     22  H   LIG    1        5.867  10.226  -2.208  0.00  0.00    +0.440 HD
ATOM     23  H   LIG    1        7.358  10.667  -1.663  0.00  0.00    +0.440 HD
ENDBRANCH  19  20
ENDBRANCH  18  19
ENDBRANCH  15  18
ENDBRANCH  13  15
ENDBRANCH  11  12
BRANCH   7  24
ATOM     24  O   LIG    1       -2.460   3.667   0.308  0.00  0.00    -0.310 OA
BRANCH  24  25
ATOM     25  C   LIG    1       -3.588   2.840   0.599  0.00  0.00    +0.600 C 
ATOM     26  F   LIG    1       -3.684   1.828  -0.361  0.00  0.00    -0.160 F 
ATOM     27  F   LIG    1       -4.753   3.615   0.578  0.00  0.00    -0.130 F 
ATOM     28  F   LIG    1       -3.432   2.268   1.866  0.00  0.00    -0.160 F 
ENDBRANCH  24  25
ENDBRANCH   7  24
TORSDOF 7
