REMARK  Name = ZINCah00000040qv.0
REMARK                            x       y       z     vdW  Elec       q    Type
REMARK                         _______ _______ _______ _____ _____    ______ ____
ROOT
ATOM      1  O   LIG    1       -4.534   2.379   0.035  0.00  0.00    -0.480 OA
ATOM      2  C   LIG    1       -3.319   2.413   0.030  0.00  0.00    +0.640 A 
ATOM      3  N   LIG    1       -2.572   3.536   0.046  0.00  0.00    -0.650 N 
ATOM      4  H   LIG    1       -2.906   4.446   0.054  0.00  0.00    +0.440 HD
ATOM      5  C   LIG    1       -1.233   3.148   0.031  0.00  0.00    +0.070 A 
ATOM      6  C   LIG    1       -0.039   3.851   0.024  0.00  0.00    +0.040 A 
ATOM      7  C   LIG    1        1.162   3.167   0.009  0.00  0.00    +0.040 A 
ATOM      8  C   LIG    1        1.174   1.784   0.000  0.00  0.00    +0.030 A 
ATOM      9  C   LIG    1       -0.013   1.076   0.008  0.00  0.00    +0.060 A 
ATOM     10  C   LIG    1       -1.221   1.753   0.017  0.00  0.00    +0.030 A 
ATOM     11  O   LIG    1       -2.513   1.340   0.021  0.00  0.00    -0.240 OA
ENDROOT
TORSDOF 0
