REMARK  Name = ZINCAx0000000iBb.0
REMARK                            x       y       z     vdW  Elec       q    Type
REMARK                         _______ _______ _______ _____ _____    ______ ____
ROOT
ATOM      1  N   LIG    1       -8.324   5.004  -1.939  0.00  0.00    -0.420 NA
ATOM      2  C   LIG    1       -8.551   6.437  -1.625  0.00  0.00    +0.180 C 
ATOM      3  C   LIG    1       -7.130   6.664  -2.147  0.00  0.00    -0.060 C 
ATOM      4  C   LIG    1       -7.031   7.042  -3.632  0.00  0.00    +0.060 C 
ATOM      5  C   LIG    1       -6.656   8.547  -3.610  0.00  0.00    +0.010 C 
ATOM      6  C   LIG    1       -5.694   8.646  -2.400  0.00  0.00    +0.020 C 
ATOM      7  C   LIG    1       -6.291   7.673  -1.359  0.00  0.00    +0.020 C 
ATOM      8  C   LIG    1       -6.858   5.191  -1.830  0.00  0.00    +0.130 C 
ENDROOT
BRANCH   8   9
ATOM      9  C   LIG    1       -6.318   4.958  -0.442  0.00  0.00    +0.520 C 
ATOM     10  N   LIG    1       -5.084   4.441  -0.278  0.00  0.00    -0.610 N 
ATOM     11  C   LIG    1       -4.544   4.209   1.069  0.00  0.00    +0.280 C 
ATOM     12  C   LIG    1       -4.099   2.746   1.175  0.00  0.00    +0.040 C 
ATOM     13  C   LIG    1       -3.147   2.422   0.032  0.00  0.00    -0.040 C 
ATOM     14  C   LIG    1       -1.866   3.272   0.142  0.00  0.00    +0.250 C 
ATOM     15  O   LIG    1       -0.843   2.360  -0.296  0.00  0.00    -0.300 OA
ATOM     16  C   LIG    1       -1.242   1.082  -0.045  0.00  0.00    +0.110 A 
ATOM     17  C   LIG    1       -0.493  -0.089   0.025  0.00  0.00    -0.010 A 
ATOM     18  C   LIG    1       -1.110  -1.296   0.283  0.00  0.00    +0.050 A 
ATOM     19  C   LIG    1       -2.478  -1.353   0.472  0.00  0.00    -0.020 A 
ATOM     20  C   LIG    1       -3.231  -0.195   0.401  0.00  0.00    +0.060 A 
ATOM     21  C   LIG    1       -3.812   2.638  -1.321  0.00  0.00    +0.040 C 
ATOM     22  C   LIG    1       -2.618   1.013   0.152  0.00  0.00    -0.160 A 
ATOM     23  C   LIG    1       -4.255   4.101  -1.442  0.00  0.00    +0.280 C 
ATOM     24  O   LIG    1       -6.993   5.235   0.526  0.00  0.00    -0.530 OA
ENDBRANCH   8   9
BRANCH   1  26
ATOM     25  C   LIG    1       -8.133   2.778  -0.936  0.00  0.00    +0.050 C 
ATOM     26  C   LIG    1       -8.826   4.140  -0.863  0.00  0.00    +0.220 C 
BRANCH  26  27
ATOM     27  C   LIG    1      -10.314   3.955  -1.020  0.00  0.00    +0.440 A 
ATOM     28  N   LIG    1      -11.105   4.057   0.034  0.00  0.00    -0.630 NA
ATOM     29  C   LIG    1      -12.419   3.894  -0.101  0.00  0.00    +0.620 A 
ATOM     30  N   LIG    1      -12.935   3.630  -1.296  0.00  0.00    -0.660 NA
ATOM     31  C   LIG    1      -12.136   3.529  -2.353  0.00  0.00    +0.620 A 
ATOM     32  N   LIG    1      -10.824   3.698  -2.211  0.00  0.00    -0.610 NA
BRANCH  31  33
ATOM     33  N   LIG    1      -12.668   3.255  -3.597  0.00  0.00    -0.810 N 
ATOM     34  H   LIG    1      -12.084   3.182  -4.368  0.00  0.00    +0.420 HD
ATOM     35  H   LIG    1      -13.625   3.136  -3.700  0.00  0.00    +0.410 HD
ENDBRANCH  31  33
BRANCH  29  36
ATOM     36  N   LIG    1      -13.245   4.001   1.000  0.00  0.00    -0.580 N 
ATOM     37  C   LIG    1      -14.691   3.822   0.851  0.00  0.00    +0.300 C 
ATOM     38  C   LIG    1      -12.675   4.292   2.318  0.00  0.00    +0.300 C 
ENDBRANCH  29  36
ENDBRANCH  26  27
ENDBRANCH   1  26
TORSDOF 5
