REMARK  Name = ZINCpe00000IDWT8.0
REMARK                            x       y       z     vdW  Elec       q    Type
REMARK                         _______ _______ _______ _____ _____    ______ ____
ROOT
ATOM      1  C   LIG    1        1.157  -0.482  -2.167  0.00  0.00    +0.530 C 
ATOM      2  N   LIG    1        2.224  -0.658  -2.970  0.00  0.00    -0.620 N 
ATOM      3  C   LIG    1        3.577  -0.798  -2.409  0.00  0.00    +0.290 C 
ATOM      4  C   LIG    1        4.505   0.190  -3.122  0.00  0.00    +0.180 C 
ATOM      5  N   LIG    1        4.411  -0.015  -4.574  0.00  0.00    -0.490 NA
ATOM      6  C   LIG    1        3.057   0.271  -5.066  0.00  0.00    +0.130 C 
ATOM      7  C   LIG    1        2.068  -0.721  -4.432  0.00  0.00    +0.310 C 
ATOM      8  O   LIG    1        0.039  -0.468  -2.638  0.00  0.00    -0.520 OA
ENDROOT
BRANCH   1  16
ATOM      9  C   LIG    1       -1.952   1.736   1.092  0.00  0.00    +0.140 A 
ATOM     10  C   LIG    1       -1.010   2.528   0.454  0.00  0.00    -0.080 A 
ATOM     11  C   LIG    1        0.088   1.943  -0.146  0.00  0.00    +0.060 A 
ATOM     12  C   LIG    1        0.252   0.568  -0.112  0.00  0.00    -0.120 A 
ATOM     13  C   LIG    1       -0.687  -0.224   0.524  0.00  0.00    -0.040 A 
ATOM     14  C   LIG    1       -0.282  -1.679   0.422  0.00  0.00    +0.090 C 
ATOM     15  C   LIG    1        1.214  -1.656   0.043  0.00  0.00    +0.060 C 
ATOM     16  C   LIG    1        1.351  -0.302  -0.684  0.00  0.00    +0.040 C 
ATOM     17  C   LIG    1       -1.788   0.360   1.125  0.00  0.00    -0.010 A 
BRANCH   9  19
ATOM     18  C   LIG    1       -3.138   3.731   1.609  0.00  0.00    +0.250 C 
ATOM     19  O   LIG    1       -3.034   2.308   1.684  0.00  0.00    -0.320 OA
ENDBRANCH   9  19
ENDBRANCH   1  16
BRANCH   6  20
ATOM     20  C   LIG    1        3.024   0.121  -6.565  0.00  0.00    +0.520 C 
ATOM     21  O   LIG    1        4.030  -0.192  -7.165  0.00  0.00    -0.510 OA
ATOM     22  N   LIG    1        1.877   0.336  -7.239  0.00  0.00    -0.860 N 
ATOM     23  H   LIG    1        1.856   0.240  -8.204  0.00  0.00    +0.410 HD
ATOM     24  H   LIG    1        1.072   0.586  -6.759  0.00  0.00    +0.400 HD
ENDBRANCH   6  20
BRANCH   5  25
ATOM     25  C   LIG    1        5.410   0.793  -5.285  0.00  0.00    +0.090 C 
ATOM     26  C   LIG    1        6.365   0.063  -6.232  0.00  0.00    +0.070 C 
ATOM     27  C   LIG    1        6.878   0.606  -4.895  0.00  0.00    +0.000 C 
ENDBRANCH   5  25
TORSDOF 4
