REMARK  Name = ZINCrD000006UMWP.0
REMARK                            x       y       z     vdW  Elec       q    Type
REMARK                         _______ _______ _______ _____ _____    ______ ____
ROOT
ATOM      1  C   LIG    1        1.811   6.112   0.043  0.00  0.00    +0.070 A 
ATOM      2  C   LIG    1        2.926   5.285   0.024  0.00  0.00    +0.030 A 
ATOM      3  C   LIG    1        2.767   3.913   0.027  0.00  0.00    +0.010 A 
ATOM      4  C   LIG    1        1.494   3.362   0.050  0.00  0.00    +0.110 A 
ATOM      5  C   LIG    1        0.380   4.188   0.063  0.00  0.00    -0.050 A 
ATOM      6  C   LIG    1        0.537   5.560   0.065  0.00  0.00    +0.000 A 
ENDROOT
BRANCH   1  12
ATOM      7  C   LIG    1        0.305  12.012   1.439  0.00  0.00    +0.090 C 
ATOM      8  C   LIG    1        1.562  11.214   1.670  0.00  0.00    +0.510 C 
ATOM      9  N   LIG    1        1.842  10.155   0.885  0.00  0.00    -0.620 N 
ATOM     10  C   LIG    1        0.880   9.689  -0.125  0.00  0.00    +0.290 C 
ATOM     11  C   LIG    1        0.669   8.182   0.062  0.00  0.00    +0.180 C 
ATOM     12  N   LIG    1        1.971   7.503   0.040  0.00  0.00    -0.480 N 
ATOM     13  C   LIG    1        2.818   7.938   1.158  0.00  0.00    +0.190 C 
ATOM     14  C   LIG    1        3.117   9.434   1.016  0.00  0.00    +0.290 C 
ATOM     15  O   LIG    1        2.322  11.525   2.562  0.00  0.00    -0.540 OA
ENDBRANCH   1  12
BRANCH   4  16
ATOM     16  O   LIG    1        1.339   2.011   0.053  0.00  0.00    -0.310 OA
BRANCH  16  17
ATOM     17  C   LIG    1       -0.000   1.512   0.076  0.00  0.00    +0.210 C 
BRANCH  17  18
ATOM     18  C   LIG    1        0.025  -0.018   0.076  0.00  0.00    +0.060 C 
BRANCH  18  19
ATOM     19  C   LIG    1       -1.408  -0.552   0.101  0.00  0.00    +0.200 C 
BRANCH  19  20
ATOM     20  O   LIG    1       -1.384  -1.981   0.101  0.00  0.00    -0.310 OA
BRANCH  20  21
ATOM     21  C   LIG    1       -2.585  -2.618   0.122  0.00  0.00    +0.120 A 
ATOM     22  C   LIG    1       -3.761  -1.883   0.148  0.00  0.00    -0.040 A 
ATOM     23  C   LIG    1       -4.980  -2.532   0.165  0.00  0.00    +0.030 A 
ATOM     24  C   LIG    1       -5.029  -3.916   0.166  0.00  0.00    +0.060 A 
ATOM     25  C   LIG    1       -3.856  -4.651   0.145  0.00  0.00    +0.030 A 
ATOM     26  F   LIG    1       -6.222  -4.549   0.187  0.00  0.00    -0.140 F 
ATOM     27  C   LIG    1       -2.635  -4.004   0.123  0.00  0.00    +0.020 A 
ENDBRANCH  20  21
ENDBRANCH  19  20
ENDBRANCH  18  19
ENDBRANCH  17  18
ENDBRANCH  16  17
ENDBRANCH   4  16
TORSDOF 7
