REMARK  Name = ZINCtV000002ulDx.0
REMARK                            x       y       z     vdW  Elec       q    Type
REMARK                         _______ _______ _______ _____ _____    ______ ____
ROOT
ATOM      1  N   LIG    1       -0.119   1.185   2.566  0.00  0.00    -0.450 N 
ATOM      2  C   LIG    1       -0.357   0.025   3.246  0.00  0.00    +0.160 A 
ATOM      3  N   LIG    1        0.639  -0.145   4.087  0.00  0.00    -0.290 NA
ATOM      4  N   LIG    1        1.473   0.828   3.986  0.00  0.00    -0.260 NA
ATOM      5  C   LIG    1        1.064   1.675   3.070  0.00  0.00    +0.220 A 
ENDROOT
BRANCH   5   6
ATOM      6  C   LIG    1        1.745   2.921   2.659  0.00  0.00    -0.010 A 
ATOM      7  C   LIG    1        1.442   3.513   1.432  0.00  0.00    +0.030 A 
ATOM      8  C   LIG    1        2.077   4.678   1.056  0.00  0.00    +0.030 A 
ATOM      9  C   LIG    1        3.022   5.254   1.888  0.00  0.00    -0.020 A 
ATOM     10  C   LIG    1        3.332   4.668   3.104  0.00  0.00    +0.040 A 
ATOM     11 CL   LIG    1        3.823   6.717   1.404  0.00  0.00    -0.060 Cl
ATOM     12  C   LIG    1        2.699   3.506   3.493  0.00  0.00    +0.090 A 
ENDBRANCH   5   6
BRANCH   1  13
ATOM     13  C   LIG    1       -0.952   1.786   1.522  0.00  0.00    +0.300 C 
BRANCH  13  14
ATOM     14  C   LIG    1       -0.571   1.196   0.162  0.00  0.00    +0.020 C 
BRANCH  14  15
ATOM     15  C   LIG    1       -1.441   1.823  -0.928  0.00  0.00    +0.020 C 
BRANCH  15  16
ATOM     16  C   LIG    1       -1.060   1.233  -2.288  0.00  0.00    +0.000 C 
BRANCH  16  17
ATOM     17  C   LIG    1       -1.930   1.860  -3.378  0.00  0.00    +0.000 C 
BRANCH  17  18
ATOM     18  C   LIG    1       -1.549   1.270  -4.737  0.00  0.00    +0.000 C 
BRANCH  18  20
ATOM     19  C   LIG    1       -2.038   1.308  -7.187  0.00  0.00    +0.000 C 
ATOM     20  C   LIG    1       -2.419   1.898  -5.828  0.00  0.00    -0.010 C 
ENDBRANCH  18  20
ENDBRANCH  17  18
ENDBRANCH  16  17
ENDBRANCH  15  16
ENDBRANCH  14  15
ENDBRANCH  13  14
ENDBRANCH   1  13
BRANCH   2  21
ATOM     21  S   LIG    1       -1.739  -1.047   3.033  0.00  0.00    +0.020 S 
BRANCH  21  22
ATOM     22  C   LIG    1       -1.341  -2.320   4.256  0.00  0.00    +0.200 C 
BRANCH  22  23
ATOM     23  C   LIG    1       -2.417  -3.375   4.252  0.00  0.00    -0.210 A 
ATOM     24  C   LIG    1       -3.548  -3.416   4.997  0.00  0.00    +0.000 A 
ATOM     25  O   LIG    1       -4.192  -4.538   4.647  0.00  0.00    +0.100 OA
ATOM     26  N   LIG    1       -3.583  -5.156   3.805  0.00  0.00    -0.360 NA
ATOM     27  C   LIG    1       -3.994  -2.400   6.016  0.00  0.00    +0.200 C 
ATOM     28  C   LIG    1       -2.478  -4.554   3.474  0.00  0.00    +0.040 A 
ATOM     29  C   LIG    1       -1.463  -5.021   2.462  0.00  0.00    +0.160 C 
ENDBRANCH  22  23
ENDBRANCH  21  22
ENDBRANCH   2  21
TORSDOF 11
