REMARK  Name = ZINCpk00000xI2yb.0
REMARK                            x       y       z     vdW  Elec       q    Type
REMARK                         _______ _______ _______ _____ _____    ______ ____
ROOT
ATOM      1  C   LIG    1       -1.008  -0.533   6.720  0.00  0.00    -0.020 C 
ATOM      2  C   LIG    1       -0.003  -1.687   6.686  0.00  0.00    +0.050 C 
ATOM      3  C   LIG    1        0.407  -1.966   5.238  0.00  0.00    +0.010 C 
ATOM      4  C   LIG    1        1.076  -0.724   4.652  0.00  0.00    +0.260 C 
ATOM      5  N   LIG    1        0.176   0.426   4.813  0.00  0.00    -0.630 N 
ATOM      6  C   LIG    1       -0.164   1.185   3.753  0.00  0.00    +0.710 C 
ATOM      7  N   LIG    1        0.244   0.839   2.517  0.00  0.00    -0.740 N 
ATOM      8  H   LIG    1        0.840   0.083   2.397  0.00  0.00    +0.400 HD
ATOM      9  O   LIG    1       -0.841   2.183   3.913  0.00  0.00    -0.590 OA
ATOM     10  C   LIG    1       -0.350   0.729   6.151  0.00  0.00    +0.310 C 
ENDROOT
BRANCH   1  12
ATOM     11  N   LIG    1       -2.550   0.434   8.394  0.00  0.00    -0.620 N 
ATOM     12  C   LIG    1       -1.435  -0.280   8.142  0.00  0.00    +0.520 C 
ATOM     13  O   LIG    1       -0.775  -0.718   9.061  0.00  0.00    -0.530 OA
ATOM     14  C   LIG    1       -3.286   1.057   7.291  0.00  0.00    +0.280 C 
BRANCH  11  15
ATOM     15  C   LIG    1       -3.027   0.587   9.771  0.00  0.00    +0.300 C 
BRANCH  15  16
ATOM     16  C   LIG    1       -2.396   1.834  10.393  0.00  0.00    +0.160 C 
BRANCH  16  20
ATOM     17  C   LIG    1       -5.059   3.128  14.432  0.00  0.00    +0.240 C 
ATOM     18  C   LIG    1       -4.021   2.546  13.508  0.00  0.00    +0.180 A 
ATOM     19  N   LIG    1       -3.975   2.676  12.204  0.00  0.00    -0.480 NA
ATOM     20  C   LIG    1       -2.887   1.991  11.810  0.00  0.00    +0.170 A 
ATOM     21  N   LIG    1       -2.332   1.495  12.875  0.00  0.00    -0.380 NA
ATOM     22  O   LIG    1       -2.969   1.802  13.861  0.00  0.00    +0.080 OA
ENDBRANCH  16  20
ENDBRANCH  15  16
ENDBRANCH  11  15
ENDBRANCH   1  12
BRANCH   7  23
ATOM     23  C   LIG    1       -0.211   1.604   1.353  0.00  0.00    +0.280 C 
BRANCH  23  24
ATOM     24  C   LIG    1        0.395   1.007   0.082  0.00  0.00    -0.030 C 
ATOM     25  C   LIG    1       -0.177   1.726  -1.142  0.00  0.00    +0.030 C 
ATOM     26  C   LIG    1        1.915   1.180   0.110  0.00  0.00    +0.020 C 
ENDBRANCH  23  24
ENDBRANCH   7  23
TORSDOF 6
