REMARK  Name = ZINCpe00000VVH4m.0
REMARK                            x       y       z     vdW  Elec       q    Type
REMARK                         _______ _______ _______ _____ _____    ______ ____
ROOT
ATOM      1  N   LIG    1        0.693  -1.136   1.082  0.00  0.00    -0.530 NA
ATOM      2  C   LIG    1        0.202   0.234   0.880  0.00  0.00    +0.190 C 
ATOM      3  C   LIG    1        1.371   1.140   0.487  0.00  0.00    +0.200 C 
ATOM      4  N   LIG    1        2.394   1.100   1.542  0.00  0.00    -0.510 NA
ATOM      5  C   LIG    1        2.885  -0.270   1.744  0.00  0.00    +0.190 C 
ATOM      6  C   LIG    1        1.716  -1.176   2.136  0.00  0.00    +0.180 C 
ENDROOT
BRANCH   4   7
ATOM      7  C   LIG    1        3.501   2.017   1.237  0.00  0.00    +0.180 C 
ATOM      8  C   LIG    1        2.937   3.379   0.828  0.00  0.00    +0.070 C 
BRANCH   7   9
ATOM      9  C   LIG    1        4.322   1.453   0.106  0.00  0.00    +0.480 C 
ATOM     10  N   LIG    1        5.638   1.734   0.024  0.00  0.00    -0.640 N 
ATOM     11  H   LIG    1        6.056   2.299   0.692  0.00  0.00    +0.420 HD
ATOM     12  O   LIG    1        3.800   0.747  -0.730  0.00  0.00    -0.450 OA
BRANCH  10  13
ATOM     13  C   LIG    1        6.395   1.215  -1.019  0.00  0.00    +0.530 A 
ATOM     14  N   LIG    1        5.810   0.441  -1.919  0.00  0.00    -0.500 NA
ATOM     15  C   LIG    1        6.501  -0.066  -2.927  0.00  0.00    +0.350 A 
ATOM     16  C   LIG    1        7.855   0.213  -3.026  0.00  0.00    -0.110 A 
ATOM     17  C   LIG    1        8.436   1.023  -2.063  0.00  0.00    +0.350 A 
ATOM     18  N   LIG    1        7.686   1.501  -1.084  0.00  0.00    -0.550 NA
ENDBRANCH  10  13
ENDBRANCH   7   9
ENDBRANCH   4   7
BRANCH   1  19
ATOM     19  C   LIG    1       -0.414  -2.053   1.387  0.00  0.00    +0.300 C 
BRANCH  19  24
ATOM     20  N   LIG    1        0.594  -4.161   2.390  0.00  0.00    -0.460 N 
ATOM     21  C   LIG    1        0.925  -5.408   1.933  0.00  0.00    +0.110 A 
ATOM     22  C   LIG    1        0.607  -5.440   0.624  0.00  0.00    +0.140 A 
ATOM     23  N   LIG    1        0.091  -4.247   0.293  0.00  0.00    -0.470 NA
ATOM     24  C   LIG    1        0.085  -3.474   1.345  0.00  0.00    +0.210 A 
BRANCH  20  26
ATOM     25  C   LIG    1       -0.545  -3.852   4.532  0.00  0.00    +0.030 C 
ATOM     26  C   LIG    1        0.761  -3.665   3.758  0.00  0.00    +0.280 C 
ENDBRANCH  20  26
ENDBRANCH  19  24
ENDBRANCH   1  19
TORSDOF 6
