REMARK  Name = ZINCqH000000523X.1
REMARK                            x       y       z     vdW  Elec       q    Type
REMARK                         _______ _______ _______ _____ _____    ______ ____
ROOT
ATOM      1  S   LIG    1       -1.684   2.334  -0.032  0.00  0.00    +2.680 S 
ATOM      2  O   LIG    1       -2.717   1.360  -0.080  0.00  0.00    -0.930 OA
ATOM      3  O   LIG    1       -1.637   3.461  -0.896  0.00  0.00    -0.920 OA
ENDROOT
BRANCH   1   4
ATOM      4  C   LIG    1       -0.169   1.464  -0.266  0.00  0.00    -0.670 A 
ATOM      5  C   LIG    1       -0.178   0.090  -0.417  0.00  0.00    +0.250 A 
ATOM      6  C   LIG    1        1.010  -0.592  -0.606  0.00  0.00    -0.050 A 
ATOM      7  C   LIG    1        2.206   0.098  -0.643  0.00  0.00    +0.200 A 
ATOM      8  C   LIG    1        2.217   1.473  -0.492  0.00  0.00    -0.050 A 
ATOM      9 CL   LIG    1        3.720   2.341  -0.539  0.00  0.00    +0.000 Cl
ATOM     10  C   LIG    1        1.028   2.157  -0.303  0.00  0.00    +0.100 A 
ATOM     11 CL   LIG    1        1.039   3.882  -0.113  0.00  0.00    +0.020 Cl
BRANCH   6  12
ATOM     12  N   LIG    1        0.999  -2.064  -0.767  0.00  0.00    +0.020 N 
ATOM     13  O   LIG    1        2.045  -2.666  -0.933  0.00  0.00    -0.140 OA
ATOM     14  O   LIG    1       -0.055  -2.672  -0.733  0.00  0.00    -0.130 OA
ENDBRANCH   6  12
ENDBRANCH   1   4
BRANCH   1  15
ATOM     15  N   LIG    1       -1.673   2.929   1.514  0.00  0.00    -0.980 NA
BRANCH  15  16
ATOM     16  C   LIG    1       -2.022   2.056   2.637  0.00  0.00    +0.240 C 
ATOM     17  C   LIG    1       -3.151   2.696   3.448  0.00  0.00    +0.020 C 
ATOM     18  C   LIG    1       -3.516   1.784   4.622  0.00  0.00    +0.020 C 
ATOM     19  C   LIG    1       -2.290   1.590   5.517  0.00  0.00    +0.010 C 
ATOM     20  C   LIG    1       -1.161   0.951   4.706  0.00  0.00    +0.020 C 
ATOM     21  C   LIG    1       -0.797   1.863   3.532  0.00  0.00    +0.010 C 
ENDBRANCH  15  16
BRANCH  15  22
ATOM     22  C   LIG    1       -1.316   4.329   1.757  0.00  0.00    +0.300 C 
BRANCH  22  23
ATOM     23  C   LIG    1       -2.586   5.181   1.791  0.00  0.00    +0.160 C 
BRANCH  23  25
ATOM     24  C   LIG    1       -1.518   7.067   0.711  0.00  0.00    +0.180 C 
ATOM     25  N   LIG    1       -2.220   6.599   1.913  0.00  0.00    -0.540 NA
ATOM     26  C   LIG    1       -3.404   7.426   2.186  0.00  0.00    +0.190 C 
ENDBRANCH  23  25
ENDBRANCH  22  23
ENDBRANCH  15  22
ENDBRANCH   1  15
TORSDOF 7
