REMARK  Name = ZINCpk00000xZy0o.0
REMARK                            x       y       z     vdW  Elec       q    Type
REMARK                         _______ _______ _______ _____ _____    ______ ____
ROOT
ATOM      1  C   LIG    1       -0.823   1.981  -2.325  0.00  0.00    +0.280 C 
ENDROOT
BRANCH   1   2
ATOM      2  C   LIG    1       -0.564   2.254  -0.843  0.00  0.00    +0.160 C 
ATOM      3  C   LIG    1       -0.559   0.928  -0.054  0.00  0.00    +0.010 C 
ATOM      4  C   LIG    1       -1.265   1.308   1.274  0.00  0.00    +0.190 C 
ATOM      5  C   LIG    1       -2.323   2.329   0.784  0.00  0.00    +0.170 C 
ATOM      6  F   LIG    1       -1.877   0.192   1.854  0.00  0.00    -0.200 F 
ATOM      7  N   LIG    1       -1.647   3.088  -0.289  0.00  0.00    -0.500 NA
BRANCH   7   8
ATOM      8  C   LIG    1       -2.599   3.478  -1.338  0.00  0.00    +0.270 C 
BRANCH   8   9
ATOM      9  C   LIG    1       -3.575   4.482  -0.782  0.00  0.00    +0.080 A 
ATOM     10  C   LIG    1       -3.481   5.828  -0.885  0.00  0.00    -0.100 A 
ATOM     11  C   LIG    1       -4.587   6.388  -0.237  0.00  0.00    +0.230 A 
ATOM     12  N   LIG    1       -5.315   5.413   0.244  0.00  0.00    -0.290 NA
ATOM     13  N   LIG    1       -4.697   4.200  -0.086  0.00  0.00    -0.370 N 
ATOM     14  C   LIG    1       -5.182   2.862   0.262  0.00  0.00    +0.340 C 
ENDBRANCH   8   9
ENDBRANCH   7   8
ENDBRANCH   1   2
BRANCH   1  16
ATOM     15  C   LIG    1        0.235  -0.239  -2.949  0.00  0.00    +0.280 C 
ATOM     16  N   LIG    1        0.299   1.223  -2.886  0.00  0.00    -0.610 N 
ATOM     17  C   LIG    1        1.389   1.871  -3.343  0.00  0.00    +0.500 C 
ATOM     18  O   LIG    1        1.481   3.072  -3.208  0.00  0.00    -0.520 OA
BRANCH  17  19
ATOM     19  C   LIG    1        2.493   1.101  -4.022  0.00  0.00    +0.130 C 
ATOM     20  C   LIG    1        3.348   0.398  -2.966  0.00  0.00    +0.000 C 
ATOM     21  C   LIG    1        4.469  -0.383  -3.656  0.00  0.00    +0.030 C 
ATOM     22  C   LIG    1        5.342   0.582  -4.460  0.00  0.00    +0.010 C 
ATOM     23  C   LIG    1        4.487   1.286  -5.516  0.00  0.00    +0.020 C 
ATOM     24  C   LIG    1        3.366   2.066  -4.826  0.00  0.00    +0.070 C 
BRANCH  19  25
ATOM     25  O   LIG    1        1.924   0.128  -4.900  0.00  0.00    -0.550 OA
ATOM     26  H   LIG    1        1.564  -0.647  -4.448  0.00  0.00    +0.380 HD
ENDBRANCH  19  25
ENDBRANCH  17  19
ENDBRANCH   1  16
TORSDOF 6
