REMARK  Name = ZINCqH00000519kI.0
REMARK                            x       y       z     vdW  Elec       q    Type
REMARK                         _______ _______ _______ _____ _____    ______ ____
ROOT
ATOM      1  O   LIG    1        1.046   2.915  -0.072  0.00  0.00    -0.510 OA
ATOM      2  C   LIG    1        1.115   1.707   0.008  0.00  0.00    +0.520 C 
ATOM      3  N   LIG    1       -0.011   0.966   0.007  0.00  0.00    -0.670 N 
ATOM      4  H   LIG    1        0.046  -0.003   0.004  0.00  0.00    +0.420 HD
ENDROOT
BRANCH   3   5
ATOM      5  C   LIG    1       -1.260   1.593   0.006  0.00  0.00    +0.160 A 
ATOM      6  C   LIG    1       -2.324   1.020   0.694  0.00  0.00    -0.010 A 
ATOM      7  C   LIG    1       -3.556   1.639   0.699  0.00  0.00    +0.090 A 
ATOM      8  C   LIG    1       -3.737   2.835   0.003  0.00  0.00    -0.040 A 
ATOM      9  C   LIG    1       -2.668   3.405  -0.691  0.00  0.00    +0.050 A 
ATOM     10  C   LIG    1       -1.438   2.784  -0.688  0.00  0.00    +0.030 A 
BRANCH   8  11
ATOM     11  C   LIG    1       -5.058   3.498   0.002  0.00  0.00    +0.120 A 
ATOM     12  N   LIG    1       -6.124   3.062   0.612  0.00  0.00    -0.470 NA
ATOM     13  C   LIG    1       -7.214   3.786   0.500  0.00  0.00    +0.220 A 
ATOM     14  C   LIG    1       -7.102   4.898  -0.234  0.00  0.00    -0.070 A 
ATOM     15  S   LIG    1       -5.443   5.010  -0.817  0.00  0.00    +0.090 S 
ENDBRANCH   8  11
ENDBRANCH   3   5
BRANCH   2  16
ATOM     16  C   LIG    1        2.459   1.034   0.107  0.00  0.00    +0.060 C 
BRANCH  16  17
ATOM     17  C   LIG    1        3.563   2.094   0.086  0.00  0.00    +0.370 C 
BRANCH  17  18
ATOM     18  N   LIG    1        4.870   1.440   0.183  0.00  0.00    -0.550 N 
ATOM     19  C   LIG    1        5.627   1.015  -0.848  0.00  0.00    +0.640 A 
ATOM     20  O   LIG    1        6.758   0.467  -0.376  0.00  0.00    -0.240 OA
ATOM     21  C   LIG    1        6.751   0.527   0.978  0.00  0.00    +0.030 A 
ATOM     22  C   LIG    1        7.652   0.115   1.947  0.00  0.00    +0.060 A 
ATOM     23  C   LIG    1        7.366   0.316   3.284  0.00  0.00    +0.030 A 
ATOM     24  C   LIG    1        6.183   0.927   3.661  0.00  0.00    +0.040 A 
ATOM     25  C   LIG    1        5.279   1.341   2.702  0.00  0.00    +0.040 A 
ATOM     26  O   LIG    1        5.332   1.115  -2.023  0.00  0.00    -0.480 OA
ATOM     27  C   LIG    1        5.561   1.148   1.359  0.00  0.00    +0.070 A 
ENDBRANCH  17  18
ENDBRANCH  16  17
ENDBRANCH   2  16
TORSDOF 5
