REMARK  Name = ZINCpe000000WUKp.0
REMARK                            x       y       z     vdW  Elec       q    Type
REMARK                         _______ _______ _______ _____ _____    ______ ____
ROOT
ATOM      1  S   LIG    1        1.490   2.349  -0.126  0.00  0.00    +2.710 S 
ATOM      2  O   LIG    1        2.322   1.550   0.704  0.00  0.00    -0.960 OA
ATOM      3  O   LIG    1        1.295   3.741   0.079  0.00  0.00    -0.930 OA
ENDROOT
BRANCH   1   5
ATOM      4  C   LIG    1        1.526   2.760  -2.855  0.00  0.00    -0.160 A 
ATOM      5  C   LIG    1        2.104   2.168  -1.767  0.00  0.00    -0.620 A 
ATOM      6  C   LIG    1        3.216   1.422  -2.080  0.00  0.00    +0.080 A 
ATOM      7  C   LIG    1        3.533   1.394  -3.380  0.00  0.00    -0.060 A 
ATOM      8  S   LIG    1        2.439   2.331  -4.295  0.00  0.00    +0.260 S 
BRANCH   4  11
ATOM      9  N   LIG    1       -0.073   4.239  -3.948  0.00  0.00    -0.710 N 
ATOM     10  H   LIG    1        0.419   4.122  -4.775  0.00  0.00    +0.400 HD
ATOM     11  C   LIG    1        0.336   3.615  -2.826  0.00  0.00    +0.570 C 
ATOM     12  O   LIG    1       -0.282   3.762  -1.788  0.00  0.00    -0.500 OA
BRANCH   9  13
ATOM     13  C   LIG    1       -1.263   5.093  -3.919  0.00  0.00    +0.260 C 
BRANCH  13  15
ATOM     14  C   LIG    1       -2.749   6.568  -5.282  0.00  0.00    +0.020 C 
ATOM     15  C   LIG    1       -1.507   5.676  -5.312  0.00  0.00    +0.200 C 
BRANCH  15  16
ATOM     16  O   LIG    1       -0.374   6.450  -5.710  0.00  0.00    -0.560 OA
ATOM     17  H   LIG    1       -0.178   7.192  -5.121  0.00  0.00    +0.380 HD
ENDBRANCH  15  16
ENDBRANCH  13  15
ENDBRANCH   9  13
ENDBRANCH   4  11
ENDBRANCH   1   5
BRANCH   1  18
ATOM     18  N   LIG    1       -0.013   1.655  -0.086  0.00  0.00    -1.100 NA
ATOM     19  H   LIG    1       -0.796   2.204   0.076  0.00  0.00    +0.430 HD
BRANCH  18  20
ATOM     20  C   LIG    1       -0.161   0.214  -0.300  0.00  0.00    +0.250 C 
BRANCH  20  21
ATOM     21  C   LIG    1       -1.547  -0.233   0.171  0.00  0.00    +0.270 C 
BRANCH  21  22
ATOM     22  C   LIG    1       -1.654  -1.732   0.065  0.00  0.00    -0.120 A 
ATOM     23  C   LIG    1       -1.924  -2.321  -1.157  0.00  0.00    +0.010 A 
ATOM     24  C   LIG    1       -2.018  -3.696  -1.255  0.00  0.00    +0.000 A 
ATOM     25  C   LIG    1       -1.852  -4.483  -0.130  0.00  0.00    +0.000 A 
ATOM     26  C   LIG    1       -1.588  -3.894   1.092  0.00  0.00    +0.010 A 
ATOM     27  C   LIG    1       -1.489  -2.518   1.190  0.00  0.00    +0.020 A 
ENDBRANCH  21  22
BRANCH  21  28
ATOM     28  O   LIG    1       -2.547   0.376  -0.648  0.00  0.00    -0.550 OA
ATOM     29  H   LIG    1       -2.479   0.151  -1.585  0.00  0.00    +0.370 HD
ENDBRANCH  21  28
ENDBRANCH  20  21
ENDBRANCH  18  20
ENDBRANCH   1  18
TORSDOF 10
