REMARK  Name = ZINCtV00001bB3dd.0
REMARK                            x       y       z     vdW  Elec       q    Type
REMARK                         _______ _______ _______ _____ _____    ______ ____
ROOT
ATOM      1  C   LIG    1        2.357   6.959   1.452  0.00  0.00    +0.040 C 
ATOM      2  C   LIG    1        1.409   7.041   0.254  0.00  0.00    +0.010 C 
ATOM      3  C   LIG    1        0.576   5.760   0.172  0.00  0.00    +0.210 C 
ATOM      4  N   LIG    1        1.466   4.606  -0.007  0.00  0.00    -0.410 N 
ATOM      5  C   LIG    1        2.225   4.710  -1.260  0.00  0.00    +0.220 C 
ATOM      6  C   LIG    1        3.107   5.960  -1.221  0.00  0.00    +0.070 C 
ATOM      7  C   LIG    1        2.224   7.196  -1.033  0.00  0.00    +0.040 C 
ENDROOT
BRANCH   7   8
ATOM      8  C   LIG    1        3.092   8.424  -0.935  0.00  0.00    -0.080 A 
ATOM      9  C   LIG    1        4.246   8.397  -0.174  0.00  0.00    +0.060 A 
ATOM     10  C   LIG    1        5.042   9.523  -0.085  0.00  0.00    +0.020 A 
ATOM     11  C   LIG    1        4.685  10.677  -0.756  0.00  0.00    +0.070 A 
ATOM     12  C   LIG    1        3.531  10.705  -1.518  0.00  0.00    -0.180 A 
ATOM     13  C   LIG    1        2.738   9.577  -1.611  0.00  0.00    +0.060 A 
BRANCH  12  14
ATOM     14  C   LIG    1        3.142  11.963  -2.251  0.00  0.00    +0.510 C 
ATOM     15  F   LIG    1        1.891  12.397  -1.799  0.00  0.00    -0.180 F 
ATOM     16  F   LIG    1        3.078  11.702  -3.623  0.00  0.00    -0.180 F 
ATOM     17  F   LIG    1        4.096  12.957  -2.009  0.00  0.00    -0.180 F 
ENDBRANCH  12  14
ENDBRANCH   7   8
BRANCH   4  18
ATOM     18  C   LIG    1        0.761   3.427   0.045  0.00  0.00    +0.360 A 
ATOM     19  N   LIG    1        1.256   2.209  -0.074  0.00  0.00    -0.480 NA
ATOM     20  C   LIG    1        0.198   1.378   0.043  0.00  0.00    +0.230 A 
ATOM     21  N   LIG    1       -0.864   2.121   0.219  0.00  0.00    -0.380 NA
ATOM     22  O   LIG    1       -0.560   3.295   0.228  0.00  0.00    +0.050 OA
BRANCH  20  23
ATOM     23  C   LIG    1        0.234  -0.104  -0.022  0.00  0.00    -0.020 A 
ATOM     24  C   LIG    1        1.442  -0.766  -0.228  0.00  0.00    +0.090 A 
ATOM     25  C   LIG    1        1.471  -2.145  -0.281  0.00  0.00    +0.030 A 
ATOM     26  C   LIG    1        0.299  -2.870  -0.144  0.00  0.00    -0.020 A 
ATOM     27  C   LIG    1       -0.905  -2.216   0.054  0.00  0.00    +0.030 A 
ATOM     28 CL   LIG    1        0.341  -4.604  -0.220  0.00  0.00    -0.060 Cl
ATOM     29  C   LIG    1       -0.943  -0.838   0.116  0.00  0.00    +0.070 A 
ENDBRANCH  20  23
ENDBRANCH   4  18
TORSDOF 4
