REMARK  Name = ZINCvU0000000Apa.0
REMARK                            x       y       z     vdW  Elec       q    Type
REMARK                         _______ _______ _______ _____ _____    ______ ____
ROOT
ATOM      1  C   LIG    1       -0.311   1.589   1.064  0.00  0.00    -0.120 A 
ATOM      2  C   LIG    1        0.882   2.315   1.061  0.00  0.00    +0.140 A 
ATOM      3  C   LIG    1        1.159   3.178   0.023  0.00  0.00    -0.050 A 
ATOM      4  C   LIG    1        0.260   3.330  -1.020  0.00  0.00    +0.150 A 
ATOM      5  C   LIG    1       -0.923   2.620  -1.032  0.00  0.00    +0.000 A 
ATOM      6  C   LIG    1       -1.222   1.749   0.008  0.00  0.00    +0.210 A 
ENDROOT
BRANCH   6   7
ATOM      7  N   LIG    1       -2.415   1.036   0.001  0.00  0.00    -0.490 N 
ATOM      8  C   LIG    1       -3.570   1.943  -0.016  0.00  0.00    +0.180 C 
ATOM      9  C   LIG    1       -4.859   1.131   0.124  0.00  0.00    +0.050 C 
ATOM     10  C   LIG    1       -4.955   0.132  -1.032  0.00  0.00    -0.010 C 
ATOM     11  C   LIG    1       -3.717  -0.769  -1.021  0.00  0.00    +0.040 C 
ATOM     12  C   LIG    1       -2.460   0.098  -1.127  0.00  0.00    +0.180 C 
BRANCH  10  13
ATOM     13  C   LIG    1       -6.212  -0.724  -0.865  0.00  0.00    +0.070 C 
BRANCH  13  14
ATOM     14  C   LIG    1       -7.434   0.147  -0.999  0.00  0.00    -0.080 A 
ATOM     15  C   LIG    1       -7.981   0.747   0.120  0.00  0.00    +0.000 A 
ATOM     16  C   LIG    1       -9.100   1.549  -0.003  0.00  0.00    +0.000 A 
ATOM     17  C   LIG    1       -9.678   1.744  -1.244  0.00  0.00    -0.010 A 
ATOM     18  C   LIG    1       -9.134   1.140  -2.362  0.00  0.00    +0.000 A 
ATOM     19  C   LIG    1       -8.012   0.341  -2.240  0.00  0.00    +0.000 A 
ENDBRANCH  13  14
ENDBRANCH  10  13
ENDBRANCH   6   7
BRANCH   1  22
ATOM     20  N   LIG    1        0.307   0.434   3.128  0.00  0.00    -0.630 N 
ATOM     21  H   LIG    1        1.169   0.878   3.088  0.00  0.00    +0.420 HD
ATOM     22  C   LIG    1       -0.613   0.664   2.171  0.00  0.00    +0.560 C 
ATOM     23  O   LIG    1       -1.694   0.108   2.221  0.00  0.00    -0.450 OA
BRANCH  20  28
ATOM     24  C   LIG    1        1.233  -2.006   7.230  0.00  0.00    +0.160 C 
ATOM     25  C   LIG    1        0.399  -1.577   6.051  0.00  0.00    +0.090 A 
ATOM     26  C   LIG    1       -0.840  -2.028   5.841  0.00  0.00    -0.140 A 
ATOM     27  S   LIG    1       -1.450  -1.284   4.365  0.00  0.00    +0.250 S 
ATOM     28  C   LIG    1        0.022  -0.437   4.171  0.00  0.00    +0.240 A 
ATOM     29  N   LIG    1        0.836  -0.731   5.137  0.00  0.00    -0.510 NA
ENDBRANCH  20  28
ENDBRANCH   1  22
BRANCH   3  30
ATOM     30  N   LIG    1        2.424   3.946   0.022  0.00  0.00    +0.030 N 
ATOM     31  O   LIG    1        3.218   3.815   0.937  0.00  0.00    -0.150 OA
ATOM     32  O   LIG    1        2.672   4.710  -0.894  0.00  0.00    -0.150 OA
ENDBRANCH   3  30
TORSDOF 6
