REMARK  Name = ZINCvU00000004ja.0
REMARK                            x       y       z     vdW  Elec       q    Type
REMARK                         _______ _______ _______ _____ _____    ______ ____
ROOT
ATOM      1  C   LIG    1       -4.761   0.658   0.145  0.00  0.00    +0.110 A 
ATOM      2  C   LIG    1       -6.044   1.178   0.186  0.00  0.00    -0.010 A 
ATOM      3  C   LIG    1       -6.235   2.547   0.217  0.00  0.00    -0.080 A 
ATOM      4  C   LIG    1       -5.148   3.400   0.208  0.00  0.00    +0.030 A 
ATOM      5  C   LIG    1       -3.864   2.888   0.172  0.00  0.00    -0.030 A 
ATOM      6  C   LIG    1       -3.666   1.517   0.135  0.00  0.00    +0.110 A 
ENDROOT
BRANCH   1   8
ATOM      7  C   LIG    1       -5.742  -1.508   0.128  0.00  0.00    +0.240 C 
ATOM      8  O   LIG    1       -4.572  -0.688   0.115  0.00  0.00    -0.300 OA
ENDBRANCH   1   8
BRANCH   3   9
ATOM      9  C   LIG    1       -7.632   3.111   0.262  0.00  0.00    +0.260 C 
BRANCH   9  10
ATOM     10  N   LIG    1       -8.051   3.267   1.657  0.00  0.00    -0.160 NA
ATOM     11  N   LIG    1       -8.354   4.388   2.092  0.00  0.00    -0.190 NA
BRANCH  11  12
ATOM     12  C   LIG    1       -8.746   4.534   3.397  0.00  0.00    +0.260 A 
ATOM     13  N   LIG    1       -8.805   3.470   4.191  0.00  0.00    -0.440 NA
ATOM     14  C   LIG    1       -9.172   3.568   5.450  0.00  0.00    +0.310 A 
ATOM     15  C   LIG    1       -9.523   4.793   5.997  0.00  0.00    -0.060 A 
ATOM     16  C   LIG    1       -9.481   5.930   5.203  0.00  0.00    +0.110 A 
ATOM     17 CL   LIG    1      -10.010   4.902   7.660  0.00  0.00    -0.030 Cl
ATOM     18  C   LIG    1       -9.086   5.799   3.881  0.00  0.00    -0.020 A 
ATOM     19 CL   LIG    1       -9.015   7.188   2.841  0.00  0.00    -0.010 Cl
ENDBRANCH  11  12
ENDBRANCH   9  10
ENDBRANCH   3   9
BRANCH   6  20
ATOM     20  O   LIG    1       -2.404   1.012   0.094  0.00  0.00    -0.280 OA
BRANCH  20  21
ATOM     21  C   LIG    1       -1.328   1.953   0.086  0.00  0.00    +0.220 C 
BRANCH  21  22
ATOM     22  C   LIG    1       -0.015   1.214   0.040  0.00  0.00    +0.520 C 
ATOM     23  N   LIG    1        1.144   1.901   0.019  0.00  0.00    -0.600 N 
ATOM     24  C   LIG    1        1.144   3.367  -0.086  0.00  0.00    +0.220 C 
ATOM     25  C   LIG    1        1.978   3.940   1.069  0.00  0.00    +0.020 C 
ATOM     26  C   LIG    1        3.372   3.309   1.046  0.00  0.00    +0.020 C 
ATOM     27  C   LIG    1        3.252   1.796   1.244  0.00  0.00    +0.020 C 
ATOM     28  C   LIG    1        1.758   3.785  -1.424  0.00  0.00    +0.030 C 
ATOM     29  C   LIG    1        2.432   1.199   0.096  0.00  0.00    +0.220 C 
ATOM     30  C   LIG    1        2.190  -0.290   0.354  0.00  0.00    +0.050 C 
ATOM     31  O   LIG    1       -0.002   0.002   0.016  0.00  0.00    -0.500 OA
ENDBRANCH  21  22
ENDBRANCH  20  21
ENDBRANCH   6  20
TORSDOF 7
