REMARK  Name = ZINCnE000001EbcJ.1
REMARK                            x       y       z     vdW  Elec       q    Type
REMARK                         _______ _______ _______ _____ _____    ______ ____
ROOT
ATOM      1  C   LIG    1        0.440   2.991   1.131  0.00  0.00    +0.090 C 
ATOM      2  C   LIG    1        1.218   3.683   2.252  0.00  0.00    +0.020 C 
ATOM      3  C   LIG    1        1.948   4.905   1.683  0.00  0.00    +0.270 C 
ATOM      4  N   LIG    1        0.969   5.767   1.006  0.00  0.00    -0.610 N 
ATOM      5  C   LIG    1        0.105   5.179  -0.026  0.00  0.00    +0.270 C 
ATOM      6  C   LIG    1        0.867   7.072   1.327  0.00  0.00    +0.520 C 
ATOM      7  O   LIG    1        1.529   7.527   2.235  0.00  0.00    -0.540 OA
ATOM      8  C   LIG    1       -0.604   3.955   0.562  0.00  0.00    +0.040 C 
ENDROOT
BRANCH   1  14
ATOM      9  N   LIG    1        0.315   0.526   1.819  0.00  0.00    -0.500 N 
ATOM     10  C   LIG    1       -0.610  -0.304   2.342  0.00  0.00    +0.390 A 
ATOM     11  N   LIG    1       -1.738   0.412   2.527  0.00  0.00    -0.390 NA
ATOM     12  N   LIG    1       -1.475   1.721   2.098  0.00  0.00    -0.330 NA
ATOM     13  S   LIG    1       -0.392  -1.964   2.705  0.00  0.00    -0.780 S 
ATOM     14  C   LIG    1       -0.251   1.770   1.680  0.00  0.00    +0.170 A 
BRANCH   9  16
ATOM     15  C   LIG    1        2.425  -0.338   2.702  0.00  0.00    +0.040 C 
ATOM     16  C   LIG    1        1.688   0.164   1.459  0.00  0.00    +0.230 C 
ATOM     17  C   LIG    1        1.663  -0.941   0.401  0.00  0.00    +0.040 C 
ENDBRANCH   9  16
ENDBRANCH   1  14
BRANCH   6  18
ATOM     18  C   LIG    1       -0.071   7.965   0.556  0.00  0.00    -0.020 C 
ATOM     19  C   LIG    1        0.608   8.423  -0.737  0.00  0.00    +0.030 C 
ATOM     20  C   LIG    1       -0.344   9.330  -1.519  0.00  0.00    +0.000 C 
ATOM     21  C   LIG    1       -0.699  10.552  -0.669  0.00  0.00    +0.000 C 
ATOM     22  C   LIG    1       -1.377  10.094   0.624  0.00  0.00    +0.000 C 
ATOM     23  C   LIG    1       -0.425   9.187   1.406  0.00  0.00    +0.040 C 
ENDBRANCH   6  18
TORSDOF 3
