REMARK  Name = ZINCqH00000339Hf.0
REMARK                            x       y       z     vdW  Elec       q    Type
REMARK                         _______ _______ _______ _____ _____    ______ ____
ROOT
ATOM      1  N   LIG    1       -2.485   1.093  -0.087  0.00  0.00    -1.050 N 
ATOM      2  H   LIG    1       -3.206   1.438  -0.637  0.00  0.00    +0.430 HD
ENDROOT
BRANCH   1   3
ATOM      3  C   LIG    1       -1.263   1.772  -0.027  0.00  0.00    +0.230 A 
ATOM      4  C   LIG    1       -0.077   1.062   0.076  0.00  0.00    -0.010 A 
ATOM      5  C   LIG    1        1.130   1.736   0.129  0.00  0.00    +0.090 A 
ATOM      6  C   LIG    1        1.158   3.117   0.086  0.00  0.00    -0.010 A 
ATOM      7  C   LIG    1       -0.020   3.834  -0.012  0.00  0.00    +0.110 A 
ATOM      8  C   LIG    1       -1.235   3.167  -0.066  0.00  0.00    -0.160 A 
BRANCH   8   9
ATOM      9  S   LIG    1       -2.738   4.078  -0.191  0.00  0.00    +0.110 S 
BRANCH   9  10
ATOM     10  C   LIG    1       -3.107   3.828  -1.896  0.00  0.00    +0.120 A 
ATOM     11  N   LIG    1       -2.442   3.068  -2.735  0.00  0.00    -0.280 NA
ATOM     12  N   LIG    1       -2.990   3.117  -3.897  0.00  0.00    -0.290 NA
ATOM     13  C   LIG    1       -4.024   3.910  -3.870  0.00  0.00    +0.380 A 
ATOM     14  N   LIG    1       -4.135   4.391  -2.596  0.00  0.00    -0.470 N 
ATOM     15  C   LIG    1       -5.148   5.319  -2.086  0.00  0.00    +0.350 C 
ENDBRANCH   9  10
ENDBRANCH   8   9
ENDBRANCH   1   3
BRANCH   1  16
ATOM     16  S   LIG    1       -2.701  -0.301   0.781  0.00  0.00    +2.690 S 
ATOM     17  O   LIG    1       -1.624  -1.160   0.434  0.00  0.00    -0.940 OA
ATOM     18  O   LIG    1       -4.066  -0.663   0.625  0.00  0.00    -0.950 OA
BRANCH  16  22
ATOM     19  C   LIG    1       -2.145   0.743   5.151  0.00  0.00    -0.020 A 
ATOM     20  C   LIG    1       -3.400   0.821   4.575  0.00  0.00    -0.010 A 
ATOM     21  C   LIG    1       -3.569   0.503   3.241  0.00  0.00    +0.130 A 
ATOM     22  C   LIG    1       -2.485   0.105   2.482  0.00  0.00    -0.680 A 
ATOM     23  C   LIG    1       -1.231   0.021   3.059  0.00  0.00    +0.130 A 
ATOM     24  C   LIG    1       -1.060   0.345   4.392  0.00  0.00    -0.010 A 
BRANCH  19  25
ATOM     25  C   LIG    1       -1.960   1.090   6.605  0.00  0.00    +0.070 C 
BRANCH  25  27
ATOM     26  C   LIG    1       -1.961   0.188   8.935  0.00  0.00    +0.030 C 
ATOM     27  C   LIG    1       -2.149  -0.166   7.458  0.00  0.00    +0.020 C 
ENDBRANCH  25  27
ENDBRANCH  19  25
ENDBRANCH  16  22
ENDBRANCH   1  16
TORSDOF 7
