REMARK  Name = ZINCrg00000aSx9Z.0
REMARK                            x       y       z     vdW  Elec       q    Type
REMARK                         _______ _______ _______ _____ _____    ______ ____
ROOT
ATOM      1  N   LIG    1       -2.247   6.477  -1.908  0.00  0.00    -0.570 N 
ATOM      2  C   LIG    1       -3.239   7.081  -1.233  0.00  0.00    +0.710 C 
ATOM      3  N   LIG    1       -4.345   6.415  -0.863  0.00  0.00    -0.730 N 
ATOM      4  H   LIG    1       -5.005   6.856  -0.306  0.00  0.00    +0.430 HD
ATOM      5  C   LIG    1       -4.570   5.031  -1.290  0.00  0.00    +0.300 C 
ATOM      6  C   LIG    1       -3.233   4.286  -1.326  0.00  0.00    +0.010 C 
ATOM      7  O   LIG    1       -3.133   8.258  -0.949  0.00  0.00    -0.550 OA
ATOM      8  C   LIG    1       -2.209   5.138  -2.032  0.00  0.00    +0.520 C 
ATOM      9  O   LIG    1       -1.351   4.616  -2.712  0.00  0.00    -0.480 OA
ENDROOT
BRANCH   1  10
ATOM     10  C   LIG    1       -1.191   7.289  -2.517  0.00  0.00    +0.330 C 
BRANCH  10  13
ATOM     11  N   LIG    1       -2.028   9.871  -4.258  0.00  0.00    -0.610 N 
ATOM     12  C   LIG    1       -2.678   8.562  -4.124  0.00  0.00    +0.270 C 
ATOM     13  C   LIG    1       -1.526   7.542  -3.988  0.00  0.00    -0.020 C 
ATOM     14  C   LIG    1       -0.368   8.277  -4.701  0.00  0.00    +0.080 C 
ATOM     15  C   LIG    1       -0.731   9.741  -4.587  0.00  0.00    +0.520 C 
ATOM     16  O   LIG    1        0.036  10.663  -4.766  0.00  0.00    -0.530 OA
BRANCH  11  17
ATOM     17  C   LIG    1       -2.705  11.155  -4.058  0.00  0.00    +0.320 C 
BRANCH  17  18
ATOM     18  C   LIG    1       -3.293  11.634  -5.386  0.00  0.00    +0.150 C 
BRANCH  18  20
ATOM     19  C   LIG    1       -4.932  11.087  -7.047  0.00  0.00    +0.200 C 
ATOM     20  O   LIG    1       -4.315  10.729  -5.809  0.00  0.00    -0.390 OA
ENDBRANCH  18  20
ENDBRANCH  17  18
ENDBRANCH  11  17
ENDBRANCH  10  13
ENDBRANCH   1  10
BRANCH   6  21
ATOM     21  C   LIG    1       -2.766   4.004   0.104  0.00  0.00    +0.110 C 
BRANCH  21  22
ATOM     22  C   LIG    1       -1.513   3.167   0.067  0.00  0.00    -0.110 A 
ATOM     23  C   LIG    1       -1.604   1.788   0.065  0.00  0.00    +0.050 A 
ATOM     24  C   LIG    1       -0.455   1.020   0.037  0.00  0.00    -0.010 A 
ATOM     25  C   LIG    1        0.786   1.632  -0.001  0.00  0.00    +0.100 A 
ATOM     26  C   LIG    1        0.875   3.014  -0.004  0.00  0.00    -0.010 A 
ATOM     27  F   LIG    1        1.909   0.882  -0.034  0.00  0.00    -0.140 F 
ATOM     28  C   LIG    1       -0.274   3.780   0.029  0.00  0.00    +0.040 A 
ENDBRANCH  21  22
ENDBRANCH   6  21
TORSDOF 7
