REMARK  Name = ZINCpe00000VVGjq.0
REMARK                            x       y       z     vdW  Elec       q    Type
REMARK                         _______ _______ _______ _____ _____    ______ ____
ROOT
ATOM      1  C   LIG    1       -2.197   1.162  -1.020  0.00  0.00    +0.130 C 
ATOM      2  C   LIG    1       -2.143   2.431  -0.167  0.00  0.00    +0.130 C 
ATOM      3  C   LIG    1       -1.181   2.241   0.977  0.00  0.00    -0.070 A 
ATOM      4  C   LIG    1       -1.246   3.119   2.048  0.00  0.00    +0.000 A 
ATOM      5  C   LIG    1       -0.392   2.988   3.110  0.00  0.00    +0.010 A 
ATOM      6  C   LIG    1        0.546   1.973   3.114  0.00  0.00    +0.000 A 
ATOM      7  C   LIG    1        0.615   1.096   2.050  0.00  0.00    +0.010 A 
ATOM      8  C   LIG    1       -0.252   1.228   0.975  0.00  0.00    -0.080 A 
ATOM      9  C   LIG    1       -0.140   0.245  -0.161  0.00  0.00    +0.230 C 
ATOM     10  N   LIG    1       -0.820   0.764  -1.352  0.00  0.00    -0.500 NA
ENDROOT
BRANCH   1  14
ATOM     11  N   LIG    1       -4.294   1.221  -2.330  0.00  0.00    -0.850 N 
ATOM     12  H   LIG    1       -4.788   1.397  -3.146  0.00  0.00    +0.410 HD
ATOM     13  H   LIG    1       -4.757   0.889  -1.544  0.00  0.00    +0.400 HD
ATOM     14  C   LIG    1       -2.965   1.436  -2.287  0.00  0.00    +0.520 C 
ATOM     15  O   LIG    1       -2.386   1.851  -3.269  0.00  0.00    -0.520 OA
ENDBRANCH   1  14
BRANCH  10  16
ATOM     16  C   LIG    1       -0.805  -0.224  -2.439  0.00  0.00    +0.480 C 
BRANCH  16  17
ATOM     17  N   LIG    1       -0.438  -1.536  -1.901  0.00  0.00    -0.610 N 
ATOM     18  C   LIG    1       -1.346  -2.424  -1.438  0.00  0.00    +0.540 C 
ATOM     19  C   LIG    1       -0.563  -3.515  -0.765  0.00  0.00    -0.010 C 
ATOM     20  C   LIG    1       -1.201  -4.864  -0.701  0.00  0.00    +0.100 C 
ATOM     21  C   LIG    1       -0.968  -5.698  -1.921  0.00  0.00    -0.030 C 
ATOM     22  C   LIG    1       -0.119  -5.385  -2.842  0.00  0.00    -0.050 C 
ATOM     23  C   LIG    1        0.706  -4.145  -2.854  0.00  0.00    +0.080 C 
ATOM     24  C   LIG    1        0.787  -3.471  -1.498  0.00  0.00    +0.040 C 
ATOM     25  O   LIG    1       -2.552  -2.354  -1.546  0.00  0.00    -0.460 OA
ATOM     26  C   LIG    1        0.835  -1.970  -1.828  0.00  0.00    +0.530 C 
ATOM     27  O   LIG    1        1.833  -1.302  -1.990  0.00  0.00    -0.460 OA
ENDBRANCH  16  17
ENDBRANCH  10  16
TORSDOF 3
