REMARK  Name = ZINCpk00000ebaDF.0
REMARK                            x       y       z     vdW  Elec       q    Type
REMARK                         _______ _______ _______ _____ _____    ______ ____
ROOT
ATOM      1  C   LIG    1        4.838   1.189  -0.685  0.00  0.00    +0.400 C 
ATOM      2  O   LIG    1        4.864   0.012  -0.976  0.00  0.00    -0.420 OA
ENDROOT
BRANCH   1   3
ATOM      3  C   LIG    1        3.565   1.831  -0.333  0.00  0.00    -0.160 A 
ATOM      4  C   LIG    1        3.532   3.189   0.003  0.00  0.00    +0.090 A 
ATOM      5  C   LIG    1        2.338   3.791   0.334  0.00  0.00    +0.030 A 
ATOM      6  C   LIG    1        1.163   3.052   0.334  0.00  0.00    +0.110 A 
ATOM      7  O   LIG    1       -0.019   3.637   0.658  0.00  0.00    -0.300 OA
ATOM      8  C   LIG    1       -1.184   3.143  -0.007  0.00  0.00    +0.310 C 
ATOM      9  C   LIG    1       -1.184   1.636   0.017  0.00  0.00    +0.490 C 
ATOM     10  N   LIG    1       -0.011   0.966   0.007  0.00  0.00    -0.660 N 
ATOM     11  H   LIG    1        0.002  -0.004   0.002  0.00  0.00    +0.420 HD
ATOM     12  O   LIG    1       -2.233   1.028   0.048  0.00  0.00    -0.500 OA
ATOM     13  C   LIG    1        1.188   1.695  -0.000  0.00  0.00    +0.080 A 
ATOM     14  C   LIG    1        2.379   1.084  -0.333  0.00  0.00    +0.090 A 
ENDBRANCH   1   3
BRANCH   1  15
ATOM     15  C   LIG    1        6.112   1.994  -0.685  0.00  0.00    +0.240 C 
BRANCH  15  16
ATOM     16  O   LIG    1        7.224   1.140  -1.063  0.00  0.00    -0.330 OA
BRANCH  16  17
ATOM     17  C   LIG    1        8.444   1.710  -1.112  0.00  0.00    +0.560 C 
ATOM     18  O   LIG    1        8.576   2.888  -0.845  0.00  0.00    -0.490 OA
BRANCH  17  26
ATOM     19  C   LIG    1        9.537   1.287  -4.061  0.00  0.00    +0.170 C 
ATOM     20  C   LIG    1       10.116   0.708  -2.797  0.00  0.00    +0.120 A 
ATOM     21  N   LIG    1       11.168  -0.060  -2.717  0.00  0.00    -0.290 NA
ATOM     22  N   LIG    1       11.384  -0.395  -1.375  0.00  0.00    -0.360 N 
ATOM     23  C   LIG    1       10.437   0.196  -0.630  0.00  0.00    +0.140 A 
ATOM     24  C   LIG    1       10.292   0.103   0.867  0.00  0.00    +0.160 C 
ATOM     25  C   LIG    1       12.462  -1.248  -0.869  0.00  0.00    +0.360 C 
ATOM     26  C   LIG    1        9.619   0.905  -1.489  0.00  0.00    -0.280 A 
ENDBRANCH  17  26
ENDBRANCH  16  17
ENDBRANCH  15  16
ENDBRANCH   1  15
TORSDOF 5
