REMARK  Name = ZINCpk00000e9WhN.0
REMARK                            x       y       z     vdW  Elec       q    Type
REMARK                         _______ _______ _______ _____ _____    ______ ____
ROOT
ATOM      1  C   LIG    1       -1.293  -0.775   0.010  0.00  0.00    +0.220 C 
ENDROOT
BRANCH   1   2
ATOM      2  N   LIG    1       -1.005  -2.216  -0.000  0.00  0.00    -0.520 NA
ATOM      3  C   LIG    1       -2.234  -2.998  -0.208  0.00  0.00    +0.170 C 
ATOM      4  C   LIG    1       -1.842  -4.429  -0.576  0.00  0.00    +0.090 C 
ATOM      5  C   LIG    1       -0.843  -4.961   0.420  0.00  0.00    -0.110 A 
ATOM      6  C   LIG    1       -0.631  -6.330   0.476  0.00  0.00    +0.040 A 
ATOM      7  C   LIG    1        0.280  -6.861   1.366  0.00  0.00    -0.080 A 
ATOM      8  C   LIG    1        0.988  -6.019   2.211  0.00  0.00    +0.130 A 
ATOM      9  C   LIG    1        0.773  -4.651   2.156  0.00  0.00    -0.020 A 
ATOM     10  C   LIG    1       -0.144  -4.121   1.262  0.00  0.00    -0.030 A 
ATOM     11  C   LIG    1       -0.345  -2.629   1.242  0.00  0.00    +0.250 C 
BRANCH   8  12
ATOM     12  O   LIG    1        1.889  -6.533   3.089  0.00  0.00    -0.320 OA
ATOM     13  C   LIG    1        2.057  -7.952   3.088  0.00  0.00    +0.250 C 
ENDBRANCH   8  12
ENDBRANCH   1   2
BRANCH   1  19
ATOM     14  C   LIG    1       -0.062   3.966  -1.048  0.00  0.00    +0.030 C 
ATOM     15  C   LIG    1        1.199   3.107  -1.161  0.00  0.00    +0.050 C 
ATOM     16  C   LIG    1        1.238   2.109   0.002  0.00  0.00    +0.280 C 
ATOM     17  N   LIG    1       -0.016   1.344   0.009  0.00  0.00    -0.620 N 
ATOM     18  C   LIG    1       -1.290   2.075   0.019  0.00  0.00    +0.280 C 
ATOM     19  C   LIG    1        0.002  -0.004   0.002  0.00  0.00    +0.520 C 
ATOM     20  O   LIG    1        1.060  -0.596  -0.011  0.00  0.00    -0.510 OA
ATOM     21  C   LIG    1       -1.301   3.072  -1.137  0.00  0.00    +0.040 C 
BRANCH  14  22
ATOM     22  C   LIG    1       -0.086   4.971  -2.171  0.00  0.00    +0.460 C 
ATOM     23  O   LIG    1        0.813   4.997  -2.978  0.00  0.00    -0.500 OA
BRANCH  22  25
ATOM     24  C   LIG    1       -1.063   6.777  -3.381  0.00  0.00    +0.250 C 
ATOM     25  O   LIG    1       -1.106   5.838  -2.274  0.00  0.00    -0.360 OA
ENDBRANCH  22  25
ENDBRANCH  14  22
ENDBRANCH   1  19
TORSDOF 5
