REMARK  Name = ZINCuk00000002t2.1
REMARK                            x       y       z     vdW  Elec       q    Type
REMARK                         _______ _______ _______ _____ _____    ______ ____
ROOT
ATOM      1  N   LIG    1        7.758  -0.397  -4.442  0.00  0.00    -0.500 N 
ATOM      2  H   LIG    1        8.194  -1.259  -4.151  0.00  0.00    +0.430 HD
ATOM      3  H   LIG    1        8.015   0.342  -3.806  0.00  0.00    +0.430 HD
ENDROOT
BRANCH   1   4
ATOM      4  C   LIG    1        6.298  -0.560  -4.438  0.00  0.00    +0.180 C 
ATOM      5  C   LIG    1        5.813  -1.046  -3.043  0.00  0.00    +0.100 C 
ATOM      6  C   LIG    1        4.506  -0.255  -2.867  0.00  0.00    +0.130 C 
ATOM      7  C   LIG    1        4.101  -0.047  -1.415  0.00  0.00    +0.290 C 
ATOM      8  N   LIG    1        2.905   0.816  -1.406  0.00  0.00    -0.390 N 
ATOM      9  C   LIG    1        3.169   2.105  -2.048  0.00  0.00    +0.270 C 
ATOM     10  C   LIG    1        3.686   1.914  -3.483  0.00  0.00    +0.240 C 
ATOM     11  H   LIG    1        2.158   0.348  -1.899  0.00  0.00    +0.420 HD
ATOM     12  N   LIG    1        4.876   1.080  -3.412  0.00  0.00    -0.540 NA
ATOM     13  C   LIG    1        5.600   0.806  -4.651  0.00  0.00    +0.240 C 
BRANCH   8  14
ATOM     14  C   LIG    1        2.490   1.048  -0.016  0.00  0.00    +0.330 C 
BRANCH  14  15
ATOM     15  C   LIG    1        1.175   1.783   0.000  0.00  0.00    -0.170 A 
ATOM     16  C   LIG    1       -0.013   1.076   0.008  0.00  0.00    +0.040 A 
ATOM     17  C   LIG    1       -1.219   1.751   0.017  0.00  0.00    +0.030 A 
ATOM     18  C   LIG    1       -1.238   3.133   0.029  0.00  0.00    +0.060 A 
ATOM     19  C   LIG    1       -0.050   3.840   0.022  0.00  0.00    +0.030 A 
ATOM     20  C   LIG    1        1.156   3.165   0.008  0.00  0.00    +0.030 A 
ENDBRANCH  14  15
ENDBRANCH   8  14
ENDBRANCH   1   4
BRANCH   1  21
ATOM     21  C   LIG    1        8.208  -0.054  -5.798  0.00  0.00    +0.360 C 
BRANCH  21  29
ATOM     22  C   LIG    1       14.982  -2.653  -7.117  0.00  0.00    +0.340 C 
ATOM     23  N   LIG    1       14.119  -1.483  -6.906  0.00  0.00    -0.390 N 
ATOM     24  C   LIG    1       14.667  -0.655  -5.821  0.00  0.00    +0.300 C 
ATOM     25  C   LIG    1       13.927   0.682  -5.811  0.00  0.00    +0.150 C 
ATOM     26  C   LIG    1       12.437   0.445  -5.811  0.00  0.00    +0.230 A 
ATOM     27  C   LIG    1       11.912  -0.751  -6.150  0.00  0.00    -0.250 A 
ATOM     28  C   LIG    1       10.515  -0.925  -6.150  0.00  0.00    +0.220 A 
ATOM     29  C   LIG    1        9.706   0.113  -5.803  0.00  0.00    -0.290 A 
ATOM     30  C   LIG    1       10.286   1.345  -5.454  0.00  0.00    +0.530 A 
ATOM     31  O   LIG    1        9.577   2.289  -5.143  0.00  0.00    -0.520 OA
ATOM     32  N   LIG    1       11.623   1.480  -5.460  0.00  0.00    -0.590 N 
ATOM     33  H   LIG    1       12.016   2.332  -5.214  0.00  0.00    +0.440 HD
ATOM     34  C   LIG    1       12.774  -1.926  -6.530  0.00  0.00    +0.350 C 
ATOM     35  H   LIG    1       14.073  -0.940  -7.755  0.00  0.00    +0.430 HD
ENDBRANCH  21  29
ENDBRANCH   1  21
TORSDOF 5
