REMARK  Name = ZINCuk00000002t2.0
REMARK                            x       y       z     vdW  Elec       q    Type
REMARK                         _______ _______ _______ _____ _____    ______ ____
ROOT
ATOM      1  N   LIG    1        1.803   2.593   1.249  0.00  0.00    -0.500 N 
ATOM      2  H   LIG    1        2.794   2.780   1.273  0.00  0.00    +0.430 HD
ATOM      3  H   LIG    1        1.552   2.011   2.034  0.00  0.00    +0.430 HD
ENDROOT
BRANCH   1   4
ATOM      4  C   LIG    1        1.467   1.899  -0.002  0.00  0.00    +0.180 C 
ATOM      5  C   LIG    1        2.278   0.579  -0.122  0.00  0.00    +0.100 C 
ATOM      6  C   LIG    1        1.240  -0.378  -0.734  0.00  0.00    +0.130 C 
ATOM      7  C   LIG    1        1.507  -1.847  -0.440  0.00  0.00    +0.290 C 
ATOM      8  N   LIG    1        0.379  -2.623  -0.989  0.00  0.00    -0.380 N 
ATOM      9  C   LIG    1       -0.895  -2.209  -0.395  0.00  0.00    +0.280 C 
ATOM     10  C   LIG    1       -1.131  -0.702  -0.584  0.00  0.00    +0.240 C 
ATOM     11  H   LIG    1        0.529  -3.602  -0.799  0.00  0.00    +0.440 HD
ATOM     12  N   LIG    1        0.002  -0.004   0.002  0.00  0.00    -0.540 NA
ATOM     13  C   LIG    1       -0.018   1.457   0.010  0.00  0.00    +0.240 C 
BRANCH   8  14
ATOM     14  C   LIG    1        0.319  -2.420  -2.443  0.00  0.00    +0.310 C 
BRANCH  14  15
ATOM     15  C   LIG    1       -0.719  -3.337  -3.036  0.00  0.00    -0.170 A 
ATOM     16  C   LIG    1       -0.361  -4.601  -3.465  0.00  0.00    +0.040 A 
ATOM     17  C   LIG    1       -1.314  -5.444  -4.004  0.00  0.00    +0.030 A 
ATOM     18  C   LIG    1       -2.624  -5.019  -4.124  0.00  0.00    +0.060 A 
ATOM     19  C   LIG    1       -2.982  -3.753  -3.699  0.00  0.00    +0.030 A 
ATOM     20  C   LIG    1       -2.030  -2.912  -3.155  0.00  0.00    +0.020 A 
ENDBRANCH  14  15
ENDBRANCH   8  14
ENDBRANCH   1   4
BRANCH   1  21
ATOM     21  C   LIG    1        1.063   3.859   1.321  0.00  0.00    +0.360 C 
BRANCH  21  29
ATOM     22  C   LIG    1        4.852   8.980   5.034  0.00  0.00    +0.340 C 
ATOM     23  N   LIG    1        3.688   8.086   4.988  0.00  0.00    -0.390 N 
ATOM     24  C   LIG    1        3.655   7.255   6.202  0.00  0.00    +0.300 C 
ATOM     25  C   LIG    1        2.302   6.548   6.269  0.00  0.00    +0.150 C 
ATOM     26  C   LIG    1        2.015   5.862   4.956  0.00  0.00    +0.230 A 
ATOM     27  C   LIG    1        2.693   6.175   3.832  0.00  0.00    -0.250 A 
ATOM     28  C   LIG    1        2.385   5.519   2.626  0.00  0.00    +0.220 A 
ATOM     29  C   LIG    1        1.408   4.571   2.604  0.00  0.00    -0.290 A 
ATOM     30  C   LIG    1        0.721   4.268   3.792  0.00  0.00    +0.530 A 
ATOM     31  O   LIG    1       -0.159   3.423   3.792  0.00  0.00    -0.520 OA
ATOM     32  N   LIG    1        1.041   4.909   4.930  0.00  0.00    -0.590 N 
ATOM     33  H   LIG    1        0.566   4.691   5.748  0.00  0.00    +0.440 HD
ATOM     34  C   LIG    1        3.787   7.210   3.818  0.00  0.00    +0.350 C 
ATOM     35  H   LIG    1        2.842   8.635   4.931  0.00  0.00    +0.430 HD
ENDBRANCH  21  29
ENDBRANCH   1  21
TORSDOF 5
