REMARK  Name = ZINCqH0000004Sch.0
REMARK                            x       y       z     vdW  Elec       q    Type
REMARK                         _______ _______ _______ _____ _____    ______ ____
ROOT
ATOM      1  N   LIG    1       -0.216   1.220  -4.027  0.00  0.00    -0.530 N 
ATOM      2  C   LIG    1        0.531   0.707  -5.031  0.00  0.00    +0.550 A 
ATOM      3  C   LIG    1        1.704  -0.099  -4.664  0.00  0.00    -0.200 A 
ATOM      4  C   LIG    1        2.533  -0.670  -5.627  0.00  0.00    +0.100 A 
ATOM      5  C   LIG    1        3.621  -1.417  -5.230  0.00  0.00    +0.000 A 
ATOM      6  C   LIG    1        3.896  -1.604  -3.881  0.00  0.00    +0.070 A 
ATOM      7  C   LIG    1        3.090  -1.049  -2.914  0.00  0.00    +0.030 A 
ATOM      8  C   LIG    1        1.980  -0.287  -3.290  0.00  0.00    +0.160 A 
ATOM      9  N   LIG    1        1.165   0.280  -2.370  0.00  0.00    -0.530 NA
ATOM     10  O   LIG    1        0.241   0.904  -6.197  0.00  0.00    -0.500 OA
ATOM     11  C   LIG    1        0.122   0.990  -2.724  0.00  0.00    +0.370 A 
ENDROOT
BRANCH   1  13
ATOM     12  C   LIG    1       -0.989   3.502  -4.449  0.00  0.00    +0.040 C 
ATOM     13  C   LIG    1       -1.395   2.031  -4.339  0.00  0.00    +0.290 C 
ENDBRANCH   1  13
BRANCH  11  14
ATOM     14  S   LIG    1       -0.888   1.685  -1.458  0.00  0.00    +0.030 S 
BRANCH  14  15
ATOM     15  C   LIG    1       -0.013   1.086   0.008  0.00  0.00    +0.130 C 
BRANCH  15  16
ATOM     16  C   LIG    1       -0.729   1.579   1.267  0.00  0.00    -0.300 C 
BRANCH  16  17
ATOM     17  S   LIG    1        0.148   0.978   2.736  0.00  0.00    +2.510 S 
ATOM     18  O   LIG    1        1.417   1.608   2.852  0.00  0.00    -0.920 OA
ATOM     19  O   LIG    1        0.017  -0.432   2.854  0.00  0.00    -0.920 OA
BRANCH  17  20
ATOM     20  C   LIG    1       -0.778   1.616   4.093  0.00  0.00    -0.650 A 
ATOM     21  C   LIG    1       -0.459   2.851   4.627  0.00  0.00    +0.130 A 
ATOM     22  C   LIG    1       -1.189   3.354   5.688  0.00  0.00    +0.040 A 
ATOM     23  C   LIG    1       -2.231   2.617   6.221  0.00  0.00    -0.040 A 
ATOM     24  C   LIG    1       -2.546   1.379   5.690  0.00  0.00    +0.040 A 
ATOM     25 BR   LIG    1       -3.225   3.301   7.678  0.00  0.00    -0.030 Br
ATOM     26  C   LIG    1       -1.819   0.879   4.626  0.00  0.00    +0.130 A 
ENDBRANCH  17  20
ENDBRANCH  16  17
ENDBRANCH  15  16
ENDBRANCH  14  15
ENDBRANCH  11  14
TORSDOF 6
