REMARK  Name = ZINCpe000000Z8WT.0
REMARK                            x       y       z     vdW  Elec       q    Type
REMARK                         _______ _______ _______ _____ _____    ______ ____
ROOT
ATOM      1  O   LIG    1        2.101   3.657   1.317  0.00  0.00    -0.510 OA
ATOM      2  C   LIG    1        1.406   3.357   0.370  0.00  0.00    +0.520 C 
ATOM      3  N   LIG    1        0.666   4.299  -0.248  0.00  0.00    -0.730 N 
ATOM      4  H   LIG    1        0.110   4.059  -1.006  0.00  0.00    +0.400 HD
ENDROOT
BRANCH   2   5
ATOM      5  C   LIG    1        1.369   1.931  -0.117  0.00  0.00    +0.220 C 
ATOM      6  C   LIG    1        0.260   1.139   0.619  0.00  0.00    +0.050 C 
ATOM      7  C   LIG    1        0.777  -0.318   0.486  0.00  0.00    +0.040 C 
ATOM      8  C   LIG    1        2.308  -0.152   0.593  0.00  0.00    +0.240 C 
ATOM      9  N   LIG    1        2.623   1.238   0.232  0.00  0.00    -0.610 N 
ATOM     10  C   LIG    1        3.853   1.787   0.221  0.00  0.00    +0.570 C 
ATOM     11  O   LIG    1        4.009   2.918  -0.187  0.00  0.00    -0.520 OA
BRANCH  10  12
ATOM     12  C   LIG    1        5.036   0.995   0.716  0.00  0.00    -0.070 C 
ATOM     13  C   LIG    1        5.699   1.453   2.017  0.00  0.00    +0.050 C 
ATOM     14  C   LIG    1        6.407   1.674   0.678  0.00  0.00    +0.060 C 
ENDBRANCH  10  12
ENDBRANCH   2   5
BRANCH   3  15
ATOM     15  C   LIG    1        0.702   5.685   0.224  0.00  0.00    +0.260 C 
BRANCH  15  16
ATOM     16  C   LIG    1       -0.220   6.544  -0.644  0.00  0.00    +0.320 C 
BRANCH  16  17
ATOM     17  N   LIG    1       -0.185   7.930  -0.171  0.00  0.00    -0.540 N 
ATOM     18  C   LIG    1       -1.001   8.467   0.755  0.00  0.00    +0.680 A 
ATOM     19  N   LIG    1       -0.682   9.762   0.944  0.00  0.00    -0.640 N 
ATOM     20  H   LIG    1       -1.119  10.370   1.560  0.00  0.00    +0.440 HD
ATOM     21  C   LIG    1        0.380  10.080   0.100  0.00  0.00    +0.090 A 
ATOM     22  C   LIG    1        1.099  11.243  -0.127  0.00  0.00    +0.030 A 
ATOM     23  C   LIG    1        2.124  11.247  -1.053  0.00  0.00    +0.030 A 
ATOM     24  C   LIG    1        2.437  10.096  -1.754  0.00  0.00    +0.030 A 
ATOM     25  C   LIG    1        1.726   8.932  -1.534  0.00  0.00    +0.030 A 
ATOM     26  O   LIG    1       -1.890   7.873   1.335  0.00  0.00    -0.550 OA
ATOM     27  C   LIG    1        0.695   8.918  -0.607  0.00  0.00    +0.090 A 
ENDBRANCH  16  17
ENDBRANCH  15  16
ENDBRANCH   3  15
TORSDOF 5
