REMARK  Name = ZINCrg000000oAfc.0
REMARK                            x       y       z     vdW  Elec       q    Type
REMARK                         _______ _______ _______ _____ _____    ______ ____
ROOT
ATOM      1  N   LIG    1        1.100  -1.725   6.171  0.00  0.00    -0.750 N 
ATOM      2  H   LIG    1        0.381  -2.085   5.628  0.00  0.00    +0.400 HD
ENDROOT
BRANCH   1   6
ATOM      3  C   LIG    1        2.422  -3.809   9.525  0.00  0.00    -0.030 A 
ATOM      4  C   LIG    1        3.008  -2.603   9.186  0.00  0.00    +0.040 A 
ATOM      5  C   LIG    1        2.575  -1.912   8.072  0.00  0.00    -0.010 A 
ATOM      6  C   LIG    1        1.543  -2.424   7.297  0.00  0.00    +0.190 A 
ATOM      7  C   LIG    1        0.956  -3.635   7.640  0.00  0.00    +0.050 A 
ATOM      8  C   LIG    1        1.397  -4.324   8.752  0.00  0.00    -0.630 A 
BRANCH   8   9
ATOM      9  S   LIG    1        0.653  -5.860   9.188  0.00  0.00    +2.700 S 
ATOM     10  O   LIG    1       -0.327  -6.128   8.195  0.00  0.00    -0.960 OA
ATOM     11  O   LIG    1        0.352  -5.781  10.575  0.00  0.00    -0.960 OA
BRANCH   9  12
ATOM     12  N   LIG    1        1.813  -7.030   9.027  0.00  0.00    -1.240 NA
ATOM     13  H   LIG    1        2.519  -6.926   8.369  0.00  0.00    +0.420 HD
ATOM     14  H   LIG    1        1.788  -7.819   9.590  0.00  0.00    +0.420 HD
ENDBRANCH   9  12
ENDBRANCH   8   9
BRANCH   3  16
ATOM     15  C   LIG    1        3.939  -5.604  10.314  0.00  0.00    +0.020 C 
ATOM     16  C   LIG    1        2.901  -4.563  10.738  0.00  0.00    +0.060 C 
ENDBRANCH   3  16
ENDBRANCH   1   6
BRANCH   1  17
ATOM     17  C   LIG    1        1.720  -0.447   5.811  0.00  0.00    +0.320 C 
BRANCH  17  18
ATOM     18  C   LIG    1        1.065   0.096   4.568  0.00  0.00    -0.250 A 
ATOM     19  C   LIG    1       -0.040   0.928   4.655  0.00  0.00    +0.370 A 
ATOM     20  N   LIG    1       -0.592   1.388   3.545  0.00  0.00    -0.530 NA
ATOM     21  C   LIG    1       -0.099   1.061   2.358  0.00  0.00    +0.500 A 
ATOM     22  N   LIG    1        0.952   0.264   2.240  0.00  0.00    -0.550 NA
ATOM     23  C   LIG    1        1.554  -0.225   3.311  0.00  0.00    +0.370 A 
BRANCH  21  24
ATOM     24  N   LIG    1       -0.701   1.560   1.216  0.00  0.00    -0.460 N 
ATOM     25  C   LIG    1       -0.013   1.086   0.008  0.00  0.00    +0.220 C 
ATOM     26  C   LIG    1       -0.754   1.593  -1.231  0.00  0.00    +0.190 C 
ATOM     27  N   LIG    1       -0.806   3.062  -1.200  0.00  0.00    -0.550 NA
ATOM     28  C   LIG    1       -1.495   3.536   0.008  0.00  0.00    +0.190 C 
ATOM     29  C   LIG    1       -1.445   3.591  -2.413  0.00  0.00    +0.190 C 
ATOM     30  C   LIG    1       -0.754   3.029   1.247  0.00  0.00    +0.230 C 
ENDBRANCH  21  24
ENDBRANCH  17  18
ENDBRANCH   1  17
TORSDOF 7
