REMARK  Name = ZINCrH00000tj14x.0
REMARK                            x       y       z     vdW  Elec       q    Type
REMARK                         _______ _______ _______ _____ _____    ______ ____
ROOT
ATOM      1  C   LIG    1        1.242   2.094   0.001  0.00  0.00    -0.190 A 
ATOM      2  C   LIG    1        1.899   2.472   1.140  0.00  0.00    +0.050 A 
ATOM      3  S   LIG    1        3.322   3.324   0.759  0.00  0.00    +0.310 S 
ATOM      4  C   LIG    1        3.046   3.180  -0.969  0.00  0.00    -0.250 A 
ATOM      5  C   LIG    1        3.961   3.737  -2.043  0.00  0.00    +0.120 C 
ATOM      6  C   LIG    1        3.621   3.066  -3.377  0.00  0.00    -0.010 C 
ATOM      7  C   LIG    1        4.351   3.785  -4.513  0.00  0.00    +0.030 C 
ATOM      8  C   LIG    1        2.109   3.147  -3.605  0.00  0.00    +0.030 C 
ATOM      9  C   LIG    1        1.400   2.218  -2.616  0.00  0.00    +0.090 C 
ATOM     10  C   LIG    1        1.919   2.504  -1.216  0.00  0.00    -0.040 A 
ENDROOT
BRANCH   2  11
ATOM     11  N   LIG    1        1.465   2.198   2.428  0.00  0.00    -0.640 N 
ATOM     12  H   LIG    1        0.641   1.706   2.568  0.00  0.00    +0.420 HD
ATOM     13  C   LIG    1        2.188   2.617   3.486  0.00  0.00    +0.510 C 
ATOM     14  O   LIG    1        3.218   3.233   3.311  0.00  0.00    -0.470 OA
BRANCH  13  15
ATOM     15  C   LIG    1        1.717   2.319   4.886  0.00  0.00    +0.200 C 
ATOM     16  C   LIG    1        0.341   2.951   5.105  0.00  0.00    +0.030 C 
BRANCH  15  17
ATOM     17  N   LIG    1        2.671   2.877   5.853  0.00  0.00    -0.660 NA
ATOM     18  H   LIG    1        2.512   3.864   5.990  0.00  0.00    +0.360 HD
BRANCH  17  19
ATOM     19  C   LIG    1        2.612   2.152   7.129  0.00  0.00    +0.300 C 
BRANCH  19  20
ATOM     20  C   LIG    1        3.603   2.751   8.093  0.00  0.00    -0.010 A 
ATOM     21  C   LIG    1        3.357   3.758   8.950  0.00  0.00    -0.050 A 
ATOM     22  C   LIG    1        4.556   3.995   9.659  0.00  0.00    -0.070 A 
ATOM     23  C   LIG    1        5.467   3.125   9.188  0.00  0.00    +0.170 A 
ATOM     24  O   LIG    1        4.884   2.373   8.239  0.00  0.00    -0.170 OA
ENDBRANCH  19  20
ENDBRANCH  17  19
ENDBRANCH  15  17
ENDBRANCH  13  15
ENDBRANCH   2  11
BRANCH   1  25
ATOM     25  C   LIG    1       -0.016   1.345   0.009  0.00  0.00    +0.540 C 
ATOM     26  O   LIG    1       -1.078   1.938   0.018  0.00  0.00    -0.490 OA
BRANCH  25  27
ATOM     27  O   LIG    1        0.002  -0.004   0.002  0.00  0.00    -0.350 OA
BRANCH  27  29
ATOM     28  C   LIG    1       -1.062  -2.195   0.000  0.00  0.00    +0.070 C 
ATOM     29  C   LIG    1       -1.282  -0.681   0.011  0.00  0.00    +0.200 C 
ENDBRANCH  27  29
ENDBRANCH  25  27
ENDBRANCH   1  25
TORSDOF 8
