REMARK  Name = ZINCrH00000tj14X.1
REMARK                            x       y       z     vdW  Elec       q    Type
REMARK                         _______ _______ _______ _____ _____    ______ ____
ROOT
ATOM      1  N   LIG    1        4.631   1.202   1.838  0.00  0.00    -0.720 N 
ATOM      2  H   LIG    1        5.131   0.910   1.060  0.00  0.00    +0.400 HD
ATOM      3  C   LIG    1        5.198   1.154   3.060  0.00  0.00    +0.700 C 
ATOM      4  N   LIG    1        6.460   0.702   3.200  0.00  0.00    -0.690 N 
ATOM      5  H   LIG    1        6.932   0.338   2.436  0.00  0.00    +0.410 HD
ATOM      6  O   LIG    1        4.571   1.520   4.035  0.00  0.00    -0.570 OA
ENDROOT
BRANCH   4   7
ATOM      7  C   LIG    1        7.088   0.758   4.449  0.00  0.00    +0.180 A 
ATOM      8  C   LIG    1        8.451   1.013   4.532  0.00  0.00    -0.010 A 
ATOM      9  C   LIG    1        9.070   1.073   5.765  0.00  0.00    +0.050 A 
ATOM     10  C   LIG    1        8.338   0.869   6.919  0.00  0.00    +0.000 A 
ATOM     11  C   LIG    1        6.977   0.609   6.843  0.00  0.00    +0.110 A 
ATOM     12  C   LIG    1        6.351   0.553   5.608  0.00  0.00    +0.030 A 
BRANCH  11  13
ATOM     13  O   LIG    1        6.258   0.408   7.979  0.00  0.00    -0.240 OA
BRANCH  13  14
ATOM     14  C   LIG    1        5.896  -0.862   8.287  0.00  0.00    +0.270 A 
ATOM     15  C   LIG    1        5.069  -1.105   9.379  0.00  0.00    +0.230 A 
ATOM     16  N   LIG    1        4.717  -2.342   9.676  0.00  0.00    -0.400 NA
ATOM     17  C   LIG    1        5.151  -3.350   8.937  0.00  0.00    +0.190 A 
ATOM     18  C   LIG    1        5.973  -3.111   7.851  0.00  0.00    +0.260 A 
ATOM     19  N   LIG    1        6.324  -1.874   7.546  0.00  0.00    -0.480 NA
ENDBRANCH  13  14
ENDBRANCH  11  13
ENDBRANCH   4   7
BRANCH   1  20
ATOM     20  C   LIG    1        3.260   1.693   1.685  0.00  0.00    +0.310 C 
BRANCH  20  21
ATOM     21  C   LIG    1        2.820   1.535   0.228  0.00  0.00    +0.220 C 
BRANCH  21  22
ATOM     22  C   LIG    1        3.651   2.437  -0.648  0.00  0.00    -0.180 A 
ATOM     23  C   LIG    1        3.264   3.624  -1.117  0.00  0.00    +0.010 A 
ATOM     24  C   LIG    1        4.197   4.271  -1.908  0.00  0.00    +0.010 A 
ATOM     25  C   LIG    1        5.346   3.615  -2.073  0.00  0.00    -0.050 A 
ATOM     26  S   LIG    1        5.281   2.085  -1.208  0.00  0.00    +0.120 S 
ENDBRANCH  21  22
BRANCH  21  28
ATOM     27  C   LIG    1        2.165  -0.765   0.605  0.00  0.00    +0.190 C 
ATOM     28  N   LIG    1        3.006   0.139  -0.190  0.00  0.00    -0.540 NA
ATOM     29  C   LIG    1        2.738  -0.020  -1.626  0.00  0.00    +0.200 C 
ENDBRANCH  21  28
ENDBRANCH  20  21
ENDBRANCH   1  20
TORSDOF 7
