REMARK  Name = ZINCrD00000hQ4mY.0
REMARK                            x       y       z     vdW  Elec       q    Type
REMARK                         _______ _______ _______ _____ _____    ______ ____
ROOT
ATOM      1  N   LIG    1        0.056  -3.285   1.470  0.00  0.00    -0.540 N 
ATOM      2  C   LIG    1        0.068  -4.575   0.792  0.00  0.00    +0.270 C 
ATOM      3  C   LIG    1        0.562  -5.672   1.739  0.00  0.00    +0.050 C 
ATOM      4  C   LIG    1       -0.243  -5.589   3.042  0.00  0.00    +0.040 C 
ATOM      5  C   LIG    1        0.128  -4.288   3.758  0.00  0.00    +0.270 C 
ATOM      6  C   LIG    1        0.058  -3.137   2.795  0.00  0.00    +0.500 C 
ATOM      7  O   LIG    1        0.001  -2.013   3.248  0.00  0.00    -0.500 OA
ENDROOT
BRANCH   1  12
ATOM      8  C   LIG    1       -1.551   0.610  -1.204  0.00  0.00    +0.160 C 
ATOM      9  C   LIG    1       -0.653  -0.385  -0.516  0.00  0.00    +0.080 A 
ATOM     10  N   LIG    1        0.656  -0.368  -0.523  0.00  0.00    -0.280 NA
ATOM     11  N   LIG    1        1.115  -1.456   0.231  0.00  0.00    -0.370 N 
ATOM     12  C   LIG    1        0.036  -2.133   0.684  0.00  0.00    +0.300 A 
ATOM     13  C   LIG    1        2.517  -1.802   0.479  0.00  0.00    +0.350 C 
ATOM     14  C   LIG    1       -1.074  -1.487   0.233  0.00  0.00    -0.090 A 
ENDBRANCH   1  12
BRANCH   5  15
ATOM     15  N   LIG    1       -0.808  -4.056   4.862  0.00  0.00    -0.700 N 
ATOM     16  H   LIG    1       -1.699  -4.437   4.830  0.00  0.00    +0.410 HD
BRANCH  15  17
ATOM     17  C   LIG    1       -0.419  -3.293   5.951  0.00  0.00    +0.450 A 
ATOM     18  C   LIG    1        0.864  -2.744   6.011  0.00  0.00    -0.140 A 
ATOM     19  C   LIG    1        1.201  -1.987   7.115  0.00  0.00    +0.210 A 
ATOM     20  N   LIG    1        0.308  -1.816   8.079  0.00  0.00    -0.550 NA
ATOM     21  C   LIG    1       -0.893  -2.352   7.995  0.00  0.00    +0.370 A 
ATOM     22  N   LIG    1       -1.260  -3.076   6.958  0.00  0.00    -0.570 NA
BRANCH  21  23
ATOM     23  C   LIG    1       -1.874  -2.129   9.117  0.00  0.00    +0.070 C 
ATOM     24  C   LIG    1       -2.279  -3.477   9.716  0.00  0.00    +0.050 C 
ATOM     25  C   LIG    1       -3.116  -1.419   8.575  0.00  0.00    +0.050 C 
ENDBRANCH  21  23
BRANCH  19  26
ATOM     26  C   LIG    1        2.571  -1.368   7.225  0.00  0.00    +0.040 C 
ATOM     27  C   LIG    1        3.050  -0.939   5.837  0.00  0.00    +0.040 C 
ATOM     28  C   LIG    1        3.548  -2.390   7.808  0.00  0.00    +0.040 C 
ENDBRANCH  19  26
ENDBRANCH  15  17
ENDBRANCH   5  15
TORSDOF 5
