REMARK  Name = ZINCvU0000000Aol.0
REMARK                            x       y       z     vdW  Elec       q    Type
REMARK                         _______ _______ _______ _____ _____    ______ ____
ROOT
ATOM      1  C   LIG    1        2.226   5.167  -2.433  0.00  0.00    -0.260 C 
ENDROOT
BRANCH   1   2
ATOM      2  C   LIG    1        2.688   6.599  -2.343  0.00  0.00    -0.210 A 
ATOM      3  C   LIG    1        1.891   7.668  -2.381  0.00  0.00    +0.020 A 
ATOM      4  C   LIG    1        2.542   8.885  -2.280  0.00  0.00    +0.000 A 
ATOM      5  C   LIG    1        3.868   8.805  -2.160  0.00  0.00    -0.040 A 
ATOM      6  S   LIG    1        4.359   7.116  -2.164  0.00  0.00    +0.180 S 
ENDBRANCH   1   2
BRANCH   1   7
ATOM      7  N   LIG    1        3.076   4.326  -1.586  0.00  0.00    -1.090 NA
ATOM      8  H   LIG    1        3.877   3.921  -1.954  0.00  0.00    +0.430 HD
BRANCH   7   9
ATOM      9  S   LIG    1        2.670   4.067  -0.002  0.00  0.00    +2.690 S 
ATOM     10  O   LIG    1        3.659   3.196   0.529  0.00  0.00    -0.950 OA
ATOM     11  O   LIG    1        2.380   5.343   0.552  0.00  0.00    -0.940 OA
BRANCH   9  16
ATOM     12  C   LIG    1       -2.514   0.980   0.019  0.00  0.00    +0.090 C 
ATOM     13  C   LIG    1       -1.219   1.751   0.017  0.00  0.00    -0.020 A 
ATOM     14  C   LIG    1       -0.013   1.076   0.008  0.00  0.00    +0.000 A 
ATOM     15  C   LIG    1        1.175   1.783   0.000  0.00  0.00    +0.130 A 
ATOM     16  C   LIG    1        1.156   3.165   0.008  0.00  0.00    -0.690 A 
ATOM     17  C   LIG    1       -0.050   3.840   0.023  0.00  0.00    +0.110 A 
ATOM     18  C   LIG    1       -1.238   3.133   0.030  0.00  0.00    -0.010 A 
ENDBRANCH   9  16
ENDBRANCH   7   9
ENDBRANCH   1   7
BRANCH   1  19
ATOM     19  P   LIG    1        2.338   4.600  -4.161  0.00  0.00    +2.610 P 
ATOM     20  O   LIG    1        3.742   4.696  -4.622  0.00  0.00    -0.980 OA
BRANCH  19  21
ATOM     21  C   LIG    1        1.286   5.641  -5.209  0.00  0.00    -0.730 A 
ATOM     22  C   LIG    1        0.141   6.214  -4.687  0.00  0.00    +0.050 A 
ATOM     23  C   LIG    1       -0.658   7.012  -5.484  0.00  0.00    +0.000 A 
ATOM     24  C   LIG    1       -0.319   7.228  -6.806  0.00  0.00    +0.050 A 
ATOM     25  C   LIG    1        0.823   6.651  -7.330  0.00  0.00    +0.000 A 
ATOM     26  C   LIG    1        1.625   5.857  -6.532  0.00  0.00    +0.110 A 
ENDBRANCH  19  21
BRANCH  19  27
ATOM     27  C   LIG    1        1.783   2.876  -4.269  0.00  0.00    -0.740 A 
ATOM     28  C   LIG    1        0.835   2.399  -3.384  0.00  0.00    +0.050 A 
ATOM     29  C   LIG    1        0.408   1.087  -3.469  0.00  0.00    -0.010 A 
ATOM     30  C   LIG    1        0.937   0.249  -4.434  0.00  0.00    +0.050 A 
ATOM     31  C   LIG    1        1.889   0.725  -5.316  0.00  0.00    +0.000 A 
ATOM     32  C   LIG    1        2.312   2.039  -5.234  0.00  0.00    +0.110 A 
ENDBRANCH  19  27
ENDBRANCH   1  19
TORSDOF 7
