REMARK  Name = ZINCpe000000XpSj.0
REMARK                            x       y       z     vdW  Elec       q    Type
REMARK                         _______ _______ _______ _____ _____    ______ ____
ROOT
ATOM      1  C   LIG    1       -6.074  -4.741  -4.872  0.00  0.00    +0.060 C 
ATOM      2  C   LIG    1       -7.112  -4.152  -3.915  0.00  0.00    +0.130 C 
ATOM      3  C   LIG    1       -6.553  -2.870  -3.277  0.00  0.00    +0.250 C 
ATOM      4  N   LIG    1       -7.633  -2.231  -2.510  0.00  0.00    -0.640 N 
ATOM      5  C   LIG    1       -8.922  -2.009  -3.183  0.00  0.00    +0.270 C 
ATOM      6  C   LIG    1       -9.365  -3.328  -3.828  0.00  0.00    +0.140 C 
ATOM      7  C   LIG    1      -10.600  -3.083  -4.696  0.00  0.00    +0.080 C 
ATOM      8  C   LIG    1       -7.446  -1.855  -1.229  0.00  0.00    +0.720 C 
ATOM      9  N   LIG    1       -6.196  -1.677  -0.755  0.00  0.00    -0.630 N 
ATOM     10  C   LIG    1       -5.961  -1.488   0.683  0.00  0.00    +0.300 C 
ATOM     11  C   LIG    1       -5.150  -0.205   0.885  0.00  0.00    +0.020 C 
ATOM     12  C   LIG    1       -3.874  -0.274   0.044  0.00  0.00    +0.240 C 
ATOM     13  C   LIG    1       -4.243  -0.383  -1.437  0.00  0.00    +0.010 C 
ATOM     14  C   LIG    1       -5.044  -1.669  -1.667  0.00  0.00    +0.260 C 
ATOM     15  O   LIG    1       -8.403  -1.675  -0.502  0.00  0.00    -0.580 OA
ATOM     16  O   LIG    1       -8.303  -3.834  -4.640  0.00  0.00    -0.370 OA
ENDROOT
BRANCH  12  17
ATOM     17  N   LIG    1       -3.080   0.938   0.261  0.00  0.00    -0.720 N 
ATOM     18  H   LIG    1       -3.513   1.757   0.548  0.00  0.00    +0.400 HD
ATOM     19  C   LIG    1       -1.747   0.914   0.062  0.00  0.00    +0.600 C 
ATOM     20  O   LIG    1       -1.204  -0.113  -0.298  0.00  0.00    -0.550 OA
BRANCH  19  21
ATOM     21  C   LIG    1       -0.948   2.134   0.280  0.00  0.00    -0.300 A 
ATOM     22  C   LIG    1        0.417   2.259   0.118  0.00  0.00    +0.320 A 
ATOM     23  N   LIG    1        0.744   3.526   0.418  0.00  0.00    -0.360 N 
ATOM     24  N   LIG    1       -0.423   4.212   0.774  0.00  0.00    -0.290 NA
ATOM     25  C   LIG    1        2.093   4.095   0.380  0.00  0.00    +0.360 C 
ATOM     26  C   LIG    1       -1.435   3.393   0.696  0.00  0.00    +0.270 A 
ENDBRANCH  19  21
ENDBRANCH  12  17
TORSDOF 2
