REMARK  Name = ZINCah0000002Btr.0
REMARK                            x       y       z     vdW  Elec       q    Type
REMARK                         _______ _______ _______ _____ _____    ______ ____
ROOT
ATOM      1  C   LIG    1       -0.017   1.390   0.010  0.00  0.00    +0.170 A 
ATOM      2  C   LIG    1        1.176   2.097   0.002  0.00  0.00    -0.030 A 
ATOM      3  C   LIG    1        2.382   1.419  -0.013  0.00  0.00    +0.060 A 
ATOM      4  C   LIG    1        2.401   0.033  -0.021  0.00  0.00    +0.060 A 
ATOM      5  C   LIG    1        1.213  -0.678  -0.013  0.00  0.00    -0.030 A 
ATOM      6  F   LIG    1        3.581  -0.625  -0.036  0.00  0.00    -0.130 F 
ATOM      7  F   LIG    1        3.544   2.109  -0.021  0.00  0.00    -0.130 F 
ATOM      8  C   LIG    1        0.002  -0.004   0.002  0.00  0.00    +0.170 A 
ENDROOT
BRANCH   1   9
ATOM      9  N   LIG    1       -1.239   2.076   0.019  0.00  0.00    -0.880 N 
ATOM     10  H   LIG    1       -1.251   3.046   0.025  0.00  0.00    +0.400 HD
ATOM     11  H   LIG    1       -2.073   1.580   0.020  0.00  0.00    +0.400 HD
ENDBRANCH   1   9
BRANCH   8  12
ATOM     12  N   LIG    1       -1.201  -0.723   0.010  0.00  0.00    -0.880 N 
ATOM     13  H   LIG    1       -1.187  -1.692   0.005  0.00  0.00    +0.400 HD
ATOM     14  H   LIG    1       -2.048  -0.250   0.021  0.00  0.00    +0.400 HD
ENDBRANCH   8  12
TORSDOF 2
