REMARK  Name = ZINCpe000000UFRH.0
REMARK                            x       y       z     vdW  Elec       q    Type
REMARK                         _______ _______ _______ _____ _____    ______ ____
ROOT
ATOM      1  C   LIG    1        0.070   0.115   0.929  0.00  0.00    +0.290 C 
ATOM      2  N   LIG    1        0.011   1.500   0.457  0.00  0.00    -0.610 N 
ATOM      3  C   LIG    1        1.127   2.106   0.006  0.00  0.00    +0.530 C 
ATOM      4  O   LIG    1        1.099   3.280  -0.299  0.00  0.00    -0.500 OA
ENDROOT
BRANCH   3   5
ATOM      5  C   LIG    1        2.410   1.326  -0.119  0.00  0.00    -0.010 C 
ATOM      6  C   LIG    1        2.590   0.782  -1.555  0.00  0.00    +0.080 C 
ATOM      7  C   LIG    1        4.076   0.900  -1.814  0.00  0.00    +0.520 C 
ATOM      8  N   LIG    1        4.637   1.725  -0.914  0.00  0.00    -0.610 N 
ATOM      9  O   LIG    1        4.673   0.333  -2.704  0.00  0.00    -0.520 OA
ATOM     10  C   LIG    1        3.638   2.253   0.022  0.00  0.00    +0.300 C 
BRANCH   8  11
ATOM     11  C   LIG    1        6.064   2.055  -0.872  0.00  0.00    +0.430 C 
BRANCH  11  12
ATOM     12  C   LIG    1        6.783   1.066   0.009  0.00  0.00    -0.050 A 
ATOM     13  C   LIG    1        7.327  -0.096  -0.393  0.00  0.00    -0.030 A 
ATOM     14  C   LIG    1        7.896  -0.700   0.752  0.00  0.00    -0.070 A 
ATOM     15  C   LIG    1        7.658   0.125   1.787  0.00  0.00    +0.170 A 
ATOM     16  O   LIG    1        6.983   1.193   1.331  0.00  0.00    -0.170 OA
ENDBRANCH  11  12
ENDBRANCH   8  11
ENDBRANCH   3   5
BRANCH   2  17
ATOM     17  C   LIG    1       -1.262   2.225   0.468  0.00  0.00    +0.430 C 
BRANCH  17  18
ATOM     18  C   LIG    1       -1.425   2.934   1.788  0.00  0.00    +0.170 A 
ATOM     19  N   LIG    1       -1.030   4.145   2.069  0.00  0.00    -0.260 NA
ATOM     20  N   LIG    1       -1.330   4.426   3.288  0.00  0.00    -0.280 NA
ATOM     21  C   LIG    1       -1.929   3.404   3.839  0.00  0.00    +0.160 A 
ATOM     22  C   LIG    1       -2.555   2.930   5.133  0.00  0.00    +0.160 C 
ATOM     23  C   LIG    1       -2.643   1.395   4.973  0.00  0.00    +0.070 C 
ATOM     24  C   LIG    1       -2.678   1.238   3.437  0.00  0.00    +0.290 C 
ATOM     25  N   LIG    1       -2.014   2.434   2.902  0.00  0.00    -0.490 N 
ENDBRANCH  17  18
ENDBRANCH   2  17
TORSDOF 5
