REMARK  Name = ZINCpk00000y6ykd.0
REMARK                            x       y       z     vdW  Elec       q    Type
REMARK                         _______ _______ _______ _____ _____    ______ ____
ROOT
ATOM      1  C   LIG    1        1.806  -1.811  -0.025  0.00  0.00    +0.280 C 
ATOM      2  C   LIG    1        2.206  -2.243  -1.461  0.00  0.00    +0.030 C 
ATOM      3  C   LIG    1        3.242  -3.358  -1.173  0.00  0.00    +0.290 C 
ATOM      4  N   LIG    1        3.979  -2.890   0.015  0.00  0.00    -0.610 N 
ATOM      5  C   LIG    1        5.228  -3.261   0.362  0.00  0.00    +0.620 C 
ATOM      6  O   LIG    1        5.740  -2.808   1.368  0.00  0.00    -0.540 OA
ATOM      7  C   LIG    1        3.128  -1.950   0.759  0.00  0.00    +0.270 C 
ENDROOT
BRANCH   5   8
ATOM      8  C   LIG    1        5.972  -4.215  -0.478  0.00  0.00    -0.060 A 
ATOM      9  C   LIG    1        7.239  -4.673  -0.251  0.00  0.00    +0.230 A 
ATOM     10  N   LIG    1        7.530  -5.527  -1.253  0.00  0.00    -0.450 N 
ATOM     11  C   LIG    1        8.772  -6.280  -1.451  0.00  0.00    +0.290 C 
ATOM     12  C   LIG    1        8.508  -7.414  -2.448  0.00  0.00    +0.030 C 
ATOM     13  C   LIG    1        7.822  -6.849  -3.695  0.00  0.00    +0.030 C 
ATOM     14  C   LIG    1        6.393  -6.422  -3.338  0.00  0.00    +0.150 C 
ATOM     15  C   LIG    1        6.453  -5.577  -2.086  0.00  0.00    +0.210 A 
ATOM     16  N   LIG    1        5.525  -4.796  -1.622  0.00  0.00    -0.460 NA
ENDBRANCH   5   8
BRANCH   1  19
ATOM     17  C   LIG    1       -0.016   1.308   0.009  0.00  0.00    +0.300 A 
ATOM     18  N   LIG    1        0.002  -0.004   0.002  0.00  0.00    -0.320 NA
ATOM     19  N   LIG    1        1.339  -0.423  -0.013  0.00  0.00    -0.360 N 
ATOM     20  C   LIG    1        2.121   0.677  -0.015  0.00  0.00    +0.240 A 
ATOM     21  C   LIG    1        1.313   1.761  -0.001  0.00  0.00    -0.090 A 
BRANCH  17  24
ATOM     22  C   LIG    1       -2.271   4.327   0.036  0.00  0.00    +0.110 C 
ATOM     23  C   LIG    1       -1.039   3.458   0.025  0.00  0.00    +0.520 C 
ATOM     24  N   LIG    1       -1.161   2.116   0.019  0.00  0.00    -0.640 N 
ATOM     25  H   LIG    1       -2.042   1.709   0.022  0.00  0.00    +0.420 HD
ATOM     26  O   LIG    1        0.062   3.967   0.022  0.00  0.00    -0.520 OA
ENDBRANCH  17  24
ENDBRANCH   1  19
TORSDOF 3
