REMARK  Name = ZINCpe000000VG9B.0
REMARK                            x       y       z     vdW  Elec       q    Type
REMARK                         _______ _______ _______ _____ _____    ______ ____
ROOT
ATOM      1  C   LIG    1        4.867  -0.543   0.143  0.00  0.00    +0.510 C 
ATOM      2  N   LIG    1        5.925  -1.373   0.225  0.00  0.00    -0.690 N 
ATOM      3  H   LIG    1        5.789  -2.334   0.222  0.00  0.00    +0.410 HD
ATOM      4  O   LIG    1        5.037   0.659   0.147  0.00  0.00    -0.500 OA
ENDROOT
BRANCH   2   5
ATOM      5  C   LIG    1        7.280  -0.825   0.319  0.00  0.00    +0.240 C 
ATOM      6  C   LIG    1        7.808  -0.527  -1.087  0.00  0.00    +0.020 C 
ATOM      7  C   LIG    1        9.212   0.078  -0.983  0.00  0.00    +0.300 C 
ATOM      8  N   LIG    1       10.061  -0.830  -0.199  0.00  0.00    -0.600 N 
ATOM      9  C   LIG    1        9.604  -1.253   1.131  0.00  0.00    +0.320 C 
ATOM     10  C   LIG    1       11.238  -1.265  -0.692  0.00  0.00    +0.650 C 
ATOM     11  O   LIG    1       11.931  -2.015  -0.034  0.00  0.00    -0.570 OA
ATOM     12  C   LIG    1        8.195  -1.843   1.004  0.00  0.00    +0.030 C 
BRANCH  10  13
ATOM     13  O   LIG    1       11.645  -0.869  -1.913  0.00  0.00    -0.370 OA
ATOM     14  C   LIG    1       12.922  -1.378  -2.379  0.00  0.00    +0.280 C 
ENDBRANCH  10  13
ENDBRANCH   2   5
BRANCH   1  17
ATOM     15  N   LIG    1        2.427  -0.271  -0.035  0.00  0.00    -0.620 N 
ATOM     16  H   LIG    1        2.566   0.686  -0.110  0.00  0.00    +0.440 HD
ATOM     17  C   LIG    1        3.485  -1.101   0.048  0.00  0.00    +0.510 C 
ATOM     18  O   LIG    1        3.315  -2.303   0.044  0.00  0.00    -0.490 OA
BRANCH  15  20
ATOM     19  C   LIG    1        0.003  -0.003   0.041  0.00  0.00    -0.340 A 
ATOM     20  C   LIG    1        1.133  -0.787  -0.010  0.00  0.00    +0.240 A 
ATOM     21  C   LIG    1        0.850  -2.139  -0.032  0.00  0.00    +0.010 A 
ATOM     22  C   LIG    1       -0.449  -2.447  -0.009  0.00  0.00    -0.020 A 
ATOM     23  S   LIG    1       -1.415  -1.042   0.048  0.00  0.00    +0.280 S 
BRANCH  19  24
ATOM     24  C   LIG    1       -0.015   1.411   0.075  0.00  0.00    +0.550 C 
ATOM     25  O   LIG    1        1.031   2.034   0.066  0.00  0.00    -0.510 OA
BRANCH  24  27
ATOM     26  C   LIG    1       -1.135   3.498   0.147  0.00  0.00    +0.270 C 
ATOM     27  O   LIG    1       -1.192   2.071   0.113  0.00  0.00    -0.350 OA
ENDBRANCH  24  27
ENDBRANCH  19  24
ENDBRANCH  15  20
ENDBRANCH   1  17
TORSDOF 6
