REMARK  Name = ZINCrH000004rRay.0
REMARK                            x       y       z     vdW  Elec       q    Type
REMARK                         _______ _______ _______ _____ _____    ______ ____
ROOT
ATOM      1  N   LIG    1        1.095  -0.331   0.987  0.00  0.00    -0.490 N 
ATOM      2  C   LIG    1        0.273   0.197  -0.112  0.00  0.00    +0.200 C 
ATOM      3  C   LIG    1        0.357   1.725  -0.119  0.00  0.00    +0.180 C 
ATOM      4  N   LIG    1        1.760   2.136  -0.271  0.00  0.00    -0.520 NA
ATOM      5  C   LIG    1        2.582   1.608   0.827  0.00  0.00    +0.190 C 
ATOM      6  C   LIG    1        2.498   0.080   0.835  0.00  0.00    +0.200 C 
ENDROOT
BRANCH   1  12
ATOM      7  C   LIG    1       -1.648  -4.315   1.856  0.00  0.00    +0.090 C 
ATOM      8  C   LIG    1       -0.331  -3.680   1.489  0.00  0.00    -0.070 A 
ATOM      9  C   LIG    1        0.771  -4.474   1.234  0.00  0.00    -0.020 A 
ATOM     10  C   LIG    1        1.981  -3.896   0.897  0.00  0.00    +0.020 A 
ATOM     11  C   LIG    1        2.091  -2.522   0.809  0.00  0.00    -0.040 A 
ATOM     12  C   LIG    1        0.987  -1.721   1.070  0.00  0.00    +0.110 A 
ATOM     13  C   LIG    1       -0.227  -2.305   1.408  0.00  0.00    -0.100 A 
ATOM     14  C   LIG    1       -1.429  -1.440   1.686  0.00  0.00    +0.100 C 
ENDBRANCH   1  12
BRANCH   4  15
ATOM     15  C   LIG    1        1.874   3.598  -0.358  0.00  0.00    +0.140 C 
ATOM     16  C   LIG    1        3.349   3.988  -0.466  0.00  0.00    +0.070 C 
BRANCH  15  17
ATOM     17  C   LIG    1        1.134   4.087  -1.577  0.00  0.00    +0.520 C 
ATOM     18  N   LIG    1        0.669   5.351  -1.620  0.00  0.00    -0.680 N 
ATOM     19  H   LIG    1        0.748   5.924  -0.841  0.00  0.00    +0.410 HD
ATOM     20  O   LIG    1        0.957   3.343  -2.518  0.00  0.00    -0.480 OA
BRANCH  18  21
ATOM     21  C   LIG    1        0.074   5.840  -2.791  0.00  0.00    +0.070 A 
ATOM     22  C   LIG    1        0.430   7.088  -3.286  0.00  0.00    +0.110 A 
ATOM     23  C   LIG    1       -0.156   7.564  -4.445  0.00  0.00    +0.000 A 
ATOM     24  C   LIG    1       -1.104   6.803  -5.105  0.00  0.00    +0.080 A 
ATOM     25  C   LIG    1       -1.465   5.563  -4.613  0.00  0.00    +0.000 A 
ATOM     26  F   LIG    1        1.352   7.835  -2.639  0.00  0.00    -0.130 F 
ATOM     27  C   LIG    1       -0.879   5.078  -3.457  0.00  0.00    +0.140 A 
ATOM     28  F   LIG    1       -1.233   3.866  -2.977  0.00  0.00    -0.110 F 
ENDBRANCH  18  21
ENDBRANCH  15  17
ENDBRANCH   4  15
TORSDOF 4
