REMARK  Name = ZINCkj000005hmWr.1
REMARK                            x       y       z     vdW  Elec       q    Type
REMARK                         _______ _______ _______ _____ _____    ______ ____
ROOT
ATOM      1  C   LIG    1        6.901   3.748  -2.290  0.00  0.00    +0.500 C 
ATOM      2  N   LIG    1        6.046   2.970  -1.597  0.00  0.00    -0.590 N 
ATOM      3  C   LIG    1        5.701   1.621  -2.069  0.00  0.00    +0.300 C 
ATOM      4  C   LIG    1        4.175   1.490  -2.094  0.00  0.00    +0.170 C 
ATOM      5  N   LIG    1        3.634   1.843  -0.775  0.00  0.00    -0.530 NA
ATOM      6  C   LIG    1        3.917   3.245  -0.441  0.00  0.00    +0.170 C 
ATOM      7  C   LIG    1        5.434   3.448  -0.348  0.00  0.00    +0.290 C 
ATOM      8  O   LIG    1        7.466   3.307  -3.268  0.00  0.00    -0.510 OA
ENDROOT
BRANCH   1  14
ATOM      9  C   LIG    1        9.330   4.144  -1.965  0.00  0.00    +0.320 C 
ATOM     10  N   LIG    1        8.603   5.388  -1.681  0.00  0.00    -0.380 N 
ATOM     11  C   LIG    1        9.032   6.441  -2.626  0.00  0.00    +0.270 C 
ATOM     12  C   LIG    1        7.749   7.260  -2.914  0.00  0.00    +0.080 C 
ATOM     13  C   LIG    1        6.666   6.149  -2.934  0.00  0.00    +0.100 C 
ATOM     14  C   LIG    1        7.155   5.167  -1.849  0.00  0.00    +0.150 C 
ATOM     15  H   LIG    1        8.794   5.683  -0.735  0.00  0.00    +0.430 HD
ENDBRANCH   1  14
BRANCH   5  16
ATOM     16  C   LIG    1        2.193   1.566  -0.705  0.00  0.00    +0.170 C 
ATOM     17  C   LIG    1        1.955   0.104  -0.948  0.00  0.00    -0.050 C 
ATOM     18  C   LIG    1        1.126  -0.619  -0.267  0.00  0.00    -0.020 C 
ATOM     19  C   LIG    1        0.294  -0.100   0.869  0.00  0.00    +0.060 C 
ATOM     20  C   LIG    1        0.239   1.429   0.826  0.00  0.00    +0.020 C 
ATOM     21  C   LIG    1        1.670   1.962   0.677  0.00  0.00    +0.030 C 
ENDBRANCH   5  16
TORSDOF 2
