REMARK  Name = ZINCkj000005hmWr.0
REMARK                            x       y       z     vdW  Elec       q    Type
REMARK                         _______ _______ _______ _____ _____    ______ ____
ROOT
ATOM      1  C   LIG    1        5.854   5.395   1.867  0.00  0.00    +0.510 C 
ATOM      2  N   LIG    1        4.703   4.707   2.005  0.00  0.00    -0.590 N 
ATOM      3  C   LIG    1        4.656   3.258   1.760  0.00  0.00    +0.300 C 
ATOM      4  C   LIG    1        3.507   2.965   0.789  0.00  0.00    +0.170 C 
ATOM      5  N   LIG    1        2.265   3.547   1.315  0.00  0.00    -0.530 NA
ATOM      6  C   LIG    1        2.360   5.011   1.406  0.00  0.00    +0.170 C 
ATOM      7  C   LIG    1        3.461   5.387   2.402  0.00  0.00    +0.290 C 
ATOM      8  O   LIG    1        6.887   4.806   1.627  0.00  0.00    -0.530 OA
ENDROOT
BRANCH   1  14
ATOM      9  C   LIG    1        7.623   7.278   3.633  0.00  0.00    +0.330 C 
ATOM     10  N   LIG    1        7.242   7.392   2.219  0.00  0.00    -0.380 N 
ATOM     11  C   LIG    1        7.182   8.819   1.807  0.00  0.00    +0.280 C 
ATOM     12  C   LIG    1        6.265   8.830   0.566  0.00  0.00    +0.080 C 
ATOM     13  C   LIG    1        5.394   7.564   0.700  0.00  0.00    +0.090 C 
ATOM     14  C   LIG    1        5.858   6.895   2.012  0.00  0.00    +0.160 C 
ATOM     15  H   LIG    1        7.891   6.885   1.635  0.00  0.00    +0.440 HD
ENDBRANCH   1  14
BRANCH   5  16
ATOM     16  C   LIG    1        1.110   3.144   0.502  0.00  0.00    +0.170 C 
ATOM     17  C   LIG    1        0.987   1.648   0.520  0.00  0.00    -0.050 C 
ATOM     18  C   LIG    1       -0.134   1.014   0.650  0.00  0.00    -0.020 C 
ATOM     19  C   LIG    1       -1.467   1.685   0.805  0.00  0.00    +0.060 C 
ATOM     20  C   LIG    1       -1.373   3.151   0.380  0.00  0.00    +0.010 C 
ATOM     21  C   LIG    1       -0.159   3.784   1.071  0.00  0.00    +0.030 C 
ENDBRANCH   5  16
TORSDOF 2
