REMARK  Name = ZINCvU0000000BMW.1
REMARK                            x       y       z     vdW  Elec       q    Type
REMARK                         _______ _______ _______ _____ _____    ______ ____
ROOT
ATOM      1  C   LIG    1        5.349   4.254   0.611  0.00  0.00    +0.530 C 
ATOM      2  N   LIG    1        4.003   4.204   0.625  0.00  0.00    -0.660 N 
ATOM      3  H   LIG    1        3.491   4.984   0.891  0.00  0.00    +0.420 HD
ATOM      4  O   LIG    1        5.987   3.312   0.189  0.00  0.00    -0.500 OA
ENDROOT
BRANCH   2   5
ATOM      5  C   LIG    1        3.341   3.024   0.258  0.00  0.00    +0.160 A 
ATOM      6  C   LIG    1        2.114   3.089  -0.387  0.00  0.00    +0.010 A 
ATOM      7  C   LIG    1        1.459   1.927  -0.750  0.00  0.00    +0.060 A 
ATOM      8  C   LIG    1        2.027   0.696  -0.472  0.00  0.00    +0.020 A 
ATOM      9  O   LIG    1        1.599  -0.583  -0.718  0.00  0.00    -0.290 OA
ATOM     10  C   LIG    1        2.801  -1.364  -0.661  0.00  0.00    +0.250 C 
ATOM     11  O   LIG    1        3.594  -0.693   0.329  0.00  0.00    -0.290 OA
ATOM     12  C   LIG    1        2.506  -2.810  -0.248  0.00  0.00    +0.070 C 
ATOM     13  C   LIG    1        2.506  -3.589  -1.590  0.00  0.00    +0.040 C 
ATOM     14  C   LIG    1        3.636  -2.896  -2.392  0.00  0.00    +0.030 C 
ATOM     15  C   LIG    1        3.510  -1.403  -2.014  0.00  0.00    +0.020 C 
ATOM     16  C   LIG    1        3.261   0.628   0.176  0.00  0.00    +0.050 A 
ATOM     17  C   LIG    1        3.914   1.791   0.539  0.00  0.00    +0.050 A 
ENDBRANCH   2   5
BRANCH   1  18
ATOM     18  C   LIG    1        6.064   5.480   1.118  0.00  0.00    +0.120 C 
BRANCH  18  19
ATOM     19  S   LIG    1        7.851   5.242   0.967  0.00  0.00    +0.060 S 
BRANCH  19  24
ATOM     20  C   LIG    1       10.933   9.259   2.609  0.00  0.00    +0.160 C 
ATOM     21  C   LIG    1        9.722   8.423   2.283  0.00  0.00    -0.000 A 
ATOM     22  C   LIG    1        8.437   8.771   2.467  0.00  0.00    +0.020 A 
ATOM     23  N   LIG    1        7.660   7.758   2.047  0.00  0.00    -0.480 NA
ATOM     24  C   LIG    1        8.420   6.780   1.613  0.00  0.00    +0.180 A 
ATOM     25  N   LIG    1        9.721   7.158   1.740  0.00  0.00    -0.550 N 
ATOM     26  H   LIG    1       10.501   6.636   1.494  0.00  0.00    +0.420 HD
BRANCH  22  27
ATOM     27  C   LIG    1        7.950  10.077   3.041  0.00  0.00    +0.180 C 
BRANCH  27  28
ATOM     28  C   LIG    1        7.752  11.072   1.927  0.00  0.00    -0.070 A 
ATOM     29  C   LIG    1        8.792  11.899   1.546  0.00  0.00    +0.000 A 
ATOM     30  C   LIG    1        8.612  12.809   0.521  0.00  0.00    +0.000 A 
ATOM     31  C   LIG    1        7.389  12.899  -0.116  0.00  0.00    +0.000 A 
ATOM     32  C   LIG    1        6.347  12.076   0.268  0.00  0.00    +0.000 A 
ATOM     33  C   LIG    1        6.529  11.162   1.290  0.00  0.00    +0.010 A 
ENDBRANCH  27  28
ENDBRANCH  22  27
ENDBRANCH  19  24
ENDBRANCH  18  19
ENDBRANCH   1  18
TORSDOF 6
