REMARK  Name = ZINCpe000000T43M.1
REMARK                            x       y       z     vdW  Elec       q    Type
REMARK                         _______ _______ _______ _____ _____    ______ ____
ROOT
ATOM      1  C   LIG    1       -1.353   5.330   3.007  0.00  0.00    +0.440 C 
ATOM      2  O   LIG    1       -1.838   5.758   4.035  0.00  0.00    -0.490 OA
ENDROOT
BRANCH   1   3
ATOM      3  C   LIG    1       -1.066   3.954   2.883  0.00  0.00    -0.440 A 
ATOM      4  C   LIG    1       -1.429   3.043   3.890  0.00  0.00    +0.550 A 
ATOM      5  N   LIG    1       -1.130   1.721   3.724  0.00  0.00    -0.540 N 
ATOM      6  C   LIG    1       -0.500   1.281   2.624  0.00  0.00    +0.710 A 
ATOM      7  N   LIG    1       -0.129   2.103   1.629  0.00  0.00    -0.560 N 
ATOM      8  C   LIG    1        0.555   1.555   0.455  0.00  0.00    +0.340 C 
ATOM      9  O   LIG    1       -0.256   0.094   2.524  0.00  0.00    -0.530 OA
ATOM     10  C   LIG    1       -1.504   0.764   4.768  0.00  0.00    +0.350 C 
ATOM     11  C   LIG    1       -0.374   3.428   1.699  0.00  0.00    +0.580 A 
ATOM     12  O   LIG    1       -0.033   4.171   0.798  0.00  0.00    -0.500 OA
BRANCH   4  13
ATOM     13  N   LIG    1       -2.067   3.472   5.012  0.00  0.00    -0.800 N 
ATOM     14  H   LIG    1       -2.578   4.297   4.995  0.00  0.00    +0.440 HD
ATOM     15  H   LIG    1       -2.013   2.953   5.830  0.00  0.00    +0.410 HD
ENDBRANCH   4  13
ENDBRANCH   1   3
BRANCH   1  16
ATOM     16  C   LIG    1       -1.059   6.267   1.864  0.00  0.00    +0.200 C 
BRANCH  16  17
ATOM     17  N   LIG    1       -1.445   7.634   2.240  0.00  0.00    -0.670 NA
ATOM     18  H   LIG    1       -2.398   7.662   2.572  0.00  0.00    +0.350 HD
BRANCH  17  19
ATOM     19  C   LIG    1       -1.251   8.563   1.119  0.00  0.00    +0.180 C 
BRANCH  19  20
ATOM     20  C   LIG    1        0.172   9.060   1.120  0.00  0.00    -0.070 A 
ATOM     21  C   LIG    1        0.794   9.374   2.314  0.00  0.00    +0.040 A 
ATOM     22  C   LIG    1        2.100   9.826   2.315  0.00  0.00    -0.010 A 
ATOM     23  C   LIG    1        2.781   9.973   1.121  0.00  0.00    +0.000 A 
ATOM     24  C   LIG    1        2.158   9.665  -0.073  0.00  0.00    +0.000 A 
ATOM     25  C   LIG    1        0.853   9.209  -0.074  0.00  0.00    +0.000 A 
ENDBRANCH  19  20
BRANCH  19  27
ATOM     26  C   LIG    1       -1.961  10.747   0.134  0.00  0.00    +0.020 C 
ATOM     27  C   LIG    1       -2.206   9.749   1.268  0.00  0.00    -0.010 C 
ATOM     28  C   LIG    1       -3.651   9.251   1.205  0.00  0.00    +0.020 C 
ENDBRANCH  19  27
ENDBRANCH  17  19
ENDBRANCH  16  17
ENDBRANCH   1  16
TORSDOF 7
