REMARK  Name = ZINCpk00001AZiAZ.1
REMARK                            x       y       z     vdW  Elec       q    Type
REMARK                         _______ _______ _______ _____ _____    ______ ____
ROOT
ATOM      1  N   LIG    1       -0.799   3.434  -1.182  0.00  0.00    -0.980 NA
ENDROOT
BRANCH   1   2
ATOM      2  S   LIG    1        0.314   4.171  -2.162  0.00  0.00    +2.720 S 
ATOM      3  O   LIG    1        1.416   3.278  -2.260  0.00  0.00    -0.920 OA
ATOM      4  O   LIG    1        0.436   5.508  -1.697  0.00  0.00    -0.920 OA
BRANCH   2   5
ATOM      5  C   LIG    1       -0.393   4.267  -3.773  0.00  0.00    -0.350 A 
ATOM      6  N   LIG    1       -1.113   5.255  -4.230  0.00  0.00    -0.380 NA
ATOM      7  C   LIG    1       -1.481   4.988  -5.492  0.00  0.00    +0.150 A 
ATOM      8  C   LIG    1       -0.969   3.789  -5.830  0.00  0.00    +0.190 A 
ATOM      9  N   LIG    1       -0.274   3.334  -4.742  0.00  0.00    -0.510 N 
ATOM     10  H   LIG    1        0.211   2.497  -4.678  0.00  0.00    +0.430 HD
ENDBRANCH   2   5
ENDBRANCH   1   2
BRANCH   1  11
ATOM     11  C   LIG    1       -1.806   4.237  -0.484  0.00  0.00    +0.370 C 
BRANCH  11  16
ATOM     12  C   LIG    1       -6.652   4.407  -3.630  0.00  0.00    +0.100 C 
ATOM     13  C   LIG    1       -5.389   4.362  -2.809  0.00  0.00    -0.050 A 
ATOM     14  C   LIG    1       -4.491   5.411  -2.865  0.00  0.00    +0.000 A 
ATOM     15  C   LIG    1       -3.335   5.373  -2.108  0.00  0.00    +0.080 A 
ATOM     16  C   LIG    1       -3.070   4.281  -1.304  0.00  0.00    -0.160 A 
ATOM     17  C   LIG    1       -3.968   3.229  -1.248  0.00  0.00    +0.120 A 
ATOM     18  F   LIG    1       -3.713   2.163  -0.459  0.00  0.00    -0.140 F 
ATOM     19  C   LIG    1       -5.129   3.270  -2.002  0.00  0.00    -0.030 A 
ENDBRANCH  11  16
ENDBRANCH   1  11
BRANCH   1  20
ATOM     20  C   LIG    1       -0.776   1.979  -1.012  0.00  0.00    +0.320 C 
BRANCH  20  21
ATOM     21  C   LIG    1        0.023   1.625   0.243  0.00  0.00    +0.110 C 
ATOM     22  C   LIG    1        0.048   0.104   0.422  0.00  0.00    +0.200 C 
ATOM     23  O   LIG    1        0.888  -0.225   1.532  0.00  0.00    -0.380 OA
ATOM     24  C   LIG    1        2.230   0.253   1.396  0.00  0.00    +0.190 C 
ATOM     25  C   LIG    1        2.205   1.774   1.217  0.00  0.00    +0.190 C 
ATOM     26  O   LIG    1        1.365   2.103   0.107  0.00  0.00    -0.360 OA
ENDBRANCH  20  21
ENDBRANCH   1  20
TORSDOF 6
