REMARK  Name = ZINCrH000004srAZ.0
REMARK                            x       y       z     vdW  Elec       q    Type
REMARK                         _______ _______ _______ _____ _____    ______ ____
ROOT
ATOM      1  C   LIG    1       -2.655  -0.827  -3.312  0.00  0.00    +0.260 A 
ATOM      2  N   LIG    1       -2.531  -0.223  -2.139  0.00  0.00    -0.450 NA
ATOM      3  C   LIG    1       -1.740  -1.022  -1.407  0.00  0.00    +0.190 A 
ATOM      4  N   LIG    1       -1.432  -2.052  -2.139  0.00  0.00    -0.370 NA
ATOM      5  O   LIG    1       -1.943  -1.964  -3.235  0.00  0.00    +0.100 OA
ENDROOT
BRANCH   1   8
ATOM      6  C   LIG    1       -2.926  -2.284  -6.070  0.00  0.00    +0.170 C 
ATOM      7  C   LIG    1       -3.552  -0.972  -5.674  0.00  0.00    +0.080 A 
ATOM      8  C   LIG    1       -3.425  -0.349  -4.469  0.00  0.00    -0.010 A 
ATOM      9  O   LIG    1       -4.140   0.797  -4.545  0.00  0.00    -0.170 OA
ATOM     10  C   LIG    1       -4.686   0.855  -5.765  0.00  0.00    +0.240 A 
ATOM     11  N   LIG    1       -4.338  -0.206  -6.441  0.00  0.00    -0.480 NA
BRANCH  10  12
ATOM     12  C   LIG    1       -5.564   1.968  -6.277  0.00  0.00    +0.230 C 
BRANCH  12  13
ATOM     13  C   LIG    1       -7.027   1.650  -5.961  0.00  0.00    -0.050 C 
ATOM     14  C   LIG    1       -7.976   1.446  -7.143  0.00  0.00    +0.030 C 
ATOM     15  C   LIG    1       -8.070   2.717  -6.297  0.00  0.00    +0.030 C 
ENDBRANCH  12  13
ENDBRANCH  10  12
ENDBRANCH   1   8
BRANCH   3  16
ATOM     16  C   LIG    1       -1.294  -0.773   0.011  0.00  0.00    +0.230 C 
BRANCH  16  17
ATOM     17  C   LIG    1        0.002  -0.004   0.002  0.00  0.00    -0.090 A 
ATOM     18  C   LIG    1        1.206  -0.683  -0.014  0.00  0.00    +0.040 A 
ATOM     19  C   LIG    1        2.400   0.016  -0.022  0.00  0.00    +0.020 A 
ATOM     20  C   LIG    1        2.385   1.400  -0.013  0.00  0.00    +0.070 A 
ATOM     21  O   LIG    1        3.555   2.102  -0.020  0.00  0.00    -0.320 OA
ATOM     22  C   LIG    1        3.835   2.838  -1.213  0.00  0.00    +0.230 C 
ATOM     23  C   LIG    1        3.150   4.196  -1.182  0.00  0.00    -0.010 C 
ATOM     24  C   LIG    1        1.634   4.080  -1.185  0.00  0.00    +0.230 C 
ATOM     25  O   LIG    1        1.172   3.447   0.010  0.00  0.00    -0.320 OA
ATOM     26  C   LIG    1        1.176   2.082   0.002  0.00  0.00    +0.070 A 
ATOM     27  C   LIG    1       -0.017   1.380   0.010  0.00  0.00    +0.040 A 
ENDBRANCH  16  17
ENDBRANCH   3  16
TORSDOF 5
