REMARK  Name = ZINCvU0000000EJ4.0
REMARK                            x       y       z     vdW  Elec       q    Type
REMARK                         _______ _______ _______ _____ _____    ______ ____
ROOT
ATOM      1  N   LIG    1       -3.886   9.888  -0.448  0.00  0.00    -0.610 N 
ATOM      2  H   LIG    1       -4.688   9.344  -0.441  0.00  0.00    +0.430 HD
ATOM      3  C   LIG    1       -2.674   9.304  -0.360  0.00  0.00    +0.570 C 
ATOM      4  O   LIG    1       -1.669   9.986  -0.369  0.00  0.00    -0.480 OA
ENDROOT
BRANCH   3   5
ATOM      5  C   LIG    1       -2.569   7.831  -0.252  0.00  0.00    -0.050 A 
ATOM      6  C   LIG    1       -3.715   7.027  -0.239  0.00  0.00    -0.030 A 
ATOM      7  C   LIG    1       -3.574   5.658  -0.137  0.00  0.00    +0.320 A 
ATOM      8  N   LIG    1       -2.381   5.102  -0.056  0.00  0.00    -0.500 NA
ATOM      9  C   LIG    1       -1.271   5.822  -0.059  0.00  0.00    +0.320 A 
ATOM     10  C   LIG    1       -1.323   7.206  -0.160  0.00  0.00    +0.040 A 
BRANCH   9  11
ATOM     11  O   LIG    1       -0.069   5.201   0.031  0.00  0.00    -0.240 OA
BRANCH  11  12
ATOM     12  C   LIG    1       -0.049   3.842   0.005  0.00  0.00    +0.090 A 
ATOM     13  C   LIG    1       -0.352   3.164  -1.167  0.00  0.00    +0.000 A 
ATOM     14  C   LIG    1       -0.331   1.783  -1.190  0.00  0.00    +0.020 A 
ATOM     15  C   LIG    1       -0.007   1.077  -0.046  0.00  0.00    +0.010 A 
ATOM     16  C   LIG    1        0.291   1.750   1.124  0.00  0.00    +0.020 A 
ATOM     17  C   LIG    1        0.276   3.131   1.151  0.00  0.00    +0.020 A 
ENDBRANCH  11  12
ENDBRANCH   9  11
ENDBRANCH   3   5
BRANCH   1  21
ATOM     18  C   LIG    1       -4.996  13.256  -0.728  0.00  0.00    +0.130 A 
ATOM     19  C   LIG    1       -3.742  13.744  -0.713  0.00  0.00    -0.110 A 
ATOM     20  S   LIG    1       -2.625  12.389  -0.568  0.00  0.00    +0.210 S 
ATOM     21  C   LIG    1       -3.985  11.269  -0.549  0.00  0.00    +0.270 A 
ATOM     22  N   LIG    1       -5.093  11.937  -0.639  0.00  0.00    -0.500 NA
BRANCH  18  26
ATOM     23  C   LIG    1       -8.410  15.779  -1.037  0.00  0.00    +0.110 A 
ATOM     24  C   LIG    1       -7.139  16.331  -1.026  0.00  0.00    -0.030 A 
ATOM     25  C   LIG    1       -6.030  15.515  -0.920  0.00  0.00    +0.030 A 
ATOM     26  C   LIG    1       -6.187  14.133  -0.836  0.00  0.00    -0.020 A 
ATOM     27  C   LIG    1       -7.465  13.577  -0.847  0.00  0.00    +0.010 A 
ATOM     28  C   LIG    1       -8.573  14.398  -0.947  0.00  0.00    +0.100 A 
BRANCH  23  30
ATOM     29  C   LIG    1       -9.261  17.992  -1.224  0.00  0.00    +0.240 C 
ATOM     30  O   LIG    1       -9.500  16.586  -1.136  0.00  0.00    -0.310 OA
ENDBRANCH  23  30
BRANCH  28  31
ATOM     31  O   LIG    1       -9.821  13.858  -0.959  0.00  0.00    -0.310 OA
ATOM     32  C   LIG    1       -9.914  12.436  -0.864  0.00  0.00    +0.250 C 
ENDBRANCH  28  31
ENDBRANCH  18  26
ENDBRANCH   1  21
TORSDOF 7
