REMARK  Name = ZINCpk00000y6yuO.1
REMARK                            x       y       z     vdW  Elec       q    Type
REMARK                         _______ _______ _______ _____ _____    ______ ____
ROOT
ATOM      1  C   LIG    1       -3.512  -1.273   0.055  0.00  0.00    +0.120 C 
ATOM      2  C   LIG    1       -2.503  -0.106   0.025  0.00  0.00    +0.280 C 
ATOM      3  N   LIG    1       -1.156  -0.694   0.009  0.00  0.00    -0.600 N 
ATOM      4  C   LIG    1       -1.281  -2.163  -0.003  0.00  0.00    +0.290 C 
ATOM      5  C   LIG    1        0.002  -0.004   0.002  0.00  0.00    +0.620 C 
ATOM      6  O   LIG    1        1.062  -0.597  -0.011  0.00  0.00    -0.490 OA
ATOM      7  C   LIG    1       -2.671  -2.445   0.625  0.00  0.00    +0.040 C 
ENDROOT
BRANCH   5   8
ATOM      8  C   LIG    1       -0.018   1.478   0.010  0.00  0.00    +0.030 A 
ATOM      9  C   LIG    1        1.068   2.301   0.004  0.00  0.00    -0.030 A 
ATOM     10  C   LIG    1        0.509   3.610   0.017  0.00  0.00    +0.480 A 
ATOM     11  N   LIG    1       -0.828   3.435   0.028  0.00  0.00    -0.450 N 
ATOM     12  C   LIG    1       -1.809   4.524   0.043  0.00  0.00    +0.390 C 
ATOM     13  O   LIG    1        1.113   4.670   0.016  0.00  0.00    -0.520 OA
ATOM     14  O   LIG    1       -1.109   2.259   0.019  0.00  0.00    -0.000 OA
ENDBRANCH   5   8
BRANCH   1  17
ATOM     15  C   LIG    1       -6.694  -0.609   1.637  0.00  0.00    +0.300 A 
ATOM     16  N   LIG    1       -5.951  -0.912   0.604  0.00  0.00    -0.530 NA
ATOM     17  C   LIG    1       -4.670  -0.955   0.966  0.00  0.00    +0.240 A 
ATOM     18  N   LIG    1       -4.578  -0.669   2.238  0.00  0.00    -0.310 NA
ATOM     19  N   LIG    1       -5.886  -0.440   2.697  0.00  0.00    -0.480 N 
ATOM     20  H   LIG    1       -6.152  -0.207   3.600  0.00  0.00    +0.440 HD
BRANCH  15  22
ATOM     21  C   LIG    1       -8.754  -0.959   2.974  0.00  0.00    +0.040 C 
ATOM     22  C   LIG    1       -8.195  -0.468   1.637  0.00  0.00    +0.090 C 
ATOM     23  C   LIG    1       -8.568   1.003   1.437  0.00  0.00    +0.050 C 
ENDBRANCH  15  22
ENDBRANCH   1  17
BRANCH   7  24
ATOM     24  C   LIG    1       -3.219  -3.794   0.155  0.00  0.00    -0.040 C 
ATOM     25  C   LIG    1       -3.873  -4.696   1.204  0.00  0.00    +0.020 C 
ATOM     26  C   LIG    1       -2.498  -5.056   0.634  0.00  0.00    +0.030 C 
ENDBRANCH   7  24
TORSDOF 4
