REMARK  Name = ZINCpk00000y6yuO.0
REMARK                            x       y       z     vdW  Elec       q    Type
REMARK                         _______ _______ _______ _____ _____    ______ ____
ROOT
ATOM      1  C   LIG    1       -0.050  -1.678  -5.152  0.00  0.00    +0.130 C 
ATOM      2  C   LIG    1       -0.012  -1.494  -3.621  0.00  0.00    +0.260 C 
ATOM      3  N   LIG    1        0.013  -2.836  -3.021  0.00  0.00    -0.610 N 
ATOM      4  C   LIG    1        0.023  -3.837  -4.102  0.00  0.00    +0.290 C 
ATOM      5  C   LIG    1        0.029  -3.106  -1.700  0.00  0.00    +0.620 C 
ATOM      6  O   LIG    1        0.049  -4.258  -1.316  0.00  0.00    -0.480 OA
ATOM      7  C   LIG    1       -0.616  -3.113  -5.316  0.00  0.00    +0.030 C 
ENDROOT
BRANCH   5   8
ATOM      8  C   LIG    1        0.022  -1.997  -0.717  0.00  0.00    +0.020 A 
ATOM      9  C   LIG    1        0.037  -2.119   0.640  0.00  0.00    -0.020 A 
ATOM     10  C   LIG    1        0.023  -0.775   1.108  0.00  0.00    +0.480 A 
ATOM     11  N   LIG    1        0.002  -0.004   0.002  0.00  0.00    -0.450 N 
ATOM     12  C   LIG    1       -0.018   1.461   0.010  0.00  0.00    +0.390 C 
ATOM     13  O   LIG    1        0.029  -0.399   2.268  0.00  0.00    -0.510 OA
ATOM     14  O   LIG    1       -0.003  -0.685  -0.997  0.00  0.00    -0.010 OA
ENDBRANCH   5   8
BRANCH   1  18
ATOM     15  C   LIG    1       -2.602   0.705  -6.163  0.00  0.00    +0.190 A 
ATOM     16  N   LIG    1       -1.786   0.703  -7.183  0.00  0.00    -0.290 NA
ATOM     17  N   LIG    1       -0.814  -0.107  -6.957  0.00  0.00    -0.270 NA
ATOM     18  C   LIG    1       -0.969  -0.666  -5.788  0.00  0.00    +0.180 A 
ATOM     19  N   LIG    1       -2.106  -0.164  -5.249  0.00  0.00    -0.580 N 
ATOM     20  H   LIG    1       -2.487  -0.382  -4.384  0.00  0.00    +0.420 HD
BRANCH  15  22
ATOM     21  C   LIG    1       -5.062   0.684  -6.470  0.00  0.00    +0.040 C 
ATOM     22  C   LIG    1       -3.861   1.522  -6.028  0.00  0.00    +0.100 C 
ATOM     23  C   LIG    1       -4.042   1.942  -4.568  0.00  0.00    +0.040 C 
ENDBRANCH  15  22
ENDBRANCH   1  18
BRANCH   7  24
ATOM     24  C   LIG    1       -0.151  -3.739  -6.633  0.00  0.00    -0.030 C 
ATOM     25  C   LIG    1       -1.206  -3.970  -7.717  0.00  0.00    +0.020 C 
ATOM     26  C   LIG    1       -0.627  -5.159  -6.946  0.00  0.00    +0.010 C 
ENDBRANCH   7  24
TORSDOF 4
