REMARK  Name = ZINCkj000005mkiz.0
REMARK                            x       y       z     vdW  Elec       q    Type
REMARK                         _______ _______ _______ _____ _____    ______ ____
ROOT
ATOM      1  C   LIG    1        0.475   2.611   4.654  0.00  0.00    +0.170 C 
ENDROOT
BRANCH   1   2
ATOM      2  N   LIG    1       -0.254   2.979   5.876  0.00  0.00    -0.530 NA
ATOM      3  C   LIG    1        0.609   3.728   6.798  0.00  0.00    +0.180 C 
ATOM      4  C   LIG    1       -0.218   4.218   7.988  0.00  0.00    +0.050 C 
ATOM      5  C   LIG    1       -0.838   3.014   8.704  0.00  0.00    +0.120 C 
ATOM      6  C   LIG    1       -1.693   2.224   7.709  0.00  0.00    +0.050 C 
ATOM      7  C   LIG    1       -0.823   1.792   6.527  0.00  0.00    +0.180 C 
BRANCH   5   8
ATOM      8  C   LIG    1       -1.702   3.493   9.842  0.00  0.00    +0.190 A 
ATOM      9  N   LIG    1       -1.537   3.192  11.098  0.00  0.00    -0.480 NA
ATOM     10  C   LIG    1       -2.496   3.801  11.817  0.00  0.00    +0.150 A 
ATOM     11  C   LIG    1       -3.266   4.496  10.963  0.00  0.00    +0.150 A 
ATOM     12  O   LIG    1       -2.762   4.304   9.729  0.00  0.00    -0.200 OA
ENDBRANCH   5   8
ENDBRANCH   1   2
BRANCH   1  13
ATOM     13  C   LIG    1       -0.525   2.298   3.539  0.00  0.00    +0.210 C 
BRANCH  13  14
ATOM     14  O   LIG    1       -1.324   3.453   3.276  0.00  0.00    -0.540 OA
ATOM     15  H   LIG    1       -0.816   4.227   2.995  0.00  0.00    +0.380 HD
ENDBRANCH  13  14
BRANCH  13  16
ATOM     16  C   LIG    1        0.233   1.903   2.270  0.00  0.00    +0.230 C 
BRANCH  16  17
ATOM     17  N   LIG    1       -0.726   1.602   1.200  0.00  0.00    -0.390 N 
ATOM     18  C   LIG    1       -0.015   1.103   0.003  0.00  0.00    +0.250 C 
ATOM     19  C   LIG    1       -0.765   1.640  -1.230  0.00  0.00    +0.050 C 
ATOM     20  C   LIG    1       -1.921   2.493  -0.659  0.00  0.00    +0.070 C 
ATOM     21  C   LIG    1       -1.423   2.843   0.765  0.00  0.00    +0.280 C 
ATOM     22  H   LIG    1       -1.398   0.918   1.515  0.00  0.00    +0.430 HD
ENDBRANCH  16  17
ENDBRANCH  13  16
ENDBRANCH   1  13
TORSDOF 6
