REMARK  Name = ZINCqH00000032Ns.0
REMARK                            x       y       z     vdW  Elec       q    Type
REMARK                         _______ _______ _______ _____ _____    ______ ____
ROOT
ATOM      1  C   LIG    1       -4.173  -1.007  -1.636  0.00  0.00    -0.750 A 
ATOM      2  C   LIG    1       -3.229  -2.022  -1.709  0.00  0.00    +0.200 A 
ATOM      3  C   LIG    1       -1.897  -1.701  -1.520  0.00  0.00    -0.020 A 
ATOM      4  C   LIG    1       -1.551  -0.378  -1.263  0.00  0.00    +0.150 A 
ATOM      5  N   LIG    1       -2.482   0.562  -1.196  0.00  0.00    -0.510 NA
ATOM      6  C   LIG    1       -3.759   0.285  -1.378  0.00  0.00    +0.400 A 
ENDROOT
BRANCH   1   7
ATOM      7  S   LIG    1       -5.883  -1.363  -1.870  0.00  0.00    +2.700 S 
ATOM      8  O   LIG    1       -5.943  -2.562  -2.631  0.00  0.00    -0.950 OA
ATOM      9  O   LIG    1       -6.493  -0.148  -2.284  0.00  0.00    -0.950 OA
BRANCH   7  10
ATOM     10  N   LIG    1       -6.517  -1.721  -0.382  0.00  0.00    -0.990 NA
BRANCH  10  12
ATOM     11  C   LIG    1       -8.588  -0.575   0.232  0.00  0.00    +0.010 C 
ATOM     12  C   LIG    1       -7.076  -0.655   0.452  0.00  0.00    +0.280 C 
ENDBRANCH  10  12
BRANCH  10  13
ATOM     13  C   LIG    1       -6.518  -3.105   0.100  0.00  0.00    +0.300 C 
ATOM     14  C   LIG    1       -5.284  -3.341   0.974  0.00  0.00    +0.000 C 
ENDBRANCH  10  13
ENDBRANCH   7  10
ENDBRANCH   1   7
BRANCH   4  15
ATOM     15  S   LIG    1        0.141   0.051  -1.019  0.00  0.00    +0.010 S 
BRANCH  15  16
ATOM     16  C   LIG    1        0.071   1.839  -0.727  0.00  0.00    +0.090 C 
BRANCH  16  17
ATOM     17  C   LIG    1        1.464   2.366  -0.497  0.00  0.00    +0.410 C 
ATOM     18  O   LIG    1        2.411   1.609  -0.526  0.00  0.00    -0.430 OA
BRANCH  17  19
ATOM     19  C   LIG    1        1.676   3.798  -0.235  0.00  0.00    -0.170 A 
ATOM     20  C   LIG    1        0.606   4.694  -0.324  0.00  0.00    +0.060 A 
ATOM     21  C   LIG    1        0.813   6.036  -0.078  0.00  0.00    -0.100 A 
ATOM     22  C   LIG    1        2.075   6.495   0.256  0.00  0.00    +0.050 A 
ATOM     23  C   LIG    1        3.139   5.615   0.345  0.00  0.00    +0.000 A 
ATOM     24  C   LIG    1       -0.339   7.003  -0.173  0.00  0.00    +0.090 C 
ATOM     25  C   LIG    1        2.947   4.270   0.108  0.00  0.00    -0.020 A 
ATOM     26  C   LIG    1        4.106   3.312   0.212  0.00  0.00    +0.100 C 
ENDBRANCH  17  19
ENDBRANCH  16  17
ENDBRANCH  15  16
ENDBRANCH   4  15
TORSDOF 8
