REMARK  Name = ZINCtV00000L6k3M.0
REMARK                            x       y       z     vdW  Elec       q    Type
REMARK                         _______ _______ _______ _____ _____    ______ ____
ROOT
ATOM      1  C   LIG    1        1.071   2.740   2.978  0.00  0.00    +0.300 A 
ATOM      2  N   LIG    1       -0.107   3.151   3.332  0.00  0.00    -0.460 NA
ATOM      3  C   LIG    1       -0.218   4.411   3.717  0.00  0.00    +0.150 A 
ATOM      4  C   LIG    1        0.950   5.127   3.689  0.00  0.00    -0.190 A 
ATOM      5  S   LIG    1        2.232   4.054   3.132  0.00  0.00    +0.110 S 
ENDROOT
BRANCH   4   6
ATOM      6  C   LIG    1        1.108   6.545   4.066  0.00  0.00    -0.010 A 
ATOM      7  C   LIG    1        0.255   7.513   3.529  0.00  0.00    +0.030 A 
ATOM      8  C   LIG    1        0.405   8.835   3.889  0.00  0.00    +0.010 A 
ATOM      9  C   LIG    1        1.404   9.207   4.772  0.00  0.00    +0.010 A 
ATOM     10  C   LIG    1        2.256   8.254   5.303  0.00  0.00    +0.010 A 
ATOM     11  C   LIG    1        2.114   6.927   4.956  0.00  0.00    +0.010 A 
ENDBRANCH   4   6
BRANCH   3  12
ATOM     12  C   LIG    1       -1.506   5.004   4.144  0.00  0.00    -0.020 A 
ATOM     13  C   LIG    1       -1.563   5.814   5.278  0.00  0.00    +0.030 A 
ATOM     14  C   LIG    1       -2.765   6.367   5.669  0.00  0.00    +0.000 A 
ATOM     15  C   LIG    1       -3.915   6.111   4.944  0.00  0.00    +0.010 A 
ATOM     16  C   LIG    1       -3.867   5.304   3.821  0.00  0.00    +0.010 A 
ATOM     17  C   LIG    1       -2.670   4.749   3.417  0.00  0.00    +0.050 A 
ENDBRANCH   3  12
BRANCH   1  18
ATOM     18  N   LIG    1        1.373   1.456   2.549  0.00  0.00    -0.520 N 
ATOM     19  C   LIG    1        0.401   0.525   2.476  0.00  0.00    +0.560 C 
ATOM     20  O   LIG    1       -0.756   0.836   2.682  0.00  0.00    -0.460 OA
BRANCH  19  21
ATOM     21  C   LIG    1        0.742  -0.875   2.145  0.00  0.00    -0.130 A 
ATOM     22  C   LIG    1        1.666  -1.151   1.136  0.00  0.00    +0.030 A 
ATOM     23  C   LIG    1        1.984  -2.460   0.835  0.00  0.00    +0.010 A 
ATOM     24  C   LIG    1        1.381  -3.497   1.525  0.00  0.00    +0.040 A 
ATOM     25  C   LIG    1        0.461  -3.230   2.523  0.00  0.00    +0.010 A 
ATOM     26  C   LIG    1        0.138  -1.926   2.836  0.00  0.00    +0.070 A 
ENDBRANCH  19  21
BRANCH  18  27
ATOM     27  C   LIG    1        2.747   1.112   2.176  0.00  0.00    +0.320 C 
BRANCH  27  29
ATOM     28  C   LIG    1        4.031   2.362   0.518  0.00  0.00    +0.070 C 
ATOM     29  C   LIG    1        3.015   1.574   0.766  0.00  0.00    -0.080 C 
ENDBRANCH  27  29
ENDBRANCH  18  27
ENDBRANCH   1  18
TORSDOF 6
