REMARK  Name = ZINCpe000000YTOy.0
REMARK                            x       y       z     vdW  Elec       q    Type
REMARK                         _______ _______ _______ _____ _____    ______ ____
ROOT
ATOM      1  N   LIG    1        2.151   7.976   0.721  0.00  0.00    -0.510 NA
ATOM      2  C   LIG    1        3.222   6.974   0.796  0.00  0.00    +0.170 C 
ATOM      3  C   LIG    1        2.974   5.885  -0.254  0.00  0.00    +0.300 C 
ATOM      4  N   LIG    1        1.614   5.357  -0.065  0.00  0.00    -0.610 N 
ATOM      5  C   LIG    1        0.499   6.313   0.002  0.00  0.00    +0.280 C 
ATOM      6  C   LIG    1        1.396   4.031   0.037  0.00  0.00    +0.560 C 
ATOM      7  O   LIG    1        2.336   3.261   0.081  0.00  0.00    -0.530 OA
ATOM      8  C   LIG    1        0.846   7.385   1.047  0.00  0.00    +0.170 C 
ENDROOT
BRANCH   6   9
ATOM      9  C   LIG    1        0.014   3.513   0.096  0.00  0.00    -0.140 A 
ATOM     10  C   LIG    1       -0.277   2.376   0.853  0.00  0.00    +0.110 A 
ATOM     11  C   LIG    1       -1.568   1.896   0.905  0.00  0.00    -0.020 A 
ATOM     12  C   LIG    1       -2.577   2.537   0.202  0.00  0.00    +0.120 A 
ATOM     13  C   LIG    1       -2.295   3.669  -0.547  0.00  0.00    -0.020 A 
ATOM     14  F   LIG    1       -3.840   2.060   0.251  0.00  0.00    -0.130 F 
ATOM     15  C   LIG    1       -1.007   4.157  -0.606  0.00  0.00    +0.080 A 
ENDBRANCH   6   9
BRANCH   1  16
ATOM     16  C   LIG    1        2.441   9.124   1.590  0.00  0.00    +0.250 C 
BRANCH  16  18
ATOM     17  O   LIG    1        2.343   7.496   3.297  0.00  0.00    -0.540 OA
ATOM     18  C   LIG    1        2.452   8.674   3.029  0.00  0.00    +0.480 C 
ATOM     19  N   LIG    1        2.583   9.581   4.017  0.00  0.00    -0.720 N 
ATOM     20  H   LIG    1        2.670  10.523   3.803  0.00  0.00    +0.400 HD
BRANCH  19  21
ATOM     21  C   LIG    1        2.594   9.144   5.415  0.00  0.00    +0.260 C 
BRANCH  21  22
ATOM     22  C   LIG    1        2.754  10.361   6.329  0.00  0.00    +0.160 C 
ATOM     23  C   LIG    1        2.882   9.901   7.797  0.00  0.00    +0.020 C 
ATOM     24  C   LIG    1        2.053  10.975   8.553  0.00  0.00    +0.010 C 
ATOM     25  C   LIG    1        0.942  11.274   7.515  0.00  0.00    +0.200 C 
ATOM     26  O   LIG    1        1.592  11.194   6.236  0.00  0.00    -0.380 OA
ENDBRANCH  21  22
ENDBRANCH  19  21
ENDBRANCH  16  18
ENDBRANCH   1  16
TORSDOF 5
