REMARK  Name = ZINCrD000000BIVL.0
REMARK                            x       y       z     vdW  Elec       q    Type
REMARK                         _______ _______ _______ _____ _____    ______ ____
ROOT
ATOM      1  O   LIG    1       -5.234   4.144  -5.806  0.00  0.00    -0.520 OA
ATOM      2  C   LIG    1       -4.127   3.814  -6.182  0.00  0.00    +0.560 C 
ATOM      3  N   LIG    1       -3.789   3.947  -7.480  0.00  0.00    -0.720 N 
ATOM      4  H   LIG    1       -2.905   3.684  -7.780  0.00  0.00    +0.400 HD
ENDROOT
BRANCH   2   5
ATOM      5  C   LIG    1       -3.149   3.265  -5.215  0.00  0.00    -0.090 A 
ATOM      6  C   LIG    1       -1.875   2.886  -5.654  0.00  0.00    +0.030 A 
ATOM      7  C   LIG    1       -0.960   2.379  -4.776  0.00  0.00    +0.110 A 
ATOM      8  C   LIG    1       -1.295   2.236  -3.431  0.00  0.00    -0.180 A 
ATOM      9  C   LIG    1       -0.347   1.696  -2.445  0.00  0.00    +0.550 A 
ATOM     10  N   LIG    1       -0.760   1.591  -1.156  0.00  0.00    -0.560 N 
ATOM     11  C   LIG    1       -0.013   1.086   0.008  0.00  0.00    +0.280 C 
ATOM     12  C   LIG    1       -0.772   1.602   1.247  0.00  0.00    +0.070 C 
ATOM     13  C   LIG    1       -2.207   1.761   0.694  0.00  0.00    +0.160 C 
ATOM     14  C   LIG    1       -2.014   1.980  -0.799  0.00  0.00    +0.400 A 
ATOM     15  N   LIG    1       -2.871   2.461  -1.659  0.00  0.00    -0.520 NA
ATOM     16  O   LIG    1        0.773   1.353  -2.774  0.00  0.00    -0.500 OA
ATOM     17  C   LIG    1       -2.576   2.613  -2.971  0.00  0.00    +0.170 A 
ATOM     18  C   LIG    1       -3.503   3.130  -3.878  0.00  0.00    +0.110 A 
ENDBRANCH   2   5
BRANCH   3  19
ATOM     19  C   LIG    1       -4.756   4.490  -8.437  0.00  0.00    +0.300 C 
ATOM     20  C   LIG    1       -4.469   3.900  -9.806  0.00  0.00    +0.050 C 
ATOM     21  C   LIG    1       -5.503   4.434 -10.807  0.00  0.00    +0.120 C 
ATOM     22  S   LIG    1       -5.099   6.176 -11.124  0.00  0.00    -0.120 S 
ATOM     23  C   LIG    1       -4.832   6.811  -9.500  0.00  0.00    -0.070 A 
ATOM     24  C   LIG    1       -4.764   8.197  -9.348  0.00  0.00    +0.030 A 
ATOM     25  C   LIG    1       -4.530   8.757  -8.111  0.00  0.00    +0.030 A 
ATOM     26  C   LIG    1       -4.361   7.935  -7.012  0.00  0.00    +0.010 A 
ATOM     27  C   LIG    1       -4.436   6.566  -7.157  0.00  0.00    +0.040 A 
ATOM     28  C   LIG    1       -4.678   5.988  -8.401  0.00  0.00    -0.100 A 
ENDBRANCH   3  19
TORSDOF 2
