REMARK  Name = ZINCrH000004qPNm.0
REMARK                            x       y       z     vdW  Elec       q    Type
REMARK                         _______ _______ _______ _____ _____    ______ ____
ROOT
ATOM      1  N   LIG    1        0.096   1.689   0.014  0.00  0.00    -0.480 NA
ATOM      2  C   LIG    1        1.353   2.441   0.116  0.00  0.00    +0.180 C 
ATOM      3  C   LIG    1        2.178   2.234  -1.155  0.00  0.00    +0.020 C 
ATOM      4  C   LIG    1        2.469   0.741  -1.331  0.00  0.00    +0.010 C 
ATOM      5  C   LIG    1        1.145  -0.026  -1.387  0.00  0.00    +0.030 C 
ATOM      6  C   LIG    1        0.349   0.247  -0.108  0.00  0.00    +0.260 C 
ENDROOT
BRANCH   6   7
ATOM      7  C   LIG    1       -0.964  -0.490  -0.167  0.00  0.00    +0.220 A 
ATOM      8  N   LIG    1       -2.097   0.013  -0.572  0.00  0.00    -0.450 NA
ATOM      9  C   LIG    1       -3.056  -0.932  -0.488  0.00  0.00    +0.030 A 
ATOM     10  C   LIG    1       -2.479  -2.064  -0.009  0.00  0.00    +0.150 A 
ATOM     11  N   LIG    1       -1.157  -1.780   0.187  0.00  0.00    -0.560 N 
ATOM     12  H   LIG    1       -0.481  -2.390   0.520  0.00  0.00    +0.420 HD
BRANCH   9  13
ATOM     13  C   LIG    1       -4.484  -0.764  -0.854  0.00  0.00    +0.030 A 
ATOM     14  C   LIG    1       -5.370  -1.831  -0.722  0.00  0.00    +0.010 A 
ATOM     15  C   LIG    1       -6.698  -1.670  -1.059  0.00  0.00    +0.040 A 
ATOM     16  C   LIG    1       -7.151  -0.454  -1.537  0.00  0.00    -0.020 A 
ATOM     17  C   LIG    1       -6.274   0.611  -1.675  0.00  0.00    +0.100 A 
ATOM     18  F   LIG    1       -6.721   1.797  -2.143  0.00  0.00    -0.140 F 
ATOM     19  C   LIG    1       -4.943   0.461  -1.336  0.00  0.00    +0.010 A 
ENDBRANCH   9  13
ENDBRANCH   6   7
BRANCH   1  20
ATOM     20  C   LIG    1       -0.783   1.974   1.156  0.00  0.00    +0.340 C 
BRANCH  20  27
ATOM     21  C   LIG    1        3.077  -0.038   3.374  0.00  0.00    +0.140 C 
ATOM     22  C   LIG    1        1.739   0.646   3.482  0.00  0.00    +0.180 A 
ATOM     23  C   LIG    1        1.200   0.903   4.706  0.00  0.00    -0.150 A 
ATOM     24  C   LIG    1       -0.054   1.545   4.770  0.00  0.00    +0.520 A 
ATOM     25  N   LIG    1       -0.669   1.878   3.615  0.00  0.00    -0.630 N 
ATOM     26  H   LIG    1       -1.533   2.320   3.635  0.00  0.00    +0.420 HD
ATOM     27  C   LIG    1       -0.083   1.596   2.436  0.00  0.00    +0.370 A 
ATOM     28  O   LIG    1       -0.572   1.794   5.846  0.00  0.00    -0.540 OA
ATOM     29  N   LIG    1        1.077   0.997   2.376  0.00  0.00    -0.540 NA
ENDBRANCH  20  27
ENDBRANCH   1  20
TORSDOF 4
