REMARK  Name = ZINCpe000000V5U2.0
REMARK                            x       y       z     vdW  Elec       q    Type
REMARK                         _______ _______ _______ _____ _____    ______ ____
ROOT
ATOM      1  C   LIG    1        1.127  -1.793  -3.201  0.00  0.00    -0.010 C 
ATOM      2  C   LIG    1        1.382  -0.630  -4.188  0.00  0.00    +0.070 C 
ATOM      3  C   LIG    1        1.326  -1.283  -5.552  0.00  0.00    +0.520 C 
ATOM      4  N   LIG    1        0.745  -2.491  -5.463  0.00  0.00    -0.610 N 
ATOM      5  O   LIG    1        1.745  -0.787  -6.577  0.00  0.00    -0.520 OA
ATOM      6  C   LIG    1        0.342  -2.789  -4.083  0.00  0.00    +0.300 C 
ENDROOT
BRANCH   1  12
ATOM      7  C   LIG    1        1.419   2.053  -0.001  0.00  0.00    +0.030 C 
ATOM      8  C   LIG    1       -0.019   1.528   0.010  0.00  0.00    +0.050 C 
ATOM      9  C   LIG    1        0.002  -0.004   0.002  0.00  0.00    +0.290 C 
ATOM     10  N   LIG    1        0.803  -0.460  -1.143  0.00  0.00    -0.610 N 
ATOM     11  C   LIG    1        2.170   0.056  -1.299  0.00  0.00    +0.280 C 
ATOM     12  C   LIG    1        0.293  -1.335  -2.032  0.00  0.00    +0.530 C 
ATOM     13  O   LIG    1       -0.837  -1.754  -1.892  0.00  0.00    -0.530 OA
ATOM     14  C   LIG    1        2.124   1.587  -1.276  0.00  0.00    +0.050 C 
BRANCH   7  15
ATOM     15  C   LIG    1        1.402   3.560   0.042  0.00  0.00    +0.460 C 
ATOM     16  O   LIG    1        0.350   4.152   0.078  0.00  0.00    -0.500 OA
BRANCH  15  18
ATOM     17  C   LIG    1        2.466   5.692   0.083  0.00  0.00    +0.250 C 
ATOM     18  O   LIG    1        2.558   4.244   0.041  0.00  0.00    -0.360 OA
ENDBRANCH  15  18
ENDBRANCH   7  15
ENDBRANCH   1  12
BRANCH   4  19
ATOM     19  C   LIG    1        0.539  -3.395  -6.597  0.00  0.00    +0.380 C 
BRANCH  19  20
ATOM     20  C   LIG    1       -0.800  -3.112  -7.228  0.00  0.00    +0.100 A 
ATOM     21  C   LIG    1       -0.878  -2.257  -8.310  0.00  0.00    -0.010 A 
ATOM     22  C   LIG    1       -2.114  -2.007  -8.887  0.00  0.00    +0.060 A 
ATOM     23  C   LIG    1       -3.232  -2.622  -8.344  0.00  0.00    -0.030 A 
ATOM     24  C   LIG    1       -3.077  -3.462  -7.257  0.00  0.00    +0.260 A 
ATOM     25  N   LIG    1       -1.885  -3.680  -6.738  0.00  0.00    -0.470 NA
ENDBRANCH  19  20
ENDBRANCH   4  19
TORSDOF 5
