REMARK  Name = ZINCpk00000e9lZW.0
REMARK                            x       y       z     vdW  Elec       q    Type
REMARK                         _______ _______ _______ _____ _____    ______ ____
ROOT
ATOM      1  C   LIG    1       -1.259   1.894   0.128  0.00  0.00    -0.240 C 
ATOM      2  C   LIG    1       -2.421   1.240  -0.086  0.00  0.00    +0.200 C 
ATOM      3  N   LIG    1       -3.603   1.917  -0.182  0.00  0.00    -0.640 N 
ATOM      4  H   LIG    1       -4.413   1.405  -0.332  0.00  0.00    +0.430 HD
ATOM      5  C   LIG    1       -3.706   3.249  -0.086  0.00  0.00    +0.710 C 
ATOM      6  N   LIG    1       -2.633   4.038   0.121  0.00  0.00    -0.720 N 
ATOM      7  H   LIG    1       -2.731   5.001   0.187  0.00  0.00    +0.440 HD
ATOM      8  O   LIG    1       -4.803   3.762  -0.190  0.00  0.00    -0.560 OA
ATOM      9  C   LIG    1       -1.310   3.404   0.245  0.00  0.00    +0.340 C 
ENDROOT
BRANCH   1  10
ATOM     10  C   LIG    1       -0.034   1.193   0.234  0.00  0.00    +0.540 C 
ATOM     11  O   LIG    1        0.448   0.972   1.329  0.00  0.00    -0.480 OA
BRANCH  10  12
ATOM     12  O   LIG    1        0.596   0.765  -0.880  0.00  0.00    -0.350 OA
BRANCH  12  14
ATOM     13  C   LIG    1        2.388  -0.344  -2.064  0.00  0.00    +0.070 C 
ATOM     14  C   LIG    1        1.825   0.059  -0.699  0.00  0.00    +0.200 C 
ENDBRANCH  12  14
ENDBRANCH  10  12
ENDBRANCH   1  10
BRANCH   2  15
ATOM     15  C   LIG    1       -2.414  -0.262  -0.215  0.00  0.00    +0.300 C 
BRANCH  15  16
ATOM     16  O   LIG    1       -3.143  -0.846   0.896  0.00  0.00    -0.350 OA
BRANCH  16  17
ATOM     17  C   LIG    1       -3.231  -2.185   0.930  0.00  0.00    +0.470 C 
ATOM     18  O   LIG    1       -2.716  -2.847   0.060  0.00  0.00    -0.500 OA
BRANCH  17  19
ATOM     19  C   LIG    1       -3.973  -2.863   2.053  0.00  0.00    +0.110 C 
BRANCH  19  20
ATOM     20  C   LIG    1       -3.923  -4.380   1.855  0.00  0.00    +0.110 C 
BRANCH  20  21
ATOM     21  C   LIG    1       -4.664  -5.058   2.978  0.00  0.00    -0.120 A 
ATOM     22  C   LIG    1       -5.957  -5.505   2.782  0.00  0.00    +0.040 A 
ATOM     23  C   LIG    1       -6.637  -6.127   3.812  0.00  0.00    +0.000 A 
ATOM     24  C   LIG    1       -6.026  -6.302   5.039  0.00  0.00    +0.040 A 
ATOM     25  C   LIG    1       -4.733  -5.856   5.238  0.00  0.00    -0.010 A 
ATOM     26  C   LIG    1       -4.048  -5.238   4.205  0.00  0.00    +0.100 A 
ATOM     27  F   LIG    1       -2.782  -4.807   4.396  0.00  0.00    -0.140 F 
ENDBRANCH  20  21
ENDBRANCH  19  20
ENDBRANCH  17  19
ENDBRANCH  16  17
ENDBRANCH  15  16
ENDBRANCH   2  15
TORSDOF 9
