REMARK  Name = ZINCc70000002tLu.0
REMARK                            x       y       z     vdW  Elec       q    Type
REMARK                         _______ _______ _______ _____ _____    ______ ____
ROOT
ATOM      1  C   LIG    1        1.216   1.943   0.001  0.00  0.00    -0.070 C 
ATOM      2  C   LIG    1        2.224   2.544  -0.005  0.00  0.00    -0.070 C 
ENDROOT
BRANCH   1   3
ATOM      3  C   LIG    1       -0.014   1.210   0.009  0.00  0.00    +0.590 C 
ATOM      4  O   LIG    1        0.002  -0.004   0.002  0.00  0.00    -0.460 OA
BRANCH   3   5
ATOM      5  O   LIG    1       -1.190   1.868   0.018  0.00  0.00    -0.340 OA
BRANCH   5   7
ATOM      6  C   LIG    1       -3.623   1.976   0.030  0.00  0.00    +0.070 C 
ATOM      7  C   LIG    1       -2.397   1.061   0.019  0.00  0.00    +0.220 C 
ENDBRANCH   5   7
ENDBRANCH   3   5
ENDBRANCH   1   3
BRANCH   2   8
ATOM      8  C   LIG    1        3.455   3.277  -0.013  0.00  0.00    +0.590 C 
ATOM      9  O   LIG    1        3.438   4.491  -0.007  0.00  0.00    -0.460 OA
BRANCH   8  10
ATOM     10  O   LIG    1        4.631   2.619  -0.028  0.00  0.00    -0.340 OA
BRANCH  10  11
ATOM     11  C   LIG    1        5.838   3.426  -0.035  0.00  0.00    +0.220 C 
ATOM     12  C   LIG    1        7.063   2.511  -0.052  0.00  0.00    +0.070 C 
ENDBRANCH  10  11
ENDBRANCH   8  10
ENDBRANCH   2   8
TORSDOF 6
