REMARK  Name = ZINCpk00000Fe45N.0
REMARK                            x       y       z     vdW  Elec       q    Type
REMARK                         _______ _______ _______ _____ _____    ______ ____
ROOT
ATOM      1  C   LIG    1        4.478   1.181  -4.686  0.00  0.00    +0.370 C 
ATOM      2  C   LIG    1        5.732   0.681  -5.433  0.00  0.00    +0.090 C 
ATOM      3  C   LIG    1        6.584   0.051  -4.299  0.00  0.00    +0.180 C 
ATOM      4  C   LIG    1        6.273   1.004  -3.114  0.00  0.00    +0.240 C 
ATOM      5  N   LIG    1        4.848   1.346  -3.273  0.00  0.00    -0.610 N 
ATOM      6  C   LIG    1        4.022   1.749  -2.286  0.00  0.00    +0.500 C 
ATOM      7  O   LIG    1        2.864   2.011  -2.534  0.00  0.00    -0.510 OA
ENDROOT
BRANCH   1  12
ATOM      8  C   LIG    1        1.978   4.777  -7.114  0.00  0.00    +0.210 C 
ATOM      9  C   LIG    1        2.988   4.032  -6.279  0.00  0.00    +0.170 A 
ATOM     10  N   LIG    1        4.023   4.546  -5.684  0.00  0.00    -0.380 NA
ATOM     11  O   LIG    1        4.634   3.685  -5.087  0.00  0.00    +0.080 OA
ATOM     12  C   LIG    1        4.034   2.503  -5.257  0.00  0.00    +0.170 A 
ATOM     13  N   LIG    1        2.982   2.714  -6.011  0.00  0.00    -0.470 NA
ENDBRANCH   1  12
BRANCH   3  14
ATOM     14  O   LIG    1        6.155  -1.282  -4.016  0.00  0.00    -0.550 OA
ATOM     15  H   LIG    1        6.658  -1.717  -3.314  0.00  0.00    +0.390 HD
ENDBRANCH   3  14
BRANCH   6  16
ATOM     16  C   LIG    1        4.539   1.875  -0.876  0.00  0.00    +0.180 C 
ATOM     17  C   LIG    1        5.682   2.891  -0.840  0.00  0.00    +0.070 C 
BRANCH  16  18
ATOM     18  N   LIG    1        3.453   2.327   0.004  0.00  0.00    -0.450 N 
ATOM     19  C   LIG    1        2.933   3.643  -0.429  0.00  0.00    +0.200 C 
ATOM     20  C   LIG    1        1.448   3.576  -0.005  0.00  0.00    +0.090 C 
ATOM     21  C   LIG    1        1.167   2.087   0.002  0.00  0.00    -0.120 A 
ATOM     22  C   LIG    1       -0.017   1.379   0.010  0.00  0.00    +0.040 A 
ATOM     23  C   LIG    1        0.002  -0.004   0.002  0.00  0.00    -0.020 A 
ATOM     24  C   LIG    1        1.210  -0.677  -0.013  0.00  0.00    +0.020 A 
ATOM     25  C   LIG    1        2.397   0.026  -0.018  0.00  0.00    -0.030 A 
ATOM     26  C   LIG    1        2.387   1.420  -0.007  0.00  0.00    +0.100 A 
ENDBRANCH  16  18
ENDBRANCH   6  16
TORSDOF 4
