REMARK  Name = ZINCbw0000000Hd3.0
REMARK                            x       y       z     vdW  Elec       q    Type
REMARK                         _______ _______ _______ _____ _____    ______ ____
ROOT
ATOM      1  C   LIG    1        1.170   2.096   0.002  0.00  0.00    -0.090 A 
ATOM      2  C   LIG    1        2.378   1.421  -0.013  0.00  0.00    +0.050 A 
ATOM      3  C   LIG    1        2.405   0.037  -0.021  0.00  0.00    +0.000 A 
ATOM      4  C   LIG    1        1.227  -0.680  -0.013  0.00  0.00    +0.060 A 
ATOM      5  C   LIG    1        0.002  -0.004   0.002  0.00  0.00    -0.190 A 
ATOM      6  C   LIG    1       -0.017   1.394   0.010  0.00  0.00    +0.060 A 
ENDROOT
BRANCH   1   8
ATOM      7  C   LIG    1        1.879   4.115   1.256  0.00  0.00    +0.030 C 
ATOM      8  C   LIG    1        1.152   3.603   0.010  0.00  0.00    +0.020 C 
ATOM      9  C   LIG    1        1.855   4.128  -1.243  0.00  0.00    +0.030 C 
ENDBRANCH   1   8
BRANCH   5  10
ATOM     10  C   LIG    1       -1.260  -0.761   0.011  0.00  0.00    +0.490 C 
ATOM     11  O   LIG    1       -1.240  -1.973   0.004  0.00  0.00    -0.460 OA
ENDBRANCH   5  10
TORSDOF 2
