REMARK  Name = ZINCpe000000ULE5.1
REMARK                            x       y       z     vdW  Elec       q    Type
REMARK                         _______ _______ _______ _____ _____    ______ ____
ROOT
ATOM      1  N   LIG    1       -4.019  -1.200   3.574  0.00  0.00    -0.620 N 
ATOM      2  C   LIG    1       -2.790  -0.797   3.953  0.00  0.00    +0.710 C 
ATOM      3  N   LIG    1       -2.086   0.045   3.171  0.00  0.00    -0.670 N 
ATOM      4  H   LIG    1       -2.493   0.423   2.376  0.00  0.00    +0.410 HD
ATOM      5  O   LIG    1       -2.316  -1.194   5.000  0.00  0.00    -0.570 OA
ATOM      6  C   LIG    1       -4.590  -0.722   2.312  0.00  0.00    +0.290 C 
ENDROOT
BRANCH   3   7
ATOM      7  C   LIG    1       -0.765   0.374   3.507  0.00  0.00    +0.200 A 
ATOM      8  C   LIG    1       -0.012  -0.485   4.291  0.00  0.00    +0.020 A 
ATOM      9  C   LIG    1        1.288  -0.156   4.626  0.00  0.00    +0.030 A 
ATOM     10  C   LIG    1        1.844   1.028   4.176  0.00  0.00    -0.010 A 
ATOM     11  C   LIG    1        1.102   1.889   3.389  0.00  0.00    -0.010 A 
ATOM     12  C   LIG    1       -0.203   1.566   3.048  0.00  0.00    +0.040 A 
BRANCH  12  13
ATOM     13  N   LIG    1       -0.956   2.436   2.252  0.00  0.00    -0.510 N 
ATOM     14  C   LIG    1       -1.178   3.717   2.935  0.00  0.00    +0.200 C 
ATOM     15  C   LIG    1       -0.316   2.640   0.945  0.00  0.00    +0.200 C 
ENDBRANCH  12  13
ENDBRANCH   3   7
BRANCH   1  16
ATOM     16  C   LIG    1       -4.784  -2.115   4.424  0.00  0.00    +0.280 C 
BRANCH  16  17
ATOM     17  C   LIG    1       -5.632  -1.308   5.409  0.00  0.00    +0.200 C 
BRANCH  17  18
ATOM     18  O   LIG    1       -4.778  -0.503   6.224  0.00  0.00    -0.540 OA
ATOM     19  H   LIG    1       -4.140  -1.010   6.745  0.00  0.00    +0.380 HD
ENDBRANCH  17  18
BRANCH  17  20
ATOM     20  C   LIG    1       -6.431  -2.264   6.296  0.00  0.00    +0.150 C 
BRANCH  20  25
ATOM     21  C   LIG    1      -10.755  -0.038   9.170  0.00  0.00    +0.190 C 
ATOM     22  N   LIG    1       -9.850  -0.811   8.309  0.00  0.00    -0.550 NA
ATOM     23  C   LIG    1       -9.236   0.047   7.285  0.00  0.00    +0.180 C 
ATOM     24  C   LIG    1       -8.365  -0.808   6.362  0.00  0.00    +0.180 C 
ATOM     25  N   LIG    1       -7.336  -1.492   7.158  0.00  0.00    -0.530 NA
ATOM     26  C   LIG    1       -7.950  -2.350   8.181  0.00  0.00    +0.180 C 
ATOM     27  C   LIG    1       -8.821  -1.495   9.104  0.00  0.00    +0.180 C 
ENDBRANCH  20  25
ENDBRANCH  17  20
ENDBRANCH  16  17
ENDBRANCH   1  16
TORSDOF 7
