REMARK  Name = ZINCrH000004mCWt.0
REMARK                            x       y       z     vdW  Elec       q    Type
REMARK                         _______ _______ _______ _____ _____    ______ ____
ROOT
ATOM      1  C   LIG    1       -1.420   0.921   5.256  0.00  0.00    +0.220 C 
ENDROOT
BRANCH   1   2
ATOM      2  C   LIG    1       -0.248   0.284   5.959  0.00  0.00    +0.520 C 
ATOM      3  N   LIG    1       -0.449  -0.744   6.807  0.00  0.00    -0.680 N 
ATOM      4  H   LIG    1       -1.351  -1.032   7.016  0.00  0.00    +0.410 HD
ATOM      5  O   LIG    1        0.875   0.696   5.761  0.00  0.00    -0.490 OA
BRANCH   3   6
ATOM      6  C   LIG    1        0.645  -1.397   7.386  0.00  0.00    +0.200 A 
ATOM      7  C   LIG    1        1.787  -0.680   7.718  0.00  0.00    +0.030 A 
ATOM      8  C   LIG    1        2.862  -1.327   8.296  0.00  0.00    +0.070 A 
ATOM      9  C   LIG    1        2.808  -2.688   8.531  0.00  0.00    +0.000 A 
ATOM     10  C   LIG    1        1.674  -3.406   8.196  0.00  0.00    +0.090 A 
ATOM     11  C   LIG    1        0.593  -2.764   7.624  0.00  0.00    -0.220 A 
BRANCH  11  12
ATOM     12  C   LIG    1       -0.642  -3.547   7.258  0.00  0.00    +0.510 C 
ATOM     13  F   LIG    1       -0.875  -3.435   5.883  0.00  0.00    -0.170 F 
ATOM     14  F   LIG    1       -1.740  -3.041   7.961  0.00  0.00    -0.180 F 
ATOM     15  F   LIG    1       -0.456  -4.894   7.591  0.00  0.00    -0.170 F 
ENDBRANCH  11  12
ENDBRANCH   3   6
ENDBRANCH   1   2
BRANCH   1  16
ATOM     16  N   LIG    1       -0.941   2.010   4.394  0.00  0.00    -0.510 NA
ATOM     17  C   LIG    1       -0.375   3.104   5.194  0.00  0.00    +0.190 C 
BRANCH  16  18
ATOM     18  C   LIG    1       -2.014   2.498   3.518  0.00  0.00    +0.240 C 
BRANCH  18  22
ATOM     19  C   LIG    1       -0.375   5.152   0.591  0.00  0.00    +0.170 A 
ATOM     20  C   LIG    1       -1.007   5.660   1.717  0.00  0.00    -0.120 A 
ATOM     21  C   LIG    1       -1.533   4.800   2.663  0.00  0.00    +0.100 A 
ATOM     22  C   LIG    1       -1.435   3.433   2.488  0.00  0.00    -0.150 A 
ATOM     23  C   LIG    1       -0.798   2.920   1.366  0.00  0.00    +0.190 A 
ATOM     24  C   LIG    1       -0.271   3.780   0.416  0.00  0.00    -0.110 A 
BRANCH  19  26
ATOM     25  C   LIG    1       -0.003   7.398  -0.093  0.00  0.00    +0.250 C 
ATOM     26  O   LIG    1        0.141   5.998  -0.339  0.00  0.00    -0.320 OA
ENDBRANCH  19  26
BRANCH  23  27
ATOM     27  O   LIG    1       -0.698   1.575   1.196  0.00  0.00    -0.300 OA
ATOM     28  C   LIG    1       -0.036   1.118   0.015  0.00  0.00    +0.240 C 
ENDBRANCH  23  27
ENDBRANCH  18  22
ENDBRANCH  16  18
ENDBRANCH   1  16
TORSDOF 8
