REMARK  Name = ZINCrg000000rtv8.0
REMARK                            x       y       z     vdW  Elec       q    Type
REMARK                         _______ _______ _______ _____ _____    ______ ____
ROOT
ATOM      1  C   LIG    1       -3.042   9.482  -4.192  0.00  0.00    +0.050 C 
ATOM      2  C   LIG    1       -2.937   7.981  -4.472  0.00  0.00    +0.270 C 
ATOM      3  N   LIG    1       -2.528   7.269  -3.249  0.00  0.00    -0.740 N 
ATOM      4  H   LIG    1       -3.174   6.781  -2.715  0.00  0.00    +0.420 HD
ATOM      5  C   LIG    1       -1.181   7.319  -2.879  0.00  0.00    +0.330 C 
ATOM      6  N   LIG    1       -0.267   7.422  -3.804  0.00  0.00    -0.270 NA
ATOM      7  N   LIG    1       -0.617   7.478  -5.156  0.00  0.00    -0.390 N 
ATOM      8  C   LIG    1       -1.887   7.732  -5.530  0.00  0.00    +0.490 C 
ATOM      9  O   LIG    1       -2.185   7.761  -6.706  0.00  0.00    -0.500 OA
ENDROOT
BRANCH   7  10
ATOM     10  C   LIG    1        0.362   7.267  -6.134  0.00  0.00    +0.150 A 
ATOM     11  C   LIG    1        1.219   6.178  -6.037  0.00  0.00    +0.020 A 
ATOM     12  C   LIG    1        2.181   5.970  -7.005  0.00  0.00    +0.020 A 
ATOM     13  C   LIG    1        2.298   6.850  -8.066  0.00  0.00    +0.010 A 
ATOM     14  C   LIG    1        1.450   7.939  -8.162  0.00  0.00    +0.030 A 
ATOM     15  C   LIG    1        0.483   8.149  -7.200  0.00  0.00    +0.030 A 
ENDBRANCH   7  10
BRANCH   5  16
ATOM     16  C   LIG    1       -0.797   7.251  -1.458  0.00  0.00    +0.590 C 
ATOM     17  N   LIG    1        0.504   7.295  -1.108  0.00  0.00    -0.680 N 
ATOM     18  H   LIG    1        1.188   7.371  -1.792  0.00  0.00    +0.420 HD
ATOM     19  O   LIG    1       -1.654   7.155  -0.600  0.00  0.00    -0.520 OA
BRANCH  17  20
ATOM     20  C   LIG    1        0.886   7.227   0.305  0.00  0.00    +0.300 C 
ATOM     21  C   LIG    1        1.076   5.786   0.729  0.00  0.00    -0.120 A 
ATOM     22  C   LIG    1        0.143   4.814   1.048  0.00  0.00    +0.050 A 
ATOM     23  C   LIG    1        0.556   3.546   1.408  0.00  0.00    +0.010 A 
ATOM     24  C   LIG    1        1.904   3.249   1.460  0.00  0.00    +0.020 A 
ATOM     25  C   LIG    1        2.837   4.217   1.141  0.00  0.00    +0.010 A 
ATOM     26  C   LIG    1        2.425   5.487   0.775  0.00  0.00    -0.080 A 
ATOM     27  C   LIG    1        3.233   6.706   0.386  0.00  0.00    +0.060 C 
ATOM     28  C   LIG    1        2.259   7.896   0.521  0.00  0.00    +0.190 C 
BRANCH  28  29
ATOM     29  O   LIG    1        2.512   8.876  -0.488  0.00  0.00    -0.550 OA
ATOM     30  H   LIG    1        3.396   9.265  -0.447  0.00  0.00    +0.390 HD
ENDBRANCH  28  29
ENDBRANCH  17  20
ENDBRANCH   5  16
TORSDOF 4
