REMARK  Name = ZINCnE000001MQAA.0
REMARK                            x       y       z     vdW  Elec       q    Type
REMARK                         _______ _______ _______ _____ _____    ______ ____
ROOT
ATOM      1  C   LIG    1       -4.756   4.082   1.184  0.00  0.00    +0.050 C 
ATOM      2  C   LIG    1       -3.292   3.641   1.252  0.00  0.00    +0.210 C 
ATOM      3  C   LIG    1       -2.550   4.118  -0.001  0.00  0.00    +0.000 C 
ATOM      4  C   LIG    1       -1.127   3.557   0.009  0.00  0.00    +0.040 C 
ATOM      5  C   LIG    1       -1.179   2.028  -0.013  0.00  0.00    -0.100 C 
ATOM      6  C   LIG    1       -1.905   1.527   1.239  0.00  0.00    +0.290 C 
ATOM      7  N   LIG    1       -3.222   2.175   1.313  0.00  0.00    -0.600 N 
ATOM      8  C   LIG    1       -4.344   1.438   1.435  0.00  0.00    +0.520 C 
ATOM      9  O   LIG    1       -5.413   1.985   1.600  0.00  0.00    -0.550 OA
ENDROOT
BRANCH   5  10
ATOM     10  C   LIG    1        0.224   1.477  -0.036  0.00  0.00    +0.500 C 
ATOM     11  O   LIG    1        1.177   2.237  -0.041  0.00  0.00    -0.690 OA
ATOM     12  O   LIG    1        0.405   0.271  -0.055  0.00  0.00    -0.700 OA
ENDBRANCH   5  10
BRANCH   8  13
ATOM     13  C   LIG    1       -4.269  -0.066   1.365  0.00  0.00    +0.070 C 
BRANCH  13  14
ATOM     14  C   LIG    1       -5.671  -0.654   1.530  0.00  0.00    +0.220 C 
BRANCH  14  15
ATOM     15  O   LIG    1       -5.601  -2.080   1.464  0.00  0.00    -0.300 OA
BRANCH  15  16
ATOM     16  C   LIG    1       -6.769  -2.763   1.593  0.00  0.00    +0.150 A 
ATOM     17  C   LIG    1       -7.957  -2.075   1.786  0.00  0.00    -0.040 A 
ATOM     18  C   LIG    1       -9.145  -2.770   1.912  0.00  0.00    +0.080 A 
ATOM     19  C   LIG    1       -9.148  -4.153   1.858  0.00  0.00    -0.070 A 
ATOM     20  C   LIG    1       -7.962  -4.842   1.671  0.00  0.00    +0.090 A 
ATOM     21 CL   LIG    1      -10.640  -5.024   2.024  0.00  0.00    -0.060 Cl
ATOM     22  C   LIG    1       -6.773  -4.150   1.539  0.00  0.00    -0.060 A 
ATOM     23 CL   LIG    1       -5.286  -5.015   1.304  0.00  0.00    -0.040 Cl
ENDBRANCH  15  16
ENDBRANCH  14  15
ENDBRANCH  13  14
ENDBRANCH   8  13
TORSDOF 5
