REMARK  Name = ZINCtV00000L6kUt.0
REMARK                            x       y       z     vdW  Elec       q    Type
REMARK                         _______ _______ _______ _____ _____    ______ ____
ROOT
ATOM      1  S   LIG    1       10.553   2.657  -3.057  0.00  0.00    +0.170 S 
ENDROOT
BRANCH   1   2
ATOM      2  C   LIG    1        8.823   2.929  -2.859  0.00  0.00    +0.130 A 
ATOM      3  N   LIG    1        8.208   3.235  -1.740  0.00  0.00    -0.280 NA
ATOM      4  N   LIG    1        6.948   3.364  -1.965  0.00  0.00    -0.230 NA
ATOM      5  C   LIG    1        6.707   3.137  -3.235  0.00  0.00    +0.230 A 
ATOM      6  O   LIG    1        7.890   2.860  -3.828  0.00  0.00    -0.190 OA
BRANCH   5   7
ATOM      7  C   LIG    1        5.393   3.182  -3.893  0.00  0.00    -0.120 A 
ATOM      8  C   LIG    1        4.244   3.460  -3.269  0.00  0.00    +0.030 A 
ATOM      9  C   LIG    1        3.072   3.445  -4.123  0.00  0.00    -0.080 A 
ATOM     10  C   LIG    1        1.721   3.692  -3.791  0.00  0.00    +0.080 A 
ATOM     11  C   LIG    1        0.754   3.630  -4.746  0.00  0.00    +0.030 A 
ATOM     12  C   LIG    1        1.077   3.324  -6.061  0.00  0.00    +0.060 A 
ATOM     13  C   LIG    1        2.384   3.079  -6.413  0.00  0.00    +0.060 A 
ATOM     14  C   LIG    1        3.395   3.137  -5.450  0.00  0.00    -0.130 A 
ATOM     15 CL   LIG    1        4.162   3.811  -1.571  0.00  0.00    +0.000 Cl
ATOM     16  S   LIG    1        5.128   2.876  -5.599  0.00  0.00    +0.190 S 
ENDBRANCH   5   7
ENDBRANCH   1   2
BRANCH   1  17
ATOM     17  C   LIG    1       11.110   2.923  -1.355  0.00  0.00    +0.110 C 
BRANCH  17  20
ATOM     18  N   LIG    1       13.243   2.887  -0.103  0.00  0.00    -0.670 N 
ATOM     19  H   LIG    1       12.754   3.184   0.680  0.00  0.00    +0.420 HD
ATOM     20  C   LIG    1       12.603   2.737  -1.280  0.00  0.00    +0.550 C 
ATOM     21  O   LIG    1       13.230   2.453  -2.279  0.00  0.00    -0.500 OA
BRANCH  18  27
ATOM     22  C   LIG    1       17.901   4.446  -0.357  0.00  0.00    +0.120 C 
ATOM     23  C   LIG    1       16.893   3.349  -0.129  0.00  0.00    -0.060 A 
ATOM     24  C   LIG    1       17.321   2.069   0.172  0.00  0.00    +0.060 A 
ATOM     25  C   LIG    1       16.400   1.060   0.381  0.00  0.00    +0.050 A 
ATOM     26  C   LIG    1       15.047   1.328   0.296  0.00  0.00    -0.020 A 
ATOM     27  C   LIG    1       14.613   2.612  -0.011  0.00  0.00    +0.150 A 
ATOM     28 CL   LIG    1       13.891   0.062   0.566  0.00  0.00    -0.040 Cl
ATOM     29  C   LIG    1       15.541   3.624  -0.221  0.00  0.00    -0.020 A 
ATOM     30 CL   LIG    1       15.005   5.231  -0.599  0.00  0.00    -0.040 Cl
ENDBRANCH  18  27
ENDBRANCH  17  20
ENDBRANCH   1  17
TORSDOF 5
