REMARK  Name = ZINCvU0000000GlV.0
REMARK                            x       y       z     vdW  Elec       q    Type
REMARK                         _______ _______ _______ _____ _____    ______ ____
ROOT
ATOM      1  N   LIG    1        3.815   3.456  -0.390  0.00  0.00    -0.360 N 
ATOM      2  N   LIG    1        5.172   3.761  -0.198  0.00  0.00    -0.290 NA
ATOM      3  C   LIG    1        5.756   2.661   0.225  0.00  0.00    +0.270 A 
ATOM      4  N   LIG    1        4.841   1.689   0.312  0.00  0.00    -0.510 NA
ATOM      5  C   LIG    1        3.666   2.151  -0.060  0.00  0.00    +0.320 A 
ENDROOT
BRANCH   5   6
ATOM      6  C   LIG    1        2.403   1.382  -0.105  0.00  0.00    -0.010 A 
ATOM      7  C   LIG    1        2.169   0.366   0.823  0.00  0.00    +0.110 A 
ATOM      8  C   LIG    1        0.989  -0.349   0.776  0.00  0.00    -0.020 A 
ATOM      9  C   LIG    1        0.038  -0.059  -0.188  0.00  0.00    +0.070 A 
ATOM     10  C   LIG    1        0.265   0.947  -1.111  0.00  0.00    -0.020 A 
ATOM     11 CL   LIG    1       -0.932   1.302  -2.317  0.00  0.00    -0.040 Cl
ATOM     12 CL   LIG    1        0.693  -1.608   1.934  0.00  0.00    -0.040 Cl
ATOM     13  C   LIG    1        1.442   1.669  -1.074  0.00  0.00    +0.050 A 
ENDBRANCH   5   6
BRANCH   3  14
ATOM     14  C   LIG    1        7.196   2.521   0.556  0.00  0.00    -0.030 A 
ATOM     15  C   LIG    1        8.051   3.613   0.429  0.00  0.00    +0.110 A 
ATOM     16  C   LIG    1        9.390   3.478   0.739  0.00  0.00    +0.000 A 
ATOM     17  C   LIG    1        9.882   2.261   1.175  0.00  0.00    +0.140 A 
ATOM     18  C   LIG    1        9.036   1.174   1.304  0.00  0.00    -0.660 A 
ATOM     19  C   LIG    1        7.696   1.299   1.002  0.00  0.00    +0.170 A 
BRANCH  18  20
ATOM     20  S   LIG    1        9.671  -0.372   1.862  0.00  0.00    +2.500 S 
ATOM     21  O   LIG    1       11.043  -0.341   1.494  0.00  0.00    -0.930 OA
ATOM     22  O   LIG    1        8.785  -1.335   1.308  0.00  0.00    -0.930 OA
ATOM     23  C   LIG    1        9.495  -0.309   3.666  0.00  0.00    -0.260 C 
ENDBRANCH  18  20
ENDBRANCH   3  14
BRANCH   1  25
ATOM     24  C   LIG    1        3.034   4.750  -2.312  0.00  0.00    +0.080 C 
ATOM     25  C   LIG    1        2.767   4.368  -0.855  0.00  0.00    +0.310 C 
BRANCH  25  26
ATOM     26  C   LIG    1        2.768   5.610  -0.002  0.00  0.00    -0.070 A 
ATOM     27  C   LIG    1        3.894   6.415   0.079  0.00  0.00    +0.000 A 
ATOM     28  C   LIG    1        3.856   7.549   0.868  0.00  0.00    +0.260 A 
ATOM     29  N   LIG    1        2.769   7.863   1.546  0.00  0.00    -0.480 NA
ATOM     30  C   LIG    1        1.682   7.118   1.497  0.00  0.00    +0.260 A 
ATOM     31  C   LIG    1        1.645   5.972   0.726  0.00  0.00    -0.020 A 
ENDBRANCH  25  26
ENDBRANCH   1  25
TORSDOF 5
