REMARK  Name = ZINCpk00000y6xdL.0
REMARK                            x       y       z     vdW  Elec       q    Type
REMARK                         _______ _______ _______ _____ _____    ______ ____
ROOT
ATOM      1  C   LIG    1       -2.327   7.300   1.549  0.00  0.00    +0.250 C 
ATOM      2  C   LIG    1       -3.025   6.843   0.272  0.00  0.00    +0.020 C 
ATOM      3  C   LIG    1       -2.389   5.692  -0.388  0.00  0.00    +0.010 C 
ATOM      4  C   LIG    1       -0.956   6.060  -0.845  0.00  0.00    +0.260 C 
ATOM      5  N   LIG    1       -0.094   6.183   0.310  0.00  0.00    -0.620 N 
ATOM      6  C   LIG    1        0.105   7.460   1.024  0.00  0.00    +0.290 C 
ATOM      7  C   LIG    1        0.548   5.086   0.756  0.00  0.00    +0.700 C 
ATOM      8  N   LIG    1        0.381   3.905   0.129  0.00  0.00    -0.750 N 
ATOM      9  H   LIG    1       -0.201   3.845  -0.645  0.00  0.00    +0.400 HD
ATOM     10  O   LIG    1        1.278   5.161   1.726  0.00  0.00    -0.590 OA
ATOM     11  C   LIG    1       -1.204   8.244   1.195  0.00  0.00    +0.020 C 
ENDROOT
BRANCH   1  12
ATOM     12  N   LIG    1       -3.289   7.988   2.413  0.00  0.00    -0.990 NA
BRANCH  12  14
ATOM     13  C   LIG    1       -2.424   8.182   5.011  0.00  0.00    -0.290 C 
ATOM     14  S   LIG    1       -3.632   7.384   3.917  0.00  0.00    +2.600 S 
ATOM     15  O   LIG    1       -3.361   5.993   3.806  0.00  0.00    -0.950 OA
ATOM     16  O   LIG    1       -4.943   7.856   4.194  0.00  0.00    -0.950 OA
ENDBRANCH  12  14
BRANCH  12  17
ATOM     17  C   LIG    1       -3.949   9.210   1.947  0.00  0.00    +0.250 C 
ATOM     18  C   LIG    1       -4.216  10.231   3.066  0.00  0.00    -0.010 C 
ATOM     19  C   LIG    1       -5.573  10.496   2.393  0.00  0.00    +0.030 C 
ATOM     20  C   LIG    1       -5.475   9.074   1.815  0.00  0.00    +0.020 C 
ENDBRANCH  12  17
ENDBRANCH   1  12
BRANCH   8  21
ATOM     21  C   LIG    1        1.080   2.712   0.614  0.00  0.00    +0.290 C 
BRANCH  21  22
ATOM     22  C   LIG    1        0.719   1.516  -0.269  0.00  0.00    -0.050 C 
ATOM     23  C   LIG    1        1.430   0.227   0.229  0.00  0.00    +0.030 C 
ATOM     24  C   LIG    1        0.439  -0.861  -0.255  0.00  0.00    +0.200 C 
ATOM     25  O   LIG    1       -0.865  -0.281  -0.089  0.00  0.00    -0.380 OA
ATOM     26  C   LIG    1       -0.772   1.148  -0.114  0.00  0.00    +0.190 C 
ENDBRANCH  21  22
ENDBRANCH   8  21
TORSDOF 5
