REMARK  Name = ZINCpe00000gMIVv.0
REMARK                            x       y       z     vdW  Elec       q    Type
REMARK                         _______ _______ _______ _____ _____    ______ ____
ROOT
ATOM      1  C   LIG    1       -5.395   4.806   0.055  0.00  0.00    +0.390 C 
ENDROOT
BRANCH   1   7
ATOM      2  C   LIG    1       -9.943   4.372  -1.039  0.00  0.00    +0.110 C 
ATOM      3  C   LIG    1       -8.997   5.475  -0.559  0.00  0.00    +0.220 C 
ATOM      4  N   LIG    1       -8.867   5.443   0.908  0.00  0.00    -0.710 N 
ATOM      5  H   LIG    1       -9.577   5.571   1.556  0.00  0.00    +0.440 HD
ATOM      6  C   LIG    1       -7.570   5.202   1.174  0.00  0.00    +0.710 C 
ATOM      7  N   LIG    1       -6.836   5.072   0.063  0.00  0.00    -0.560 N 
ATOM      8  O   LIG    1       -7.117   5.112   2.298  0.00  0.00    -0.530 OA
ATOM      9  C   LIG    1       -7.585   5.221  -1.048  0.00  0.00    +0.540 C 
ATOM     10  O   LIG    1       -7.207   5.163  -2.198  0.00  0.00    -0.440 OA
BRANCH   3  11
ATOM     11  C   LIG    1       -9.482   6.825  -1.019  0.00  0.00    -0.040 A 
ATOM     12  C   LIG    1      -10.303   7.641  -0.334  0.00  0.00    -0.020 A 
ATOM     13  C   LIG    1      -10.492   8.794  -1.131  0.00  0.00    -0.060 A 
ATOM     14  C   LIG    1       -9.782   8.610  -2.258  0.00  0.00    +0.190 A 
ATOM     15  O   LIG    1       -9.172   7.415  -2.185  0.00  0.00    -0.160 OA
ENDBRANCH   3  11
ENDBRANCH   1   7
BRANCH   1  16
ATOM     16  C   LIG    1       -5.159   3.318   0.045  0.00  0.00    +0.490 C 
ATOM     17  N   LIG    1       -3.901   2.836   0.037  0.00  0.00    -0.620 N 
ATOM     18  H   LIG    1       -3.147   3.446   0.037  0.00  0.00    +0.440 HD
ATOM     19  O   LIG    1       -6.101   2.554   0.045  0.00  0.00    -0.490 OA
BRANCH  17  20
ATOM     20  C   LIG    1       -3.683   1.466   0.028  0.00  0.00    +0.080 A 
ATOM     21  C   LIG    1       -2.447   0.874   0.018  0.00  0.00    -0.240 A 
ATOM     22  C   LIG    1       -2.518  -0.571   0.005  0.00  0.00    +0.060 A 
ATOM     23  C   LIG    1       -3.761  -1.032   0.014  0.00  0.00    -0.110 A 
ATOM     24  S   LIG    1       -4.915   0.289   0.027  0.00  0.00    +0.300 S 
BRANCH  21  25
ATOM     25  C   LIG    1       -1.187   1.624   0.017  0.00  0.00    +0.600 C 
ATOM     26  O   LIG    1       -1.204   2.841   0.023  0.00  0.00    -0.560 OA
ATOM     27  N   LIG    1       -0.011   0.966   0.007  0.00  0.00    -0.850 N 
ATOM     28  H   LIG    1        0.822   1.462   0.002  0.00  0.00    +0.410 HD
ATOM     29  H   LIG    1        0.002  -0.004   0.002  0.00  0.00    +0.400 HD
ENDBRANCH  21  25
ENDBRANCH  17  20
ENDBRANCH   1  16
TORSDOF 5
