REMARK  Name = ZINCpe000000TGY5.0
REMARK                            x       y       z     vdW  Elec       q    Type
REMARK                         _______ _______ _______ _____ _____    ______ ____
ROOT
ATOM      1  C   LIG    1       -2.998   8.055   6.584  0.00  0.00    +0.650 C 
ATOM      2  N   LIG    1       -3.262   6.881   5.977  0.00  0.00    -0.600 N 
ATOM      3  C   LIG    1       -4.231   5.940   6.557  0.00  0.00    +0.300 C 
ATOM      4  C   LIG    1       -3.543   4.582   6.746  0.00  0.00    +0.290 C 
ATOM      5  N   LIG    1       -2.867   4.220   5.492  0.00  0.00    -0.610 N 
ATOM      6  C   LIG    1       -1.894   5.158   4.915  0.00  0.00    +0.270 C 
ATOM      7  C   LIG    1       -3.130   3.046   4.886  0.00  0.00    +0.560 C 
ATOM      8  O   LIG    1       -4.009   2.323   5.315  0.00  0.00    -0.520 OA
ATOM      9  C   LIG    1       -2.586   6.518   4.723  0.00  0.00    +0.290 C 
ATOM     10  O   LIG    1       -3.564   8.344   7.620  0.00  0.00    -0.570 OA
ENDROOT
BRANCH   7  11
ATOM     11  C   LIG    1       -2.351   2.636   3.698  0.00  0.00    -0.070 A 
ATOM     12  C   LIG    1       -2.995   2.059   2.602  0.00  0.00    +0.050 A 
ATOM     13  C   LIG    1       -2.261   1.680   1.496  0.00  0.00    +0.130 A 
ATOM     14  C   LIG    1       -0.891   1.869   1.473  0.00  0.00    -0.660 A 
ATOM     15  C   LIG    1       -0.246   2.434   2.559  0.00  0.00    +0.130 A 
ATOM     16  C   LIG    1       -0.968   2.824   3.668  0.00  0.00    +0.030 A 
BRANCH  14  17
ATOM     17  S   LIG    1        0.038   1.382   0.057  0.00  0.00    +2.690 S 
ATOM     18  O   LIG    1        1.370   1.173   0.504  0.00  0.00    -0.950 OA
ATOM     19  O   LIG    1       -0.728   0.381  -0.600  0.00  0.00    -0.950 OA
BRANCH  17  20
ATOM     20  N   LIG    1        0.087   2.681  -0.968  0.00  0.00    -1.000 NA
ATOM     21  C   LIG    1       -0.956   2.854  -1.982  0.00  0.00    +0.310 C 
ATOM     22  C   LIG    1        1.174   3.658  -0.861  0.00  0.00    +0.300 C 
ENDBRANCH  17  20
ENDBRANCH  14  17
ENDBRANCH   7  11
BRANCH   1  23
ATOM     23  O   LIG    1       -2.108   8.908   6.042  0.00  0.00    -0.370 OA
BRANCH  23  25
ATOM     24  C   LIG    1       -0.841  10.986   5.988  0.00  0.00    +0.070 C 
ATOM     25  C   LIG    1       -1.874  10.154   6.750  0.00  0.00    +0.220 C 
ENDBRANCH  23  25
ENDBRANCH   1  23
TORSDOF 5
