REMARK  Name = ZINCrg000000rRWG.0
REMARK                            x       y       z     vdW  Elec       q    Type
REMARK                         _______ _______ _______ _____ _____    ______ ____
ROOT
ATOM      1  C   LIG    1        5.992   0.297  -3.991  0.00  0.00    -0.230 A 
ATOM      2  C   LIG    1        5.262  -0.168  -5.090  0.00  0.00    +0.390 A 
ATOM      3  N   LIG    1        5.856  -0.494  -6.218  0.00  0.00    -0.500 NA
ATOM      4  C   LIG    1        7.170  -0.408  -6.364  0.00  0.00    +0.430 A 
ATOM      5  C   LIG    1        7.975   0.046  -5.300  0.00  0.00    -0.250 A 
ATOM      6  C   LIG    1        9.431   0.127  -5.507  0.00  0.00    +0.570 A 
ATOM      7  N   LIG    1        9.926  -0.241  -6.709  0.00  0.00    -0.660 N 
ATOM      8  H   LIG    1       10.882  -0.196  -6.866  0.00  0.00    +0.440 HD
ATOM      9  C   LIG    1        9.116  -0.668  -7.690  0.00  0.00    +0.710 A 
ATOM     10  O   LIG    1        9.610  -0.987  -8.754  0.00  0.00    -0.510 OA
ATOM     11  O   LIG    1       10.168   0.512  -4.619  0.00  0.00    -0.480 OA
ATOM     12  N   LIG    1        7.783  -0.758  -7.551  0.00  0.00    -0.500 N 
ATOM     13  C   LIG    1        7.384   0.406  -4.095  0.00  0.00    +0.260 A 
ENDROOT
BRANCH   1  20
ATOM     14  C   LIG    1        3.903   3.838  -1.515  0.00  0.00    +0.030 C 
ATOM     15  C   LIG    1        2.746   2.840  -1.589  0.00  0.00    +0.140 C 
ATOM     16  C   LIG    1        3.298   1.411  -1.537  0.00  0.00    +0.290 C 
ATOM     17  N   LIG    1        4.051   1.159  -2.775  0.00  0.00    -0.610 N 
ATOM     18  C   LIG    1        3.397   1.465  -4.057  0.00  0.00    +0.250 C 
ATOM     19  C   LIG    1        2.840   2.892  -3.987  0.00  0.00    +0.210 C 
ATOM     20  C   LIG    1        5.304   0.663  -2.737  0.00  0.00    +0.570 C 
ATOM     21  O   LIG    1        5.867   0.516  -1.670  0.00  0.00    -0.520 OA
ATOM     22  O   LIG    1        2.033   3.025  -2.814  0.00  0.00    -0.360 OA
BRANCH  15  23
ATOM     23  C   LIG    1        1.799   3.065  -0.408  0.00  0.00    -0.030 C 
ATOM     24  C   LIG    1        1.139   4.440  -0.284  0.00  0.00    +0.030 C 
ATOM     25  C   LIG    1        0.310   3.229  -0.717  0.00  0.00    +0.040 C 
ENDBRANCH  15  23
ENDBRANCH   1  20
BRANCH  12  26
ATOM     26  C   LIG    1        6.969  -1.235  -8.672  0.00  0.00    +0.210 C 
ATOM     27  C   LIG    1        5.915  -2.303  -8.376  0.00  0.00    +0.070 C 
ATOM     28  C   LIG    1        7.187  -2.675  -9.141  0.00  0.00    +0.050 C 
ENDBRANCH  12  26
TORSDOF 3
