REMARK  Name = ZINCrH000004nciM.0
REMARK                            x       y       z     vdW  Elec       q    Type
REMARK                         _______ _______ _______ _____ _____    ______ ____
ROOT
ATOM      1  C   LIG    1       -3.651   2.231  -1.393  0.00  0.00    +0.520 C 
ATOM      2  N   LIG    1       -3.694   3.002  -0.288  0.00  0.00    -0.700 N 
ATOM      3  H   LIG    1       -4.477   2.987   0.284  0.00  0.00    +0.400 HD
ATOM      4  O   LIG    1       -2.672   2.251  -2.109  0.00  0.00    -0.520 OA
ENDROOT
BRANCH   2   5
ATOM      5  C   LIG    1       -2.558   3.865   0.047  0.00  0.00    +0.210 C 
ATOM      6  C   LIG    1       -2.535   5.187  -0.737  0.00  0.00    +0.020 C 
ATOM      7  C   LIG    1       -3.388   5.782   0.399  0.00  0.00    +0.010 C 
ATOM      8  C   LIG    1       -2.777   4.707   1.315  0.00  0.00    +0.050 C 
BRANCH   5   9
ATOM      9  C   LIG    1       -1.242   3.131   0.031  0.00  0.00    -0.110 A 
ATOM     10  C   LIG    1       -0.346   3.340  -1.000  0.00  0.00    +0.090 A 
ATOM     11  C   LIG    1        0.859   2.663  -1.019  0.00  0.00    -0.040 A 
ATOM     12  C   LIG    1        1.177   1.783  -0.001  0.00  0.00    +0.040 A 
ATOM     13  C   LIG    1        0.287   1.574   1.036  0.00  0.00    -0.090 A 
ATOM     14  C   LIG    1       -0.925   2.248   1.054  0.00  0.00    +0.140 A 
BRANCH  14  15
ATOM     15  O   LIG    1       -1.802   2.044   2.072  0.00  0.00    -0.310 OA
ATOM     16  C   LIG    1       -1.411   1.122   3.090  0.00  0.00    +0.230 C 
ENDBRANCH  14  15
ENDBRANCH   5   9
ENDBRANCH   2   5
BRANCH   1  17
ATOM     17  C   LIG    1       -4.820   1.344  -1.738  0.00  0.00    +0.070 C 
BRANCH  17  25
ATOM     18  C   LIG    1       -7.496  -2.310  -3.961  0.00  0.00    +0.170 A 
ATOM     19  C   LIG    1       -7.802  -1.001  -4.305  0.00  0.00    -0.110 A 
ATOM     20  C   LIG    1       -6.894   0.008  -4.038  0.00  0.00    +0.110 A 
ATOM     21  C   LIG    1       -5.693  -0.287  -3.434  0.00  0.00    -0.210 A 
ATOM     22  C   LIG    1       -5.376  -1.593  -3.076  0.00  0.00    +0.150 A 
ATOM     23  O   LIG    1       -4.152  -1.659  -2.484  0.00  0.00    -0.300 OA
ATOM     24  C   LIG    1       -3.406  -0.471  -2.801  0.00  0.00    +0.250 C 
ATOM     25  C   LIG    1       -4.517   0.581  -3.029  0.00  0.00    +0.050 C 
ATOM     26  C   LIG    1       -6.289  -2.606  -3.350  0.00  0.00    -0.040 A 
BRANCH  18  28
ATOM     27  C   LIG    1       -9.609  -2.929  -4.856  0.00  0.00    +0.250 C 
ATOM     28  O   LIG    1       -8.384  -3.304  -4.224  0.00  0.00    -0.310 OA
ENDBRANCH  18  28
ENDBRANCH  17  25
ENDBRANCH   1  17
TORSDOF 6
