REMARK  Name = ZINCrD0000074vTO.0
REMARK                            x       y       z     vdW  Elec       q    Type
REMARK                         _______ _______ _______ _____ _____    ______ ____
ROOT
ATOM      1  N   LIG    1       -0.689  -0.233  -2.333  0.00  0.00    -0.700 N 
ATOM      2  H   LIG    1        0.223  -0.562  -2.329  0.00  0.00    +0.410 HD
ATOM      3  C   LIG    1       -1.513  -0.543  -3.354  0.00  0.00    +0.580 C 
ATOM      4  O   LIG    1       -2.656  -0.131  -3.360  0.00  0.00    -0.520 OA
ENDROOT
BRANCH   3   5
ATOM      5  C   LIG    1       -1.024  -1.387  -4.471  0.00  0.00    +0.130 A 
ATOM      6  N   LIG    1        0.220  -1.826  -4.450  0.00  0.00    -0.440 NA
ATOM      7  C   LIG    1        0.704  -2.587  -5.432  0.00  0.00    +0.130 A 
ATOM      8  C   LIG    1        2.032  -3.051  -5.403  0.00  0.00    +0.060 A 
ATOM      9  C   LIG    1        2.500  -3.825  -6.419  0.00  0.00    +0.050 A 
ATOM     10  C   LIG    1        1.683  -4.170  -7.495  0.00  0.00    +0.040 A 
ATOM     11  C   LIG    1        0.392  -3.741  -7.559  0.00  0.00    +0.040 A 
ATOM     12  C   LIG    1       -0.125  -2.940  -6.528  0.00  0.00    -0.080 A 
ATOM     13  C   LIG    1       -1.456  -2.478  -6.560  0.00  0.00    +0.020 A 
ATOM     14 CL   LIG    1       -2.509  -2.882  -7.879  0.00  0.00    -0.030 Cl
ATOM     15  C   LIG    1       -1.896  -1.704  -5.522  0.00  0.00    +0.040 A 
ENDBRANCH   3   5
BRANCH   1  20
ATOM     16  N   LIG    1       -0.822   1.159   1.129  0.00  0.00    -0.480 N 
ATOM     17  C   LIG    1       -0.644   2.583   0.815  0.00  0.00    +0.190 C 
ATOM     18  C   LIG    1       -1.474   2.942  -0.420  0.00  0.00    +0.050 C 
ATOM     19  C   LIG    1       -1.022   2.079  -1.601  0.00  0.00    +0.020 C 
ATOM     20  C   LIG    1       -1.173   0.601  -1.230  0.00  0.00    +0.250 C 
ATOM     21  C   LIG    1       -0.351   0.309   0.028  0.00  0.00    +0.210 C 
BRANCH  16  26
ATOM     22  C   LIG    1        2.651  -0.235   4.427  0.00  0.00    +0.160 C 
ATOM     23  C   LIG    1        1.345   0.208   3.820  0.00  0.00    +0.080 A 
ATOM     24  N   LIG    1        0.235   0.437   4.473  0.00  0.00    -0.290 NA
ATOM     25  N   LIG    1       -0.744   0.834   3.554  0.00  0.00    -0.360 N 
ATOM     26  C   LIG    1       -0.186   0.828   2.322  0.00  0.00    +0.260 A 
ATOM     27  C   LIG    1       -2.130   1.189   3.871  0.00  0.00    +0.370 C 
ATOM     28  C   LIG    1        1.113   0.446   2.462  0.00  0.00    -0.150 A 
ENDBRANCH  16  26
ENDBRANCH   1  20
TORSDOF 3
