REMARK  Name = ZINCrg000000pnqE.0
REMARK                            x       y       z     vdW  Elec       q    Type
REMARK                         _______ _______ _______ _____ _____    ______ ____
ROOT
ATOM      1  C   LIG    1        5.367   1.153   3.334  0.00  0.00    +0.510 C 
ATOM      2  O   LIG    1        5.985   2.035   3.896  0.00  0.00    -0.500 OA
ENDROOT
BRANCH   1   7
ATOM      3  C   LIG    1        5.135  -1.431   6.049  0.00  0.00    -0.690 A 
ATOM      4  C   LIG    1        4.429  -2.433   5.407  0.00  0.00    +0.160 A 
ATOM      5  C   LIG    1        4.028  -2.272   4.092  0.00  0.00    +0.000 A 
ATOM      6  C   LIG    1        4.325  -1.108   3.415  0.00  0.00    +0.140 A 
ATOM      7  C   LIG    1        5.041  -0.095   4.055  0.00  0.00    -0.150 A 
ATOM      8  C   LIG    1        5.443  -0.263   5.382  0.00  0.00    +0.210 A 
BRANCH   3   9
ATOM      9  S   LIG    1        5.641  -1.646   7.723  0.00  0.00    +2.700 S 
ATOM     10  O   LIG    1        6.752  -0.783   7.920  0.00  0.00    -0.950 OA
ATOM     11  O   LIG    1        5.696  -3.048   7.949  0.00  0.00    -0.950 OA
BRANCH   9  13
ATOM     12  C   LIG    1        3.113  -1.724   8.682  0.00  0.00    +0.300 C 
ATOM     13  N   LIG    1        4.422  -1.065   8.682  0.00  0.00    -1.120 NA
ATOM     14  H   LIG    1        4.575  -0.289   9.244  0.00  0.00    +0.420 HD
ENDBRANCH   9  13
ENDBRANCH   3   9
ENDBRANCH   1   7
BRANCH   1  15
ATOM     15  O   LIG    1        4.977   1.313   2.055  0.00  0.00    -0.350 OA
BRANCH  15  16
ATOM     16  C   LIG    1        5.332   2.564   1.409  0.00  0.00    +0.230 C 
BRANCH  16  17
ATOM     17  C   LIG    1        4.809   2.562  -0.029  0.00  0.00    +0.340 C 
BRANCH  17  18
ATOM     18  N   LIG    1        3.345   2.534  -0.016  0.00  0.00    -0.580 N 
ATOM     19  C   LIG    1        2.605   1.411  -0.015  0.00  0.00    +0.580 C 
ATOM     20  C   LIG    1        1.176   1.788   0.000  0.00  0.00    -0.140 A 
ATOM     21  C   LIG    1       -0.013   1.076   0.008  0.00  0.00    +0.100 A 
ATOM     22  C   LIG    1       -1.221   1.756   0.017  0.00  0.00    +0.050 A 
ATOM     23  C   LIG    1       -1.247   3.137   0.031  0.00  0.00    +0.050 A 
ATOM     24  C   LIG    1       -0.066   3.863   0.023  0.00  0.00    +0.100 A 
ATOM     25  C   LIG    1        1.149   3.197   0.008  0.00  0.00    -0.140 A 
ATOM     26  O   LIG    1        3.039   0.276  -0.024  0.00  0.00    -0.450 OA
ATOM     27  C   LIG    1        2.563   3.628  -0.003  0.00  0.00    +0.570 C 
ATOM     28  O   LIG    1        2.953   4.779  -0.002  0.00  0.00    -0.460 OA
ENDBRANCH  17  18
ENDBRANCH  16  17
ENDBRANCH  15  16
ENDBRANCH   1  15
TORSDOF 7
