REMARK  Name = ZINCpk00001AZjbq.0
REMARK                            x       y       z     vdW  Elec       q    Type
REMARK                         _______ _______ _______ _____ _____    ______ ____
ROOT
ATOM      1  C   LIG    1        4.759   1.201  -0.037  0.00  0.00    +0.600 C 
ATOM      2  N   LIG    1        3.583   1.859  -0.022  0.00  0.00    -0.500 N 
ATOM      3  H   LIG    1        3.570   2.829  -0.017  0.00  0.00    +0.440 HD
ATOM      4  O   LIG    1        4.775  -0.015  -0.044  0.00  0.00    -0.520 OA
ENDROOT
BRANCH   1   8
ATOM      5  C   LIG    1        6.907   5.450  -0.034  0.00  0.00    +0.360 C 
ATOM      6  N   LIG    1        7.071   3.995  -0.044  0.00  0.00    -0.360 N 
ATOM      7  N   LIG    1        6.019   3.267  -0.038  0.00  0.00    -0.190 NA
ATOM      8  C   LIG    1        6.027   1.956  -0.045  0.00  0.00    +0.060 A 
ATOM      9  C   LIG    1        7.317   1.247  -0.055  0.00  0.00    -0.030 A 
ATOM     10  C   LIG    1        7.413  -0.140  -0.069  0.00  0.00    +0.070 A 
ATOM     11  C   LIG    1        8.659  -0.732  -0.083  0.00  0.00    +0.060 A 
ATOM     12  C   LIG    1        9.812   0.040  -0.090  0.00  0.00    +0.030 A 
ATOM     13  C   LIG    1        9.739   1.417  -0.082  0.00  0.00    +0.090 A 
ATOM     14  C   LIG    1        8.492   2.033  -0.068  0.00  0.00    -0.140 A 
ATOM     15  C   LIG    1        8.323   3.493  -0.058  0.00  0.00    +0.520 A 
ATOM     16  O   LIG    1        9.290   4.232  -0.064  0.00  0.00    -0.490 OA
ENDBRANCH   1   8
BRANCH   2  17
ATOM     17  N   LIG    1        2.379   1.142  -0.015  0.00  0.00    -0.520 N 
ATOM     18  H   LIG    1        2.392   0.172  -0.020  0.00  0.00    +0.430 HD
ATOM     19  C   LIG    1        1.203   1.800   0.000  0.00  0.00    +0.560 C 
ATOM     20  O   LIG    1        1.186   3.018   0.007  0.00  0.00    -0.540 OA
BRANCH  19  21
ATOM     21  C   LIG    1       -0.013   1.076   0.008  0.00  0.00    -0.110 C 
ATOM     22  C   LIG    1       -1.196   1.738   0.017  0.00  0.00    +0.200 C 
BRANCH  22  23
ATOM     23  C   LIG    1       -2.413   1.014   0.019  0.00  0.00    -0.220 A 
ATOM     24  C   LIG    1       -3.667   1.565   0.033  0.00  0.00    +0.070 A 
ATOM     25  C   LIG    1       -4.672   0.627   0.027  0.00  0.00    -0.010 A 
ATOM     26  C   LIG    1       -4.260  -0.646   0.019  0.00  0.00    -0.060 A 
ATOM     27  S   LIG    1       -2.557  -0.739   0.011  0.00  0.00    +0.210 S 
ENDBRANCH  22  23
ENDBRANCH  19  21
ENDBRANCH   2  17
TORSDOF 4
