REMARK  Name = ZINCpe00000zssno.0
REMARK                            x       y       z     vdW  Elec       q    Type
REMARK                         _______ _______ _______ _____ _____    ______ ____
ROOT
ATOM      1  O   LIG    1       -2.712  -2.430  -5.277  0.00  0.00    -0.500 OA
ATOM      2  C   LIG    1       -3.347  -1.882  -4.398  0.00  0.00    +0.570 C 
ATOM      3  N   LIG    1       -2.874  -0.756  -3.827  0.00  0.00    -0.610 N 
ATOM      4  C   LIG    1       -1.539  -0.232  -4.159  0.00  0.00    +0.310 C 
ATOM      5  C   LIG    1       -1.714   1.159  -4.777  0.00  0.00    +0.280 C 
ATOM      6  N   LIG    1       -2.630   1.964  -3.981  0.00  0.00    -0.600 N 
ATOM      7  C   LIG    1       -3.543   1.468  -3.145  0.00  0.00    +0.500 C 
ATOM      8  O   LIG    1       -4.306   2.236  -2.599  0.00  0.00    -0.510 OA
ATOM      9  C   LIG    1       -3.671  -0.002  -2.848  0.00  0.00    +0.320 C 
ENDROOT
BRANCH   2  10
ATOM     10  C   LIG    1       -4.638  -2.449  -3.955  0.00  0.00    -0.150 A 
ATOM     11  C   LIG    1       -4.930  -2.518  -2.603  0.00  0.00    +0.150 A 
ATOM     12  C   LIG    1       -6.158  -3.057  -2.188  0.00  0.00    +0.060 A 
ATOM     13  N   LIG    1       -6.470  -3.136  -0.889  0.00  0.00    -0.410 NA
ATOM     14  C   LIG    1       -7.624  -3.645  -0.526  0.00  0.00    +0.260 A 
ATOM     15  C   LIG    1       -8.533  -4.105  -1.482  0.00  0.00    +0.280 A 
ATOM     16  N   LIG    1       -8.251  -4.037  -2.763  0.00  0.00    -0.430 NA
ATOM     17  C   LIG    1       -7.081  -3.523  -3.159  0.00  0.00    +0.120 A 
ATOM     18  C   LIG    1       -6.756  -3.440  -4.524  0.00  0.00    +0.040 A 
ATOM     19  C   LIG    1       -5.564  -2.910  -4.910  0.00  0.00    +0.170 A 
ATOM     20  F   LIG    1       -5.263  -2.830  -6.225  0.00  0.00    -0.110 F 
ENDBRANCH   2  10
BRANCH   6  21
ATOM     21  C   LIG    1       -2.546   3.421  -4.111  0.00  0.00    +0.220 C 
ATOM     22  C   LIG    1       -3.917   4.008  -4.524  0.00  0.00    +0.020 C 
ATOM     23  C   LIG    1       -3.995   5.291  -3.657  0.00  0.00    +0.200 C 
ATOM     24  O   LIG    1       -3.381   4.896  -2.410  0.00  0.00    -0.360 OA
ATOM     25  C   LIG    1       -2.254   4.068  -2.743  0.00  0.00    +0.190 C 
ENDBRANCH   6  21
TORSDOF 2
