REMARK  Name = ZINCpe00000VVGWX.1
REMARK                            x       y       z     vdW  Elec       q    Type
REMARK                         _______ _______ _______ _____ _____    ______ ____
ROOT
ATOM      1  C   LIG    1       -0.349   3.178   1.991  0.00  0.00    +0.590 C 
ATOM      2  N   LIG    1       -1.425   2.632   1.391  0.00  0.00    -0.590 N 
ATOM      3  C   LIG    1       -1.952   1.335   1.837  0.00  0.00    +0.260 C 
ATOM      4  C   LIG    1       -2.046   0.399   0.627  0.00  0.00    +0.020 C 
ATOM      5  C   LIG    1       -2.874   1.071  -0.470  0.00  0.00    +0.030 C 
ATOM      6  C   LIG    1       -2.185   2.364  -0.913  0.00  0.00    -0.020 C 
ATOM      7  C   LIG    1       -2.093   3.323   0.279  0.00  0.00    +0.290 C 
ATOM      8  O   LIG    1        0.063   4.264   1.630  0.00  0.00    -0.520 OA
ENDROOT
BRANCH   1  11
ATOM      9  N   LIG    1        1.235   0.519   3.865  0.00  0.00    -0.340 N 
ATOM     10  N   LIG    1        0.639   1.188   2.945  0.00  0.00    -0.180 NA
ATOM     11  C   LIG    1        0.332   2.457   3.088  0.00  0.00    +0.020 A 
ATOM     12  C   LIG    1        0.644   3.135   4.291  0.00  0.00    +0.120 A 
ATOM     13  C   LIG    1        1.271   2.438   5.280  0.00  0.00    -0.010 A 
ATOM     14  C   LIG    1        1.572   1.078   5.043  0.00  0.00    +0.480 A 
ATOM     15  O   LIG    1        2.132   0.414   5.899  0.00  0.00    -0.520 OA
BRANCH   9  16
ATOM     16  C   LIG    1        1.551  -0.892   3.630  0.00  0.00    +0.320 C 
BRANCH  16  18
ATOM     17  C   LIG    1        0.711  -3.235   3.847  0.00  0.00    +0.030 C 
ATOM     18  C   LIG    1        0.381  -1.761   4.093  0.00  0.00    +0.000 C 
ENDBRANCH  16  18
ENDBRANCH   9  16
ENDBRANCH   1  11
BRANCH   6  19
ATOM     19  C   LIG    1       -2.996   3.018  -2.033  0.00  0.00    +0.180 C 
BRANCH  19  20
ATOM     20  N   LIG    1       -2.972   2.155  -3.222  0.00  0.00    -0.530 NA
ATOM     21  C   LIG    1       -1.651   2.183  -3.867  0.00  0.00    +0.150 C 
ATOM     22  C   LIG    1       -1.653   1.227  -5.063  0.00  0.00    +0.220 C 
ATOM     23  O   LIG    1       -2.701   1.598  -5.961  0.00  0.00    -0.390 OA
ATOM     24  C   LIG    1       -4.002   1.581  -5.367  0.00  0.00    +0.220 C 
ATOM     25  C   LIG    1       -4.024   2.541  -4.174  0.00  0.00    +0.150 C 
ENDBRANCH  19  20
ENDBRANCH   6  19
TORSDOF 5
