REMARK  Name = ZINCrD00000hQ5lM.0
REMARK                            x       y       z     vdW  Elec       q    Type
REMARK                         _______ _______ _______ _____ _____    ______ ____
ROOT
ATOM      1  C   LIG    1       -0.409   3.915   2.304  0.00  0.00    +0.210 C 
ATOM      2  C   LIG    1        1.047   4.209   2.559  0.00  0.00    +0.160 A 
ATOM      3  C   LIG    1        2.043   4.091   1.654  0.00  0.00    -0.780 A 
ATOM      4  C   LIG    1        3.235   4.454   2.302  0.00  0.00    +0.150 A 
ATOM      5  C   LIG    1        2.899   4.787   3.583  0.00  0.00    -0.090 A 
ATOM      6  O   LIG    1        1.566   4.628   3.720  0.00  0.00    -0.150 OA
ENDROOT
BRANCH   5   7
ATOM      7  C   LIG    1        3.826   5.234   4.628  0.00  0.00    +0.610 C 
ATOM      8  N   LIG    1        3.362   5.527   5.859  0.00  0.00    -0.690 N 
ATOM      9  H   LIG    1        2.416   5.442   6.054  0.00  0.00    +0.410 HD
ATOM     10  O   LIG    1        5.013   5.340   4.384  0.00  0.00    -0.510 OA
BRANCH   8  11
ATOM     11  C   LIG    1        4.288   5.973   6.903  0.00  0.00    +0.240 C 
ATOM     12  C   LIG    1        3.852   7.151   7.777  0.00  0.00    +0.040 C 
ATOM     13  C   LIG    1        3.879   5.736   8.358  0.00  0.00    +0.000 C 
BRANCH  13  14
ATOM     14  C   LIG    1        2.555   5.061   8.608  0.00  0.00    -0.040 A 
ATOM     15  C   LIG    1        1.386   5.644   8.156  0.00  0.00    +0.000 A 
ATOM     16  C   LIG    1        0.171   5.022   8.381  0.00  0.00    +0.040 A 
ATOM     17  C   LIG    1        0.124   3.823   9.066  0.00  0.00    +0.030 A 
ATOM     18  C   LIG    1        1.294   3.242   9.523  0.00  0.00    -0.030 A 
ATOM     19 CL   LIG    1        1.236   1.735  10.384  0.00  0.00    -0.060 Cl
ATOM     20  C   LIG    1        2.509   3.861   9.293  0.00  0.00    +0.040 A 
ENDBRANCH  13  14
ENDBRANCH   8  11
ENDBRANCH   5   7
BRANCH   3  21
ATOM     21  S   LIG    1        1.879   3.573  -0.022  0.00  0.00    +2.740 S 
ATOM     22  O   LIG    1        0.807   4.326  -0.572  0.00  0.00    -0.950 OA
ATOM     23  O   LIG    1        3.190   3.571  -0.571  0.00  0.00    -0.940 OA
BRANCH  21  24
ATOM     24  N   LIG    1        1.379   1.995  -0.000  0.00  0.00    -1.010 NA
ATOM     25  C   LIG    1       -0.019   1.539   0.011  0.00  0.00    +0.260 C 
ATOM     26  C   LIG    1        0.002  -0.004   0.002  0.00  0.00    +0.030 C 
ATOM     27  C   LIG    1        1.401  -0.329  -0.584  0.00  0.00    +0.040 C 
ATOM     28  C   LIG    1        2.261   0.814   0.011  0.00  0.00    +0.270 C 
ENDBRANCH  21  24
ENDBRANCH   3  21
TORSDOF 5
