REMARK  Name = ZINCqH0000036J3L.0
REMARK                            x       y       z     vdW  Elec       q    Type
REMARK                         _______ _______ _______ _____ _____    ______ ____
ROOT
ATOM      1  N   LIG    1       -6.968  -0.364  -0.240  0.00  0.00    -0.710 N 
ATOM      2  H   LIG    1       -6.646   0.400  -0.743  0.00  0.00    +0.410 HD
ATOM      3  C   LIG    1       -7.924  -1.159  -0.760  0.00  0.00    +0.600 C 
ATOM      4  O   LIG    1       -8.328  -2.117  -0.129  0.00  0.00    -0.530 OA
ENDROOT
BRANCH   3   5
ATOM      5  C   LIG    1       -8.480  -0.867  -2.092  0.00  0.00    +0.010 A 
ATOM      6  C   LIG    1       -9.437  -1.633  -2.662  0.00  0.00    -0.020 A 
ATOM      7  S   LIG    1       -9.833  -0.987  -4.195  0.00  0.00    +0.200 S 
ATOM      8  C   LIG    1       -8.653   0.301  -3.976  0.00  0.00    +0.100 A 
ATOM      9  N   LIG    1       -8.076   0.164  -2.821  0.00  0.00    -0.440 NA
BRANCH   8  10
ATOM     10  C   LIG    1       -8.364   1.371  -4.955  0.00  0.00    -0.030 A 
ATOM     11  C   LIG    1       -7.407   2.345  -4.667  0.00  0.00    +0.060 A 
ATOM     12  C   LIG    1       -7.138   3.337  -5.587  0.00  0.00    +0.010 A 
ATOM     13  C   LIG    1       -7.824   3.376  -6.788  0.00  0.00    +0.030 A 
ATOM     14  C   LIG    1       -8.778   2.417  -7.077  0.00  0.00    +0.010 A 
ATOM     15  C   LIG    1       -9.052   1.415  -6.168  0.00  0.00    +0.030 A 
ENDBRANCH   8  10
ENDBRANCH   3   5
BRANCH   1  17
ATOM     16  C   LIG    1       -7.309  -0.032   2.159  0.00  0.00    +0.040 C 
ATOM     17  C   LIG    1       -6.414  -0.654   1.085  0.00  0.00    +0.290 C 
BRANCH  17  18
ATOM     18  C   LIG    1       -5.027  -0.074   1.188  0.00  0.00    -0.040 A 
ATOM     19  C   LIG    1       -4.027  -0.783   1.826  0.00  0.00    +0.010 A 
ATOM     20  C   LIG    1       -2.755  -0.251   1.921  0.00  0.00    +0.130 A 
ATOM     21  C   LIG    1       -2.483   0.992   1.379  0.00  0.00    -0.660 A 
ATOM     22  C   LIG    1       -3.485   1.704   0.746  0.00  0.00    +0.130 A 
ATOM     23  C   LIG    1       -4.756   1.169   0.646  0.00  0.00    +0.000 A 
BRANCH  21  24
ATOM     24  S   LIG    1       -0.862   1.671   1.500  0.00  0.00    +2.500 S 
ATOM     25  O   LIG    1       -1.065   3.076   1.440  0.00  0.00    -0.940 OA
ATOM     26  O   LIG    1       -0.312   1.059   2.659  0.00  0.00    -0.940 OA
ATOM     27  C   LIG    1       -0.013   1.086   0.008  0.00  0.00    -0.260 C 
ENDBRANCH  21  24
ENDBRANCH  17  18
ENDBRANCH   1  17
TORSDOF 5
