REMARK  Name = ZINCvU0000000DOX.0
REMARK                            x       y       z     vdW  Elec       q    Type
REMARK                         _______ _______ _______ _____ _____    ______ ____
ROOT
ATOM      1  C   LIG    1        1.446  -0.506   5.865  0.00  0.00    +0.100 C 
ATOM      2  N   LIG    1        0.638   0.162   5.109  0.00  0.00    -0.190 NA
ATOM      3  N   LIG    1        0.392   1.446   5.561  0.00  0.00    -0.540 N 
ATOM      4  C   LIG    1        0.947   1.582   6.929  0.00  0.00    +0.270 C 
ATOM      5  C   LIG    1        1.743   2.861   6.942  0.00  0.00    -0.150 A 
ATOM      6  C   LIG    1        2.637   3.086   7.972  0.00  0.00    +0.090 A 
ATOM      7  C   LIG    1        3.348   4.270   8.034  0.00  0.00    -0.120 A 
ATOM      8  C   LIG    1        3.162   5.233   7.058  0.00  0.00    +0.090 A 
ATOM      9  C   LIG    1        2.279   5.008   6.024  0.00  0.00    +0.000 A 
ATOM     10 BR   LIG    1        4.569   4.572   9.446  0.00  0.00    -0.040 Br
ATOM     11  C   LIG    1        1.564   3.813   5.949  0.00  0.00    +0.160 A 
ATOM     12  O   LIG    1        0.727   3.652   4.891  0.00  0.00    -0.300 OA
ATOM     13  C   LIG    1       -0.224   2.591   4.892  0.00  0.00    +0.420 C 
ATOM     14  C   LIG    1       -1.486   3.008   5.611  0.00  0.00    +0.510 C 
ATOM     15  N   LIG    1       -2.497   2.902   4.722  0.00  0.00    -0.650 N 
ATOM     16  H   LIG    1       -3.422   3.112   4.926  0.00  0.00    +0.420 HD
ATOM     17  C   LIG    1       -2.058   2.460   3.487  0.00  0.00    +0.160 A 
ATOM     18  C   LIG    1       -2.786   2.225   2.320  0.00  0.00    +0.000 A 
ATOM     19  C   LIG    1       -2.081   1.784   1.210  0.00  0.00    +0.060 A 
ATOM     20  C   LIG    1       -0.718   1.572   1.248  0.00  0.00    -0.110 A 
ATOM     21  C   LIG    1        0.019   1.802   2.405  0.00  0.00    +0.130 A 
ATOM     22  C   LIG    1       -0.013   1.086   0.008  0.00  0.00    +0.100 C 
ATOM     23  O   LIG    1       -1.574   3.369   6.765  0.00  0.00    -0.470 OA
ATOM     24  C   LIG    1       -0.673   2.246   3.510  0.00  0.00    -0.140 A 
ATOM     25  C   LIG    1        1.842   0.343   7.056  0.00  0.00    +0.090 C 
ENDROOT
BRANCH   1  30
ATOM     26  C   LIG    1        3.261  -5.871   4.860  0.00  0.00    +0.090 C 
ATOM     27  C   LIG    1        2.785  -4.465   5.124  0.00  0.00    -0.070 A 
ATOM     28  C   LIG    1        1.917  -3.855   4.236  0.00  0.00    +0.010 A 
ATOM     29  C   LIG    1        1.477  -2.568   4.471  0.00  0.00    +0.050 A 
ATOM     30  C   LIG    1        1.912  -1.882   5.607  0.00  0.00    -0.030 A 
ATOM     31  C   LIG    1        2.793  -2.502   6.495  0.00  0.00    +0.040 A 
ATOM     32  C   LIG    1        3.220  -3.791   6.251  0.00  0.00    +0.010 A 
ENDBRANCH   1  30
TORSDOF 1
