REMARK  Name = ZINCrD000006V6Q5.1
REMARK                            x       y       z     vdW  Elec       q    Type
REMARK                         _______ _______ _______ _____ _____    ______ ____
ROOT
ATOM      1  C   LIG    1       -6.392  -1.545  -0.465  0.00  0.00    +0.080 A 
ATOM      2  N   LIG    1       -6.422  -0.243  -0.402  0.00  0.00    -0.210 NA
ATOM      3  N   LIG    1       -5.320   0.365  -0.318  0.00  0.00    -0.250 NA
ATOM      4  C   LIG    1       -4.232  -0.351  -0.311  0.00  0.00    +0.240 A 
ATOM      5  S   LIG    1       -4.702  -2.049  -0.416  0.00  0.00    +0.070 S 
ENDROOT
BRANCH   1   9
ATOM      6  C   LIG    1       -9.766  -4.118  -0.740  0.00  0.00    +0.190 A 
ATOM      7  C   LIG    1       -8.485  -4.652  -0.710  0.00  0.00    -0.100 A 
ATOM      8  C   LIG    1       -7.388  -3.821  -0.621  0.00  0.00    +0.130 A 
ATOM      9  C   LIG    1       -7.565  -2.438  -0.561  0.00  0.00    -0.100 A 
ATOM     10  C   LIG    1       -8.858  -1.901  -0.585  0.00  0.00    +0.220 A 
ATOM     11  C   LIG    1       -9.952  -2.744  -0.680  0.00  0.00    -0.100 A 
BRANCH   6  13
ATOM     12  C   LIG    1      -10.580  -6.346  -0.884  0.00  0.00    +0.240 C 
ATOM     13  O   LIG    1      -10.842  -4.943  -0.827  0.00  0.00    -0.310 OA
ENDBRANCH   6  13
BRANCH  10  14
ATOM     14  O   LIG    1       -9.039  -0.556  -0.521  0.00  0.00    -0.280 OA
ATOM     15  C   LIG    1      -10.386  -0.080  -0.551  0.00  0.00    +0.250 C 
ENDBRANCH  10  14
ENDBRANCH   1   9
BRANCH   4  16
ATOM     16  N   LIG    1       -2.934   0.135  -0.229  0.00  0.00    -0.620 N 
ATOM     17  H   LIG    1       -2.184  -0.481  -0.226  0.00  0.00    +0.430 HD
ATOM     18  C   LIG    1       -2.715   1.462  -0.153  0.00  0.00    +0.550 C 
ATOM     19  O   LIG    1       -3.653   2.235  -0.157  0.00  0.00    -0.420 OA
BRANCH  18  20
ATOM     20  C   LIG    1       -1.333   1.979  -0.066  0.00  0.00    -0.070 A 
ATOM     21  C   LIG    1       -0.388   1.622  -1.030  0.00  0.00    +0.060 A 
ATOM     22  C   LIG    1        0.898   2.113  -0.946  0.00  0.00    +0.080 A 
ATOM     23  C   LIG    1        1.255   2.954   0.094  0.00  0.00    +0.070 A 
ATOM     24  C   LIG    1        0.325   3.307   1.056  0.00  0.00    +0.110 A 
ATOM     25  C   LIG    1       -0.965   2.824   0.983  0.00  0.00    -0.000 A 
BRANCH  25  26
ATOM     26  N   LIG    1       -1.958   3.203   2.013  0.00  0.00    +0.020 N 
ATOM     27  O   LIG    1       -3.059   2.682   2.018  0.00  0.00    -0.120 OA
ATOM     28  O   LIG    1       -1.674   4.035   2.856  0.00  0.00    -0.150 OA
ENDBRANCH  25  26
ENDBRANCH  18  20
ENDBRANCH   4  16
TORSDOF 6
