REMARK  Name = ZINCpk00000KfLmA.0
REMARK                            x       y       z     vdW  Elec       q    Type
REMARK                         _______ _______ _______ _____ _____    ______ ____
ROOT
ATOM      1  N   LIG    1       -3.018   2.161  -2.316  0.00  0.00    -0.710 N 
ATOM      2  H   LIG    1       -2.219   1.633  -2.159  0.00  0.00    +0.410 HD
ATOM      3  C   LIG    1       -4.217   1.554  -2.420  0.00  0.00    +0.590 C 
ATOM      4  O   LIG    1       -5.218   2.216  -2.616  0.00  0.00    -0.540 OA
ENDROOT
BRANCH   3   5
ATOM      5  C   LIG    1       -4.315   0.093  -2.296  0.00  0.00    -0.290 A 
ATOM      6  C   LIG    1       -5.475  -0.668  -2.381  0.00  0.00    +0.360 A 
ATOM      7  N   LIG    1       -5.119  -1.957  -2.213  0.00  0.00    -0.360 N 
ATOM      8  N   LIG    1       -3.734  -2.013  -2.023  0.00  0.00    -0.270 NA
ATOM      9  C   LIG    1       -6.028  -3.105  -2.227  0.00  0.00    +0.360 C 
ATOM     10  C   LIG    1       -3.245  -0.806  -2.075  0.00  0.00    +0.300 A 
BRANCH   6  11
ATOM     11  N   LIG    1       -6.762  -0.190  -2.597  0.00  0.00    -0.390 N 
ATOM     12  C   LIG    1       -7.327   0.887  -1.973  0.00  0.00    +0.230 A 
ATOM     13  C   LIG    1       -8.579   1.040  -2.450  0.00  0.00    -0.060 A 
ATOM     14  C   LIG    1       -8.801   0.017  -3.394  0.00  0.00    -0.030 A 
ATOM     15  C   LIG    1       -7.675  -0.721  -3.466  0.00  0.00    +0.120 A 
ENDBRANCH   6  11
ENDBRANCH   3   5
BRANCH   1  16
ATOM     16  C   LIG    1       -2.920   3.617  -2.439  0.00  0.00    +0.270 C 
BRANCH  16  17
ATOM     17  C   LIG    1       -1.450   4.036  -2.391  0.00  0.00    +0.130 C 
ATOM     18  C   LIG    1       -0.875   3.723  -1.008  0.00  0.00    +0.040 C 
BRANCH  17  22
ATOM     19  C   LIG    1       -1.015   2.986  -7.180  0.00  0.00    +0.050 C 
ATOM     20  C   LIG    1       -0.485   2.692  -5.775  0.00  0.00    +0.160 C 
ATOM     21  C   LIG    1       -1.260   3.525  -4.751  0.00  0.00    +0.150 C 
ATOM     22  N   LIG    1       -0.697   3.297  -3.413  0.00  0.00    -0.530 NA
ATOM     23  C   LIG    1        0.729   3.656  -3.380  0.00  0.00    +0.150 C 
ATOM     24  C   LIG    1        1.484   2.821  -4.417  0.00  0.00    +0.190 C 
ATOM     25  C   LIG    1        1.387   1.339  -4.049  0.00  0.00    +0.010 C 
ATOM     26  O   LIG    1        0.902   3.032  -5.707  0.00  0.00    -0.380 OA
ENDBRANCH  17  22
ENDBRANCH  16  17
ENDBRANCH   1  16
TORSDOF 5
