REMARK  Name = ZINCpe00000bQoOa.0
REMARK                            x       y       z     vdW  Elec       q    Type
REMARK                         _______ _______ _______ _____ _____    ______ ____
ROOT
ATOM      1  C   LIG    1        3.683   2.053  -2.041  0.00  0.00    +0.050 C 
ATOM      2  C   LIG    1        3.562   2.108  -0.516  0.00  0.00    -0.020 C 
ATOM      3  C   LIG    1        4.801   1.471   0.162  0.00  0.00    +0.270 C 
ATOM      4  N   LIG    1        4.323   1.036   1.487  0.00  0.00    -0.620 N 
ATOM      5  C   LIG    1        2.869   0.831   1.420  0.00  0.00    +0.240 C 
ATOM      6  C   LIG    1        5.092   0.855   2.579  0.00  0.00    +0.530 C 
ATOM      7  O   LIG    1        6.287   1.054   2.518  0.00  0.00    -0.530 OA
ATOM      8  C   LIG    1        2.422   1.183  -0.015  0.00  0.00    +0.250 C 
ENDROOT
BRANCH   8   9
ATOM      9  N   LIG    1        1.143   1.898   0.001  0.00  0.00    -0.720 N 
ATOM     10  H   LIG    1        1.130   2.868   0.007  0.00  0.00    +0.400 HD
ATOM     11  C   LIG    1       -0.014   1.209   0.009  0.00  0.00    +0.520 C 
ATOM     12  O   LIG    1        0.002  -0.004   0.002  0.00  0.00    -0.510 OA
BRANCH  11  13
ATOM     13  C   LIG    1       -1.330   1.944   0.019  0.00  0.00    +0.200 C 
BRANCH  13  14
ATOM     14  O   LIG    1       -2.403   1.001   0.019  0.00  0.00    -0.350 OA
BRANCH  14  15
ATOM     15  C   LIG    1       -3.701   1.598   0.028  0.00  0.00    +0.110 C 
ATOM     16  C   LIG    1       -3.857   2.459   1.283  0.00  0.00    +0.020 C 
ATOM     17  C   LIG    1       -4.767   0.500   0.027  0.00  0.00    +0.070 C 
ATOM     18  C   LIG    1       -3.869   2.473  -1.215  0.00  0.00    +0.020 C 
ENDBRANCH  14  15
ENDBRANCH  13  14
ENDBRANCH  11  13
ENDBRANCH   8   9
BRANCH   6  19
ATOM     19  C   LIG    1        4.468   0.404   3.874  0.00  0.00    +0.040 C 
BRANCH  19  20
ATOM     20  C   LIG    1        5.552   0.277   4.946  0.00  0.00    +0.050 C 
BRANCH  20  21
ATOM     21  C   LIG    1        4.918  -0.180   6.261  0.00  0.00    +0.220 C 
ATOM     22  C   LIG    1        5.988  -0.255   7.373  0.00  0.00    +0.050 C 
ATOM     23  C   LIG    1        6.420  -1.737   7.296  0.00  0.00    +0.050 C 
ATOM     24  C   LIG    1        5.224  -2.441   6.694  0.00  0.00    +0.520 C 
ATOM     25  O   LIG    1        5.038  -3.639   6.720  0.00  0.00    -0.530 OA
ATOM     26  N   LIG    1        4.398  -1.546   6.127  0.00  0.00    -0.730 N 
ATOM     27  H   LIG    1        3.565  -1.773   5.684  0.00  0.00    +0.410 HD
ENDBRANCH  20  21
ENDBRANCH  19  20
ENDBRANCH   6  19
TORSDOF 7
