REMARK  Name = ZINCrg000000mOui.0
REMARK                            x       y       z     vdW  Elec       q    Type
REMARK                         _______ _______ _______ _____ _____    ______ ____
ROOT
ATOM      1  N   LIG    1       -2.902   1.642   3.312  0.00  0.00    -0.560 N 
ATOM      2  C   LIG    1       -2.526   2.767   3.951  0.00  0.00    +0.700 A 
ATOM      3  N   LIG    1       -1.763   3.680   3.318  0.00  0.00    -0.560 N 
ATOM      4  C   LIG    1       -1.377   3.468   2.044  0.00  0.00    +0.700 A 
ATOM      5  N   LIG    1       -1.752   2.343   1.404  0.00  0.00    -0.560 N 
ATOM      6  O   LIG    1       -0.690   4.291   1.472  0.00  0.00    -0.500 OA
ATOM      7  O   LIG    1       -2.874   2.958   5.100  0.00  0.00    -0.500 OA
ATOM      8  C   LIG    1       -2.519   1.432   2.037  0.00  0.00    +0.700 A 
ATOM      9  O   LIG    1       -2.862   0.420   1.458  0.00  0.00    -0.500 OA
ENDROOT
BRANCH   1  10
ATOM     10  C   LIG    1       -3.730   0.650   4.001  0.00  0.00    +0.370 C 
BRANCH  10  12
ATOM     11  C   LIG    1       -5.983   0.054   3.271  0.00  0.00    +0.060 C 
ATOM     12  C   LIG    1       -5.186   0.965   3.772  0.00  0.00    -0.080 C 
ENDBRANCH  10  12
ENDBRANCH   1  10
BRANCH   5  13
ATOM     13  C   LIG    1       -1.333   2.112   0.020  0.00  0.00    +0.410 C 
BRANCH  13  14
ATOM     14  C   LIG    1       -0.017   1.378   0.010  0.00  0.00    -0.110 A 
ATOM     15  C   LIG    1        1.169   2.088   0.002  0.00  0.00    +0.070 A 
ATOM     16  C   LIG    1        2.379   1.417  -0.014  0.00  0.00    -0.040 A 
ATOM     17  C   LIG    1        2.404   0.030  -0.023  0.00  0.00    +0.070 A 
ATOM     18  O   LIG    1        3.602  -0.617  -0.043  0.00  0.00    -0.290 OA
ATOM     19  C   LIG    1        3.593  -2.000   0.327  0.00  0.00    +0.230 C 
ATOM     20  C   LIG    1        2.432  -2.685  -0.408  0.00  0.00    +0.230 C 
ATOM     21  O   LIG    1        1.213  -2.044  -0.017  0.00  0.00    -0.300 OA
ATOM     22  C   LIG    1        1.211  -0.683  -0.014  0.00  0.00    +0.060 A 
ATOM     23 CL   LIG    1        3.867   2.312  -0.023  0.00  0.00    -0.040 Cl
ATOM     24  C   LIG    1        0.002  -0.004   0.002  0.00  0.00    +0.070 A 
ENDBRANCH  13  14
ENDBRANCH   5  13
BRANCH   3  25
ATOM     25  C   LIG    1       -1.355   4.903   4.013  0.00  0.00    +0.370 C 
BRANCH  25  26
ATOM     26  C   LIG    1       -2.386   5.978   3.787  0.00  0.00    -0.080 C 
ATOM     27  C   LIG    1       -2.942   6.578   4.811  0.00  0.00    +0.060 C 
ENDBRANCH  25  26
ENDBRANCH   3  25
TORSDOF 6
