REMARK  Name = ZINCnE00000dSMG3.1
REMARK                            x       y       z     vdW  Elec       q    Type
REMARK                         _______ _______ _______ _____ _____    ______ ____
ROOT
ATOM      1  N   LIG    1       -1.192   2.002   0.019  0.00  0.00    -0.710 NA
ATOM      2  C   LIG    1       -0.016   1.344   0.009  0.00  0.00    +0.660 C 
ATOM      3  N   LIG    1        0.002  -0.004   0.002  0.00  0.00    -0.620 N 
ATOM      4  C   LIG    1       -1.252  -0.770   0.016  0.00  0.00    +0.270 C 
ATOM      5  C   LIG    1       -1.236  -1.755  -1.162  0.00  0.00    +0.000 C 
ATOM      6  C   LIG    1        0.027  -2.616  -1.083  0.00  0.00    -0.020 C 
ATOM      7  C   LIG    1        1.264  -1.721  -1.187  0.00  0.00    +0.020 C 
ATOM      8  C   LIG    1        1.276  -0.735  -0.014  0.00  0.00    +0.270 C 
ATOM      9  O   LIG    1        1.028   1.966   0.003  0.00  0.00    -0.620 OA
ENDROOT
BRANCH   1  13
ATOM     10  C   LIG    1       -1.645   5.815   0.041  0.00  0.00    -0.330 A 
ATOM     11  C   LIG    1       -0.361   5.453   0.033  0.00  0.00    +0.230 A 
ATOM     12  N   LIG    1       -0.159   4.148   0.025  0.00  0.00    -0.570 NA
ATOM     13  C   LIG    1       -1.211   3.391   0.026  0.00  0.00    +0.360 A 
ATOM     14  S   LIG    1       -2.626   4.352   0.031  0.00  0.00    +0.010 S 
BRANCH  10  16
ATOM     15  C   LIG    1       -3.025   7.466  -1.192  0.00  0.00    +0.010 C 
ATOM     16  C   LIG    1       -2.166   7.229   0.051  0.00  0.00    +0.080 C 
ATOM     17  C   LIG    1       -3.013   7.452   1.306  0.00  0.00    +0.010 C 
ENDBRANCH  10  16
ENDBRANCH   1  13
BRANCH   6  18
ATOM     18  C   LIG    1        0.030  -3.625  -2.233  0.00  0.00    +0.310 C 
BRANCH  18  19
ATOM     19  N   LIG    1       -1.088  -4.558  -2.067  0.00  0.00    -0.360 N 
ATOM     20  C   LIG    1       -2.048  -4.816  -2.979  0.00  0.00    +0.220 A 
ATOM     21  C   LIG    1       -2.890  -5.730  -2.444  0.00  0.00    -0.140 A 
ATOM     22  C   LIG    1       -2.429  -6.041  -1.161  0.00  0.00    +0.220 A 
ATOM     23  N   LIG    1       -1.345  -5.343  -0.936  0.00  0.00    -0.290 NA
ENDBRANCH  18  19
ENDBRANCH   6  18
TORSDOF 4
