REMARK  Name = ZINCqH00000079qg.0
REMARK                            x       y       z     vdW  Elec       q    Type
REMARK                         _______ _______ _______ _____ _____    ______ ____
ROOT
ATOM      1  N   LIG    1       -2.283   5.970   0.054  0.00  0.00    -0.720 N 
ATOM      2  H   LIG    1       -3.016   5.335   0.058  0.00  0.00    +0.400 HD
ATOM      3  C   LIG    1       -1.009   5.529   0.040  0.00  0.00    +0.530 C 
ATOM      4  O   LIG    1       -0.092   6.323   0.035  0.00  0.00    -0.520 OA
ENDROOT
BRANCH   1   5
ATOM      5  C   LIG    1       -2.559   7.409   0.064  0.00  0.00    +0.260 C 
BRANCH   5   6
ATOM      6  C   LIG    1       -4.072   7.637   0.079  0.00  0.00    +0.070 C 
BRANCH   6  10
ATOM      7  C   LIG    1       -4.880  11.833   0.108  0.00  0.00    +0.130 A 
ATOM      8  C   LIG    1       -4.760  11.157  -1.098  0.00  0.00    -0.020 A 
ATOM      9  C   LIG    1       -4.499   9.801  -1.104  0.00  0.00    +0.060 A 
ATOM     10  C   LIG    1       -4.357   9.117   0.089  0.00  0.00    -0.120 A 
ATOM     11  C   LIG    1       -4.482   9.787   1.292  0.00  0.00    +0.060 A 
ATOM     12  C   LIG    1       -4.737  11.145   1.304  0.00  0.00    -0.080 A 
BRANCH   7  14
ATOM     13  C   LIG    1       -5.248  13.798   1.395  0.00  0.00    +0.250 C 
ATOM     14  O   LIG    1       -5.138  13.168   0.117  0.00  0.00    -0.320 OA
ENDBRANCH   7  14
ENDBRANCH   6  10
ENDBRANCH   5   6
ENDBRANCH   1   5
BRANCH   3  15
ATOM     15  C   LIG    1       -0.725   4.049   0.030  0.00  0.00    +0.090 C 
BRANCH  15  16
ATOM     16  S   LIG    1        1.065   3.779   0.012  0.00  0.00    +0.080 S 
BRANCH  16  17
ATOM     17  C   LIG    1        1.109   2.018   0.002  0.00  0.00    +0.190 A 
ATOM     18  C   LIG    1        2.349   1.327  -0.013  0.00  0.00    -0.160 A 
ATOM     19  C   LIG    1        2.310  -0.069  -0.020  0.00  0.00    +0.100 A 
ATOM     20  S   LIG    1        3.949  -0.705  -0.038  0.00  0.00    +0.180 S 
ATOM     21  C   LIG    1        4.644   0.905  -0.037  0.00  0.00    -0.170 A 
ATOM     22  C   LIG    1        6.124   1.191  -0.050  0.00  0.00    +0.150 C 
ATOM     23  N   LIG    1        1.123  -0.688  -0.012  0.00  0.00    -0.500 NA
ATOM     24  C   LIG    1        0.002  -0.004   0.002  0.00  0.00    +0.540 A 
ATOM     25  C   LIG    1        3.708   1.834  -0.023  0.00  0.00    -0.070 A 
ATOM     26  C   LIG    1        4.025   3.307  -0.018  0.00  0.00    +0.140 C 
ATOM     27  N   LIG    1       -0.016   1.316   0.009  0.00  0.00    -0.530 NA
ENDBRANCH  16  17
ENDBRANCH  15  16
ENDBRANCH   3  15
TORSDOF 7
