REMARK  Name = ZINCrH000004s7Io.0
REMARK                            x       y       z     vdW  Elec       q    Type
REMARK                         _______ _______ _______ _____ _____    ______ ____
ROOT
ATOM      1  C   LIG    1        2.792   2.055   4.716  0.00  0.00    -0.080 A 
ATOM      2  C   LIG    1        2.856   2.452   6.051  0.00  0.00    +0.070 A 
ATOM      3  C   LIG    1        4.066   2.452   6.712  0.00  0.00    -0.080 A 
ATOM      4  C   LIG    1        5.223   2.066   6.045  0.00  0.00    +0.220 A 
ATOM      5  C   LIG    1        5.162   1.674   4.713  0.00  0.00    -0.080 A 
ATOM      6  C   LIG    1        3.953   1.668   4.050  0.00  0.00    +0.090 A 
ENDROOT
BRANCH   1  14
ATOM      7  C   LIG    1       -0.013   1.086   0.008  0.00  0.00    +0.120 C 
ATOM      8  C   LIG    1       -0.718   1.572   1.248  0.00  0.00    -0.040 A 
ATOM      9  C   LIG    1       -2.061   1.788   1.234  0.00  0.00    +0.030 A 
ATOM     10  C   LIG    1       -2.706   2.236   2.399  0.00  0.00    +0.010 A 
ATOM     11  C   LIG    1       -1.997   2.463   3.525  0.00  0.00    +0.210 A 
ATOM     12  N   LIG    1       -0.648   2.255   3.552  0.00  0.00    -0.360 N 
ATOM     13  C   LIG    1        0.287   2.402   4.538  0.00  0.00    +0.080 A 
ATOM     14  C   LIG    1        1.490   2.049   4.004  0.00  0.00    +0.110 A 
ATOM     15  N   LIG    1        1.295   1.695   2.724  0.00  0.00    -0.480 NA
ATOM     16  C   LIG    1        0.008   1.812   2.432  0.00  0.00    +0.230 A 
ENDBRANCH   1  14
BRANCH   4  17
ATOM     17  N   LIG    1        6.448   2.071   6.715  0.00  0.00    -0.740 N 
ATOM     18  H   LIG    1        7.256   1.802   6.251  0.00  0.00    +0.400 HD
BRANCH  17  19
ATOM     19  C   LIG    1        6.513   2.484   8.120  0.00  0.00    +0.330 C 
BRANCH  19  20
ATOM     20  C   LIG    1        7.938   2.401   8.602  0.00  0.00    -0.290 A 
ATOM     21  C   LIG    1        8.426   1.236   9.173  0.00  0.00    +0.390 A 
ATOM     22  N   LIG    1        9.684   1.195   9.581  0.00  0.00    -0.570 NA
ATOM     23  C   LIG    1       10.470   2.254   9.458  0.00  0.00    +0.570 A 
ATOM     24  N   LIG    1       10.034   3.384   8.922  0.00  0.00    -0.570 NA
ATOM     25  C   LIG    1        8.789   3.490   8.489  0.00  0.00    +0.390 A 
BRANCH  23  26
ATOM     26  N   LIG    1       11.780   2.177   9.901  0.00  0.00    -0.590 N 
ATOM     27  C   LIG    1       12.280   0.936  10.497  0.00  0.00    +0.300 C 
ATOM     28  C   LIG    1       12.665   3.338   9.773  0.00  0.00    +0.300 C 
ENDBRANCH  23  26
ENDBRANCH  19  20
ENDBRANCH  17  19
ENDBRANCH   4  17
TORSDOF 5
