REMARK  Name = ZINCpe000000YIzt.0
REMARK                            x       y       z     vdW  Elec       q    Type
REMARK                         _______ _______ _______ _____ _____    ______ ____
ROOT
ATOM      1  C   LIG    1       -1.562   0.618   2.982  0.00  0.00    +0.250 C 
ATOM      2  C   LIG    1       -1.596  -0.124   1.639  0.00  0.00    +0.300 C 
ATOM      3  N   LIG    1       -0.477   0.724   1.201  0.00  0.00    -0.640 N 
ATOM      4  C   LIG    1       -0.011   1.184   0.023  0.00  0.00    +0.580 C 
ATOM      5  O   LIG    1       -0.629   0.970  -0.998  0.00  0.00    -0.520 OA
ATOM      6  C   LIG    1       -0.086   0.843   2.614  0.00  0.00    +0.280 C 
ENDROOT
BRANCH   4   7
ATOM      7  C   LIG    1        1.273   1.970  -0.024  0.00  0.00    -0.130 C 
ATOM      8  C   LIG    1        2.137   1.838  -1.280  0.00  0.00    +0.090 C 
ATOM      9  C   LIG    1        2.585   1.185   0.030  0.00  0.00    +0.070 C 
BRANCH   7  10
ATOM     10  C   LIG    1        1.239   3.313   0.659  0.00  0.00    -0.010 A 
ATOM     11  C   LIG    1        2.387   3.827   1.231  0.00  0.00    +0.030 A 
ATOM     12  C   LIG    1        2.354   5.062   1.858  0.00  0.00    +0.110 A 
ATOM     13  C   LIG    1        1.172   5.779   1.911  0.00  0.00    +0.050 A 
ATOM     14  C   LIG    1        0.025   5.263   1.338  0.00  0.00    -0.140 A 
ATOM     15  F   LIG    1        3.476   5.565   2.417  0.00  0.00    -0.120 F 
ATOM     16  C   LIG    1        0.059   4.034   0.708  0.00  0.00    +0.070 A 
BRANCH  14  17
ATOM     17  C   LIG    1       -1.263   6.045   1.395  0.00  0.00    +0.510 C 
ATOM     18  F   LIG    1       -2.233   5.296   2.070  0.00  0.00    -0.160 F 
ATOM     19  F   LIG    1       -1.703   6.313   0.094  0.00  0.00    -0.170 F 
ATOM     20  F   LIG    1       -1.048   7.249   2.072  0.00  0.00    -0.170 F 
ENDBRANCH  14  17
ENDBRANCH   7  10
ENDBRANCH   4   7
BRANCH   1  21
ATOM     21  N   LIG    1       -2.371   1.838   3.015  0.00  0.00    -1.100 NA
ATOM     22  H   LIG    1       -2.447   2.391   2.221  0.00  0.00    +0.420 HD
BRANCH  21  23
ATOM     23  S   LIG    1       -3.156   2.275   4.406  0.00  0.00    +2.790 S 
ATOM     24  O   LIG    1       -3.837   1.114   4.863  0.00  0.00    -0.980 OA
ATOM     25  O   LIG    1       -3.815   3.503   4.127  0.00  0.00    -0.970 OA
BRANCH  23  26
ATOM     26  N   LIG    1       -1.996   2.613   5.538  0.00  0.00    -1.260 NA
ATOM     27  H   LIG    1       -1.141   2.156   5.508  0.00  0.00    +0.410 HD
ATOM     28  H   LIG    1       -2.172   3.268   6.232  0.00  0.00    +0.420 HD
ENDBRANCH  23  26
ENDBRANCH  21  23
ENDBRANCH   1  21
TORSDOF 6
