REMARK  Name = ZINCqH0000000fNJ.0
REMARK                            x       y       z     vdW  Elec       q    Type
REMARK                         _______ _______ _______ _____ _____    ______ ____
ROOT
ATOM      1  N   LIG    1       -0.020  -2.631  -0.374  0.00  0.00    -0.620 N 
ATOM      2  C   LIG    1       -0.155  -2.843  -1.696  0.00  0.00    +0.580 C 
ATOM      3  C   LIG    1        0.998  -2.604  -2.583  0.00  0.00    -0.200 A 
ATOM      4  C   LIG    1        0.857  -2.535  -3.966  0.00  0.00    +0.110 A 
ATOM      5  C   LIG    1        1.970  -2.319  -4.753  0.00  0.00    -0.040 A 
ATOM      6  C   LIG    1        3.222  -2.173  -4.177  0.00  0.00    +0.080 A 
ATOM      7  C   LIG    1        3.376  -2.237  -2.805  0.00  0.00    -0.050 A 
ATOM      8  C   LIG    1        2.270  -2.451  -2.001  0.00  0.00    +0.240 A 
ATOM      9  N   LIG    1        2.368  -2.519  -0.616  0.00  0.00    -0.730 N 
ATOM     10  H   LIG    1        3.179  -2.841  -0.192  0.00  0.00    +0.420 HD
ATOM     11  O   LIG    1       -1.214  -3.226  -2.155  0.00  0.00    -0.530 OA
ATOM     12  C   LIG    1        1.218  -2.093   0.190  0.00  0.00    +0.550 C 
ENDROOT
BRANCH  12  13
ATOM     13  C   LIG    1        1.147  -0.588   0.204  0.00  0.00    -0.130 A 
ATOM     14  C   LIG    1       -0.079   0.043   0.176  0.00  0.00    +0.060 A 
ATOM     15  C   LIG    1       -0.154   1.433   0.189  0.00  0.00    +0.070 A 
ATOM     16  C   LIG    1        1.021   2.170   0.237  0.00  0.00    -0.130 A 
ATOM     17  C   LIG    1        0.627   3.635   0.264  0.00  0.00    +0.070 C 
ATOM     18  C   LIG    1       -0.876   3.555   0.620  0.00  0.00    +0.170 C 
ATOM     19  C   LIG    1       -1.665   4.642  -0.114  0.00  0.00    +0.070 C 
ATOM     20  C   LIG    1        2.247   1.543   0.261  0.00  0.00    -0.030 A 
ATOM     21  O   LIG    1       -1.246   2.248   0.150  0.00  0.00    -0.300 OA
ATOM     22  C   LIG    1        2.317   0.157   0.244  0.00  0.00    +0.130 A 
BRANCH  22  23
ATOM     23  O   LIG    1        3.525  -0.467   0.268  0.00  0.00    -0.300 OA
ATOM     24  C   LIG    1        4.685   0.367   0.310  0.00  0.00    +0.220 C 
ENDBRANCH  22  23
ENDBRANCH  12  13
BRANCH   1  25
ATOM     25  C   LIG    1       -1.140  -2.944   0.517  0.00  0.00    +0.310 C 
BRANCH  25  27
ATOM     26  C   LIG    1       -0.958  -4.523   2.370  0.00  0.00    +0.020 C 
ATOM     27  C   LIG    1       -0.965  -4.334   1.074  0.00  0.00    -0.060 C 
ENDBRANCH  25  27
ENDBRANCH   1  25
TORSDOF 4
