REMARK  Name = ZINCpe000000UxGw.0
REMARK                            x       y       z     vdW  Elec       q    Type
REMARK                         _______ _______ _______ _____ _____    ______ ____
ROOT
ATOM      1  S   LIG    1       -5.563   4.209   0.362  0.00  0.00    +2.700 S 
ATOM      2  O   LIG    1       -5.089   5.545   0.263  0.00  0.00    -0.950 OA
ATOM      3  O   LIG    1       -6.556   3.804   1.294  0.00  0.00    -0.950 OA
ENDROOT
BRANCH   1   4
ATOM      4  C   LIG    1       -4.150   3.201   0.670  0.00  0.00    -0.700 A 
ATOM      5  C   LIG    1       -4.301   1.973   1.286  0.00  0.00    +0.160 A 
ATOM      6  C   LIG    1       -3.196   1.180   1.529  0.00  0.00    -0.030 A 
ATOM      7  C   LIG    1       -1.933   1.618   1.149  0.00  0.00    +0.220 A 
ATOM      8  N   LIG    1       -0.811   0.822   1.397  0.00  0.00    -0.670 N 
ATOM      9  H   LIG    1       -0.922  -0.126   1.572  0.00  0.00    +0.420 HD
ATOM     10  C   LIG    1        0.423   1.360   1.389  0.00  0.00    +0.520 C 
ATOM     11  C   LIG    1        0.620   2.830   1.139  0.00  0.00    +0.090 C 
ATOM     12  C   LIG    1       -0.415   3.330   0.130  0.00  0.00    +0.110 C 
ATOM     13  O   LIG    1        1.387   0.651   1.585  0.00  0.00    -0.510 OA
ATOM     14  C   LIG    1       -1.786   2.854   0.536  0.00  0.00    -0.150 A 
ATOM     15  C   LIG    1       -2.894   3.642   0.296  0.00  0.00    +0.170 A 
ENDBRANCH   1   4
BRANCH   1  16
ATOM     16  N   LIG    1       -6.136   3.804  -1.138  0.00  0.00    -1.120 NA
ATOM     17  H   LIG    1       -6.117   4.455  -1.857  0.00  0.00    +0.420 HD
BRANCH  16  18
ATOM     18  C   LIG    1       -6.672   2.462  -1.379  0.00  0.00    +0.380 C 
BRANCH  18  22
ATOM     19  C   LIG    1       -9.063   2.661  -4.152  0.00  0.00    +0.380 A 
ATOM     20  N   LIG    1       -7.987   2.234  -4.769  0.00  0.00    -0.510 NA
ATOM     21  C   LIG    1       -6.986   2.106  -3.881  0.00  0.00    +0.180 A 
ATOM     22  C   LIG    1       -7.450   2.456  -2.670  0.00  0.00    -0.040 A 
ATOM     23  N   LIG    1       -8.770   2.813  -2.833  0.00  0.00    -0.440 N 
ATOM     24  C   LIG    1       -9.684   3.272  -1.784  0.00  0.00    +0.340 C 
BRANCH  19  26
ATOM     25  C   LIG    1      -10.183   3.993  -5.735  0.00  0.00    +0.240 C 
ATOM     26  N   LIG    1      -10.289   2.914  -4.744  0.00  0.00    -0.480 N 
ATOM     27  C   LIG    1      -10.843   1.696  -5.349  0.00  0.00    +0.240 C 
ENDBRANCH  19  26
ENDBRANCH  18  22
ENDBRANCH  16  18
ENDBRANCH   1  16
TORSDOF 5
