REMARK  Name = ZINCqH0000003Qzp.0
REMARK                            x       y       z     vdW  Elec       q    Type
REMARK                         _______ _______ _______ _____ _____    ______ ____
ROOT
ATOM      1  N   LIG    1        3.630  -0.637  -0.038  0.00  0.00    -0.490 N 
ATOM      2  C   LIG    1        4.391  -0.380   1.192  0.00  0.00    +0.180 C 
ATOM      3  C   LIG    1        5.632  -1.278   1.219  0.00  0.00    +0.280 C 
ATOM      4  N   LIG    1        6.382  -1.075  -0.030  0.00  0.00    -0.630 N 
ATOM      5  C   LIG    1        5.654  -1.182  -1.304  0.00  0.00    +0.320 C 
ATOM      6  C   LIG    1        7.701  -0.800  -0.008  0.00  0.00    +0.710 C 
ATOM      7  N   LIG    1        8.330  -0.606   1.168  0.00  0.00    -0.740 N 
ATOM      8  H   LIG    1        7.851  -0.738   2.001  0.00  0.00    +0.400 HD
ATOM      9  O   LIG    1        8.324  -0.726  -1.050  0.00  0.00    -0.590 OA
ATOM     10  C   LIG    1        4.412  -0.288  -1.231  0.00  0.00    +0.180 C 
ENDROOT
BRANCH   1  16
ATOM     11  C   LIG    1        1.210  -0.672  -0.015  0.00  0.00    +0.160 A 
ATOM     12  C   LIG    1        0.003   0.005  -0.000  0.00  0.00    -0.080 A 
ATOM     13  C   LIG    1       -0.014   1.389   0.006  0.00  0.00    +0.050 A 
ATOM     14  C   LIG    1        1.172   2.098  -0.001  0.00  0.00    -0.030 A 
ATOM     15  C   LIG    1        2.382   1.429  -0.016  0.00  0.00    +0.010 A 
ATOM     16  C   LIG    1        2.407   0.042  -0.023  0.00  0.00    +0.050 A 
BRANCH  11  17
ATOM     17  O   LIG    1        1.229  -2.032  -0.021  0.00  0.00    -0.290 OA
BRANCH  17  19
ATOM     18  C   LIG    1        0.185  -4.212  -0.020  0.00  0.00    +0.070 C 
ATOM     19  C   LIG    1       -0.036  -2.698  -0.011  0.00  0.00    +0.170 C 
ENDBRANCH  17  19
ENDBRANCH  11  17
ENDBRANCH   1  16
BRANCH   7  20
ATOM     20  C   LIG    1        9.736  -0.198   1.188  0.00  0.00    +0.340 C 
BRANCH  20  21
ATOM     21  C   LIG    1       10.196  -0.051   2.616  0.00  0.00    -0.110 A 
ATOM     22  C   LIG    1       10.079   1.168   3.258  0.00  0.00    +0.040 A 
ATOM     23  C   LIG    1       10.496   1.302   4.569  0.00  0.00    +0.030 A 
ATOM     24  C   LIG    1       11.041   0.219   5.235  0.00  0.00    -0.030 A 
ATOM     25  C   LIG    1       11.164  -0.999   4.590  0.00  0.00    +0.030 A 
ATOM     26 CL   LIG    1       11.573   0.389   6.879  0.00  0.00    -0.070 Cl
ATOM     27  C   LIG    1       10.741  -1.133   3.281  0.00  0.00    +0.050 A 
ENDBRANCH  20  21
ENDBRANCH   7  20
TORSDOF 5
