REMARK  Name = ZINCpk00000k4nAy.1
REMARK                            x       y       z     vdW  Elec       q    Type
REMARK                         _______ _______ _______ _____ _____    ______ ____
ROOT
ATOM      1  C   LIG    1        0.610  -1.921   0.629  0.00  0.00    +0.120 C 
ATOM      2  C   LIG    1       -0.600  -1.188   0.035  0.00  0.00    +0.290 C 
ATOM      3  N   LIG    1        0.237   0.018  -0.049  0.00  0.00    -0.650 N 
ATOM      4  C   LIG    1        0.025   1.349  -0.037  0.00  0.00    +0.560 C 
ATOM      5  O   LIG    1       -1.108   1.783  -0.029  0.00  0.00    -0.520 OA
ATOM      6  C   LIG    1        1.406  -0.867  -0.157  0.00  0.00    +0.310 C 
ENDROOT
BRANCH   4   7
ATOM      7  C   LIG    1        1.195   2.299  -0.039  0.00  0.00    +0.090 C 
ATOM      8  C   LIG    1        0.862   3.517   0.785  0.00  0.00    -0.230 A 
ATOM      9  C   LIG    1        0.524   4.722   0.261  0.00  0.00    +0.110 A 
ATOM     10  N   LIG    1        0.300   5.567   1.280  0.00  0.00    -0.470 N 
ATOM     11  H   LIG    1        0.043   6.500   1.204  0.00  0.00    +0.440 HD
ATOM     12  N   LIG    1        0.503   4.861   2.475  0.00  0.00    -0.290 NA
ATOM     13  C   LIG    1        0.431   5.005  -1.218  0.00  0.00    +0.110 C 
ATOM     14  C   LIG    1        0.362   3.666  -1.963  0.00  0.00    +0.040 C 
ATOM     15  C   LIG    1        0.840   3.631   2.174  0.00  0.00    +0.250 A 
ATOM     16  C   LIG    1        1.490   2.751  -1.474  0.00  0.00    +0.010 C 
ATOM     17  C   LIG    1        1.585   1.526  -2.386  0.00  0.00    +0.020 C 
ENDBRANCH   4   7
BRANCH   1  21
ATOM     18  C   LIG    1        0.973  -5.480   0.056  0.00  0.00    -0.060 A 
ATOM     19  C   LIG    1        1.095  -5.013  -1.217  0.00  0.00    +0.280 A 
ATOM     20  O   LIG    1        0.974  -3.677  -1.157  0.00  0.00    -0.190 OA
ATOM     21  C   LIG    1        0.789  -3.330   0.125  0.00  0.00    +0.210 A 
ATOM     22  N   LIG    1        0.783  -4.399   0.862  0.00  0.00    -0.430 NA
BRANCH  18  23
ATOM     23  C   LIG    1        1.034  -6.888   0.481  0.00  0.00    +0.550 C 
ATOM     24  O   LIG    1        1.209  -7.765  -0.342  0.00  0.00    -0.500 OA
BRANCH  23  26
ATOM     25  C   LIG    1        0.967  -8.614   2.131  0.00  0.00    +0.280 C 
ATOM     26  O   LIG    1        0.896  -7.206   1.784  0.00  0.00    -0.340 OA
ENDBRANCH  23  26
ENDBRANCH  18  23
ENDBRANCH   1  21
TORSDOF 4
