REMARK  Name = ZINCpk00000k4nAy.0
REMARK                            x       y       z     vdW  Elec       q    Type
REMARK                         _______ _______ _______ _____ _____    ______ ____
ROOT
ATOM      1  C   LIG    1       -2.691   2.108   3.712  0.00  0.00    +0.120 C 
ATOM      2  C   LIG    1       -2.948   3.621   3.728  0.00  0.00    +0.290 C 
ATOM      3  N   LIG    1       -2.361   3.682   2.381  0.00  0.00    -0.650 N 
ATOM      4  C   LIG    1       -1.716   4.609   1.644  0.00  0.00    +0.560 C 
ATOM      5  O   LIG    1       -1.425   5.678   2.135  0.00  0.00    -0.520 OA
ATOM      6  C   LIG    1       -2.792   2.289   2.189  0.00  0.00    +0.310 C 
ENDROOT
BRANCH   4   7
ATOM      7  C   LIG    1       -1.358   4.315   0.210  0.00  0.00    +0.080 C 
ATOM      8  C   LIG    1       -0.050   4.982  -0.136  0.00  0.00    -0.230 A 
ATOM      9  C   LIG    1        1.197   4.593   0.189  0.00  0.00    +0.250 A 
ATOM     10  N   LIG    1        2.057   5.495  -0.335  0.00  0.00    -0.480 N 
ATOM     11  H   LIG    1        3.024   5.471  -0.261  0.00  0.00    +0.440 HD
ATOM     12  N   LIG    1        1.306   6.467  -1.012  0.00  0.00    -0.290 NA
ATOM     13  C   LIG    1        0.046   6.162  -0.893  0.00  0.00    +0.100 A 
ATOM     14  C   LIG    1       -1.151   6.899  -1.441  0.00  0.00    +0.130 C 
ATOM     15  C   LIG    1       -2.399   6.405  -0.698  0.00  0.00    +0.040 C 
ATOM     16  C   LIG    1       -2.442   4.876  -0.720  0.00  0.00    +0.010 C 
ATOM     17  C   LIG    1       -3.815   4.398  -0.244  0.00  0.00    +0.020 C 
ENDBRANCH   4   7
BRANCH   1  21
ATOM     18  C   LIG    1       -4.894  -0.074   5.586  0.00  0.00    -0.060 A 
ATOM     19  C   LIG    1       -5.763   0.416   4.659  0.00  0.00    +0.280 A 
ATOM     20  O   LIG    1       -5.069   1.258   3.878  0.00  0.00    -0.190 OA
ATOM     21  C   LIG    1       -3.802   1.286   4.314  0.00  0.00    +0.210 A 
ATOM     22  N   LIG    1       -3.681   0.490   5.333  0.00  0.00    -0.430 NA
BRANCH  18  23
ATOM     23  C   LIG    1       -5.206  -1.036   6.656  0.00  0.00    +0.550 C 
ATOM     24  O   LIG    1       -6.335  -1.470   6.773  0.00  0.00    -0.500 OA
BRANCH  23  26
ATOM     25  C   LIG    1       -4.619  -2.385   8.537  0.00  0.00    +0.280 C 
ATOM     26  O   LIG    1       -4.239  -1.435   7.506  0.00  0.00    -0.340 OA
ENDBRANCH  23  26
ENDBRANCH  18  23
ENDBRANCH   1  21
TORSDOF 4
