REMARK  Name = ZINCtj00000044A2.1
REMARK                            x       y       z     vdW  Elec       q    Type
REMARK                         _______ _______ _______ _____ _____    ______ ____
ROOT
ATOM      1  O   LIG    1        0.648   4.136   0.170  0.00  0.00    -0.510 OA
ATOM      2  C   LIG    1        1.579   3.360   0.214  0.00  0.00    +0.520 C 
ATOM      3  N   LIG    1        1.351   2.032   0.189  0.00  0.00    -0.730 N 
ATOM      4  H   LIG    1        2.096   1.411   0.224  0.00  0.00    +0.410 HD
ENDROOT
BRANCH   3   5
ATOM      5  C   LIG    1       -0.021   1.525   0.109  0.00  0.00    +0.260 C 
BRANCH   5   6
ATOM      6  C   LIG    1       -0.000  -0.005   0.096  0.00  0.00    +0.200 C 
BRANCH   6   7
ATOM      7  O   LIG    1        0.743  -0.461  -1.036  0.00  0.00    -0.550 OA
ATOM      8  H   LIG    1        0.381  -0.173  -1.885  0.00  0.00    +0.390 HD
ENDBRANCH   6   7
BRANCH   6   9
ATOM      9  C   LIG    1       -1.433  -0.534   0.013  0.00  0.00    +0.250 C 
BRANCH   9  10
ATOM     10  N   LIG    1       -1.413  -2.002   0.005  0.00  0.00    -0.380 N 
ATOM     11  C   LIG    1       -0.920  -2.495   1.300  0.00  0.00    +0.260 C 
ATOM     12  C   LIG    1       -0.616  -3.988   1.170  0.00  0.00    +0.130 C 
ATOM     13  C   LIG    1       -1.802  -4.701   0.573  0.00  0.00    -0.090 A 
ATOM     14  C   LIG    1       -1.874  -6.080   0.683  0.00  0.00    +0.040 A 
ATOM     15  C   LIG    1       -2.945  -6.767   0.146  0.00  0.00    +0.050 A 
ATOM     16  C   LIG    1       -3.949  -6.076  -0.506  0.00  0.00    +0.030 A 
ATOM     17  C   LIG    1       -3.878  -4.701  -0.616  0.00  0.00    +0.040 A 
ATOM     18  C   LIG    1       -2.804  -4.010  -0.075  0.00  0.00    -0.140 A 
ATOM     19  C   LIG    1       -2.771  -2.510  -0.215  0.00  0.00    +0.330 C 
ATOM     20  H   LIG    1       -0.807  -2.328  -0.733  0.00  0.00    +0.430 HD
ENDBRANCH   9  10
ENDBRANCH   6   9
ENDBRANCH   5   6
ENDBRANCH   3   5
BRANCH   2  21
ATOM     21  C   LIG    1        2.991   3.881   0.296  0.00  0.00    +0.190 C 
BRANCH  21  22
ATOM     22  C   LIG    1        2.970   5.388   0.309  0.00  0.00    +0.010 A 
ATOM     23  N   LIG    1        2.410   6.180  -0.578  0.00  0.00    -0.260 NA
ATOM     24  N   LIG    1        2.603   7.400  -0.221  0.00  0.00    -0.100 N 
ATOM     25  N   LIG    1        3.280   7.455   0.871  0.00  0.00    -0.280 NA
ATOM     26  C   LIG    1        3.547   6.230   1.263  0.00  0.00    +0.190 A 
BRANCH  24  27
ATOM     27  C   LIG    1        2.142   8.519  -0.930  0.00  0.00    +0.140 A 
ATOM     28  C   LIG    1        1.423   8.350  -2.105  0.00  0.00    +0.040 A 
ATOM     29  C   LIG    1        0.966   9.454  -2.798  0.00  0.00    +0.040 A 
ATOM     30  C   LIG    1        1.234  10.727  -2.328  0.00  0.00    +0.030 A 
ATOM     31  C   LIG    1        1.955  10.898  -1.161  0.00  0.00    +0.040 A 
ATOM     32  C   LIG    1        2.410   9.798  -0.461  0.00  0.00    +0.040 A 
ENDBRANCH  24  27
ENDBRANCH  21  22
ENDBRANCH   2  21
TORSDOF 8
