REMARK  Name = ZINCtj00000044A2.0
REMARK                            x       y       z     vdW  Elec       q    Type
REMARK                         _______ _______ _______ _____ _____    ______ ____
ROOT
ATOM      1  O   LIG    1       -7.993  -2.982   1.070  0.00  0.00    -0.510 OA
ATOM      2  C   LIG    1       -7.076  -3.130   1.849  0.00  0.00    +0.520 C 
ATOM      3  N   LIG    1       -6.075  -2.228   1.891  0.00  0.00    -0.730 N 
ATOM      4  H   LIG    1       -5.341  -2.346   2.515  0.00  0.00    +0.410 HD
ENDROOT
BRANCH   3   5
ATOM      5  C   LIG    1       -6.095  -1.069   0.995  0.00  0.00    +0.260 C 
BRANCH   5   6
ATOM      6  C   LIG    1       -4.854  -0.210   1.244  0.00  0.00    +0.200 C 
BRANCH   6   7
ATOM      7  O   LIG    1       -4.849   0.238   2.601  0.00  0.00    -0.550 OA
ATOM      8  H   LIG    1       -5.618   0.771   2.841  0.00  0.00    +0.390 HD
ENDBRANCH   6   7
BRANCH   6   9
ATOM      9  C   LIG    1       -4.875   1.000   0.307  0.00  0.00    +0.250 C 
BRANCH   9  10
ATOM     10  N   LIG    1       -3.627   1.760   0.461  0.00  0.00    -0.380 N 
ATOM     11  C   LIG    1       -3.691   2.981  -0.357  0.00  0.00    +0.270 C 
ATOM     12  C   LIG    1       -2.536   3.899   0.058  0.00  0.00    +0.120 C 
ATOM     13  C   LIG    1       -1.241   3.128   0.033  0.00  0.00    -0.090 A 
ATOM     14  C   LIG    1       -0.048   3.833   0.024  0.00  0.00    +0.040 A 
ATOM     15  C   LIG    1        1.159   3.161   0.008  0.00  0.00    +0.050 A 
ATOM     16  C   LIG    1        1.176   1.779   0.000  0.00  0.00    +0.040 A 
ATOM     17  C   LIG    1       -0.013   1.076   0.008  0.00  0.00    +0.040 A 
ATOM     18  C   LIG    1       -1.225   1.749   0.017  0.00  0.00    -0.130 A 
ATOM     19  C   LIG    1       -2.496   0.943   0.012  0.00  0.00    +0.320 C 
ATOM     20  H   LIG    1       -3.500   2.008   1.431  0.00  0.00    +0.430 HD
ENDBRANCH   9  10
ENDBRANCH   6   9
ENDBRANCH   5   6
ENDBRANCH   3   5
BRANCH   2  21
ATOM     21  C   LIG    1       -7.055  -4.321   2.772  0.00  0.00    +0.190 C 
BRANCH  21  22
ATOM     22  C   LIG    1       -8.277  -5.168   2.526  0.00  0.00    +0.010 A 
ATOM     23  N   LIG    1       -9.532  -4.777   2.564  0.00  0.00    -0.260 NA
ATOM     24  N   LIG    1      -10.286  -5.785   2.300  0.00  0.00    -0.100 N 
ATOM     25  N   LIG    1       -9.581  -6.839   2.088  0.00  0.00    -0.280 NA
ATOM     26  C   LIG    1       -8.310  -6.528   2.207  0.00  0.00    +0.190 A 
BRANCH  24  27
ATOM     27  C   LIG    1      -11.686  -5.740   2.252  0.00  0.00    +0.140 A 
ATOM     28  C   LIG    1      -12.353  -4.548   2.504  0.00  0.00    +0.040 A 
ATOM     29  C   LIG    1      -13.733  -4.506   2.450  0.00  0.00    +0.040 A 
ATOM     30  C   LIG    1      -14.450  -5.652   2.157  0.00  0.00    +0.030 A 
ATOM     31  C   LIG    1      -13.789  -6.841   1.911  0.00  0.00    +0.040 A 
ATOM     32  C   LIG    1      -12.409  -6.888   1.958  0.00  0.00    +0.040 A 
ENDBRANCH  24  27
ENDBRANCH  21  22
ENDBRANCH   2  21
TORSDOF 8
