REMARK  Name = ZINCvU0000000JBP.0
REMARK                            x       y       z     vdW  Elec       q    Type
REMARK                         _______ _______ _______ _____ _____    ______ ____
ROOT
ATOM      1  C   LIG    1       -1.258   3.410   0.128  0.00  0.00    +0.560 C 
ATOM      2  N   LIG    1       -1.236   2.067   0.019  0.00  0.00    -0.670 N 
ATOM      3  H   LIG    1       -2.068   1.572  -0.047  0.00  0.00    +0.410 HD
ATOM      4  O   LIG    1       -0.216   4.037   0.127  0.00  0.00    -0.510 OA
ENDROOT
BRANCH   1   7
ATOM      5  C   LIG    1       -3.777   6.174   0.476  0.00  0.00    +0.140 A 
ATOM      6  C   LIG    1       -2.569   5.512   0.363  0.00  0.00    -0.020 A 
ATOM      7  C   LIG    1       -2.546   4.120   0.249  0.00  0.00    -0.070 A 
ATOM      8  C   LIG    1       -3.744   3.401   0.245  0.00  0.00    -0.060 A 
ATOM      9  C   LIG    1       -4.949   4.068   0.364  0.00  0.00    +0.150 A 
ATOM     10  C   LIG    1       -4.970   5.455   0.477  0.00  0.00    +0.060 A 
BRANCH   5  12
ATOM     11  C   LIG    1       -2.541   8.204   0.578  0.00  0.00    +0.250 C 
ATOM     12  O   LIG    1       -3.801   7.530   0.586  0.00  0.00    -0.300 OA
ENDBRANCH   5  12
BRANCH   9  13
ATOM     13  O   LIG    1       -6.115   3.368   0.365  0.00  0.00    -0.300 OA
ATOM     14  C   LIG    1       -6.020   1.948   0.246  0.00  0.00    +0.250 C 
ENDBRANCH   9  13
BRANCH  10  15
ATOM     15  O   LIG    1       -6.156   6.109   0.588  0.00  0.00    -0.310 OA
ATOM     16  C   LIG    1       -6.784   6.523  -0.627  0.00  0.00    +0.240 C 
ENDBRANCH  10  15
ENDBRANCH   1   7
BRANCH   2  17
ATOM     17  C   LIG    1       -0.017   1.387   0.002  0.00  0.00    +0.160 A 
ATOM     18  C   LIG    1        1.089   1.961  -0.618  0.00  0.00    +0.030 A 
ATOM     19  C   LIG    1        2.292   1.290  -0.642  0.00  0.00    +0.060 A 
ATOM     20  C   LIG    1        2.401   0.033  -0.044  0.00  0.00    -0.050 A 
ATOM     21  C   LIG    1        1.290  -0.540   0.578  0.00  0.00    +0.090 A 
ATOM     22  C   LIG    1        0.089   0.136   0.599  0.00  0.00    -0.010 A 
BRANCH  20  23
ATOM     23  C   LIG    1        3.690  -0.688  -0.068  0.00  0.00    +0.160 A 
ATOM     24  N   LIG    1        3.894  -1.851   0.455  0.00  0.00    -0.460 NA
ATOM     25  C   LIG    1        5.125  -2.381   0.351  0.00  0.00    +0.080 A 
ATOM     26  C   LIG    1        5.597  -3.622   0.832  0.00  0.00    +0.080 A 
ATOM     27  C   LIG    1        6.891  -3.994   0.632  0.00  0.00    +0.030 A 
ATOM     28  C   LIG    1        7.772  -3.165  -0.048  0.00  0.00    -0.060 A 
ATOM     29  C   LIG    1        7.340  -1.949  -0.530  0.00  0.00    +0.050 A 
ATOM     30  C   LIG    1        9.201  -3.595  -0.260  0.00  0.00    +0.100 C 
ATOM     31  C   LIG    1        6.019  -1.550  -0.334  0.00  0.00    -0.170 A 
ATOM     32  S   LIG    1        5.163  -0.089  -0.818  0.00  0.00    +0.070 S 
ENDBRANCH  20  23
ENDBRANCH   2  17
TORSDOF 6
