REMARK  Name = ZINCrH000004tPPu.0
REMARK                            x       y       z     vdW  Elec       q    Type
REMARK                         _______ _______ _______ _____ _____    ______ ____
ROOT
ATOM      1  O   LIG    1        4.761   1.272  -0.138  0.00  0.00    -0.480 OA
ATOM      2  C   LIG    1        4.783   0.059  -0.145  0.00  0.00    +0.510 C 
ATOM      3  N   LIG    1        3.633  -0.636  -0.036  0.00  0.00    -0.670 N 
ATOM      4  H   LIG    1        3.656  -1.603   0.037  0.00  0.00    +0.410 HD
ENDROOT
BRANCH   3   5
ATOM      5  C   LIG    1        2.407   0.038  -0.026  0.00  0.00    +0.140 A 
ATOM      6  C   LIG    1        1.349  -0.456   0.727  0.00  0.00    +0.000 A 
ATOM      7  C   LIG    1        0.135   0.206   0.739  0.00  0.00    +0.040 A 
ATOM      8  C   LIG    1       -0.034   1.361   0.003  0.00  0.00    +0.020 A 
ATOM      9  C   LIG    1        1.023   1.865  -0.757  0.00  0.00    -0.010 A 
ATOM     10  C   LIG    1        2.247   1.198  -0.769  0.00  0.00    +0.080 A 
BRANCH   9  11
ATOM     11  C   LIG    1        0.845   3.102  -1.547  0.00  0.00    +0.110 A 
ATOM     12  N   LIG    1        1.758   3.666  -2.285  0.00  0.00    -0.460 NA
ATOM     13  C   LIG    1        1.418   4.763  -2.921  0.00  0.00    +0.220 A 
ATOM     14  C   LIG    1        0.164   5.185  -2.727  0.00  0.00    -0.070 A 
ATOM     15  S   LIG    1       -0.634   4.056  -1.634  0.00  0.00    +0.090 S 
ENDBRANCH   9  11
ENDBRANCH   3   5
BRANCH   2  16
ATOM     16  C   LIG    1        6.095  -0.670  -0.274  0.00  0.00    +0.240 C 
BRANCH  16  17
ATOM     17  O   LIG    1        7.160   0.278  -0.374  0.00  0.00    -0.290 OA
BRANCH  17  18
ATOM     18  C   LIG    1        8.419  -0.219  -0.497  0.00  0.00    +0.110 A 
ATOM     19  C   LIG    1        8.624  -1.590  -0.522  0.00  0.00    -0.050 A 
ATOM     20  C   LIG    1        9.903  -2.096  -0.648  0.00  0.00    +0.020 A 
ATOM     21  C   LIG    1       10.984  -1.230  -0.750  0.00  0.00    +0.120 A 
ATOM     22  N   LIG    1       12.282  -1.739  -0.878  0.00  0.00    -0.660 N 
ATOM     23  H   LIG    1       12.414  -2.657  -1.162  0.00  0.00    +0.410 HD
ATOM     24  C   LIG    1       13.348  -0.963  -0.609  0.00  0.00    +0.520 C 
ATOM     25  C   LIG    1       13.169   0.458  -0.148  0.00  0.00    +0.080 C 
ATOM     26  C   LIG    1       11.953   1.079  -0.835  0.00  0.00    +0.110 C 
ATOM     27  O   LIG    1       14.466  -1.414  -0.740  0.00  0.00    -0.530 OA
ATOM     28  C   LIG    1       10.778   0.143  -0.725  0.00  0.00    -0.080 A 
ATOM     29  C   LIG    1        9.499   0.647  -0.605  0.00  0.00    +0.030 A 
ENDBRANCH  17  18
ENDBRANCH  16  17
ENDBRANCH   2  16
TORSDOF 5
