REMARK  Name = ZINCvU00000007jA.0
REMARK                            x       y       z     vdW  Elec       q    Type
REMARK                         _______ _______ _______ _____ _____    ______ ____
ROOT
ATOM      1  C   LIG    1       -0.002   4.250   0.013  0.00  0.00    +0.230 C 
ATOM      2  N   LIG    1       -1.153   3.650   0.021  0.00  0.00    -0.200 NA
ENDROOT
BRANCH   1   6
ATOM      3  C   LIG    1        3.583   1.970  -0.021  0.00  0.00    +0.190 A 
ATOM      4  C   LIG    1        3.642   3.359  -0.014  0.00  0.00    -0.120 A 
ATOM      5  C   LIG    1        2.481   4.102   0.001  0.00  0.00    +0.130 A 
ATOM      6  C   LIG    1        1.241   3.459   0.003  0.00  0.00    -0.130 A 
ATOM      7  C   LIG    1        1.184   2.058   0.002  0.00  0.00    +0.210 A 
ATOM      8  C   LIG    1        2.356   1.322  -0.013  0.00  0.00    -0.120 A 
BRANCH   3   9
ATOM      9  O   LIG    1        4.731   1.245  -0.035  0.00  0.00    -0.310 OA
BRANCH   9  10
ATOM     10  C   LIG    1        5.960   1.975  -0.042  0.00  0.00    +0.200 C 
BRANCH  10  12
ATOM     11  C   LIG    1        8.450   1.776  -0.066  0.00  0.00    +0.040 C 
ATOM     12  C   LIG    1        7.135   0.995  -0.058  0.00  0.00    +0.020 C 
ENDBRANCH  10  12
ENDBRANCH   9  10
ENDBRANCH   3   9
BRANCH   7  13
ATOM     13  O   LIG    1       -0.017   1.425   0.010  0.00  0.00    -0.270 OA
BRANCH  13  14
ATOM     14  C   LIG    1        0.002  -0.004   0.002  0.00  0.00    +0.170 C 
BRANCH  14  15
ATOM     15  C   LIG    1       -1.433  -0.534   0.013  0.00  0.00    +0.040 C 
ATOM     16  C   LIG    1       -1.413  -2.063   0.004  0.00  0.00    +0.030 C 
ENDBRANCH  14  15
ENDBRANCH  13  14
ENDBRANCH   7  13
ENDBRANCH   1   6
BRANCH   2  17
ATOM     17  N   LIG    1       -2.335   4.402   0.030  0.00  0.00    -0.590 N 
ATOM     18  H   LIG    1       -2.293   5.371   0.031  0.00  0.00    +0.380 HD
ATOM     19  C   LIG    1       -3.530   3.779   0.038  0.00  0.00    +0.530 C 
ATOM     20  O   LIG    1       -3.582   2.566   0.037  0.00  0.00    -0.470 OA
BRANCH  19  21
ATOM     21  C   LIG    1       -4.801   4.587   0.048  0.00  0.00    +0.250 C 
BRANCH  21  22
ATOM     22  O   LIG    1       -5.926   3.706   0.055  0.00  0.00    -0.290 OA
BRANCH  22  23
ATOM     23  C   LIG    1       -7.159   4.279   0.065  0.00  0.00    +0.120 A 
ATOM     24  C   LIG    1       -7.282   5.661   0.073  0.00  0.00    -0.080 A 
ATOM     25  C   LIG    1       -8.536   6.241   0.077  0.00  0.00    +0.050 A 
ATOM     26  C   LIG    1       -9.667   5.446   0.084  0.00  0.00    -0.110 A 
ATOM     27  C   LIG    1       -9.546   4.068   0.082  0.00  0.00    +0.060 A 
ATOM     28  C   LIG    1       -8.295   3.483   0.072  0.00  0.00    -0.010 A 
BRANCH  26  29
ATOM     29  C   LIG    1      -11.034   6.081   0.095  0.00  0.00    -0.030 C 
ATOM     30  C   LIG    1      -11.809   5.643  -1.149  0.00  0.00    +0.040 C 
ATOM     31  C   LIG    1      -10.888   7.604   0.096  0.00  0.00    +0.030 C 
ATOM     32  C   LIG    1      -11.791   5.640   1.349  0.00  0.00    +0.040 C 
ENDBRANCH  26  29
ENDBRANCH  22  23
ENDBRANCH  21  22
ENDBRANCH  19  21
ENDBRANCH   2  17
TORSDOF 12
