REMARK  Name = ZINCvU0000000G8F.0
REMARK                            x       y       z     vdW  Elec       q    Type
REMARK                         _______ _______ _______ _____ _____    ______ ____
ROOT
ATOM      1  C   LIG    1       -2.461   3.759   0.017  0.00  0.00    +0.150 C 
ATOM      2  N   LIG    1       -1.254   3.311  -0.028  0.00  0.00    -0.230 NA
ATOM      3  N   LIG    1       -1.159   1.922   0.037  0.00  0.00    -0.460 N 
ATOM      4  C   LIG    1       -2.515   1.357   0.136  0.00  0.00    +0.270 C 
ATOM      5  C   LIG    1       -0.014   1.212   0.009  0.00  0.00    +0.590 C 
ATOM      6  O   LIG    1       -0.053  -0.003  -0.026  0.00  0.00    -0.480 OA
ATOM      7  C   LIG    1       -3.426   2.601   0.130  0.00  0.00    +0.110 C 
ENDROOT
BRANCH   4   8
ATOM      8  C   LIG    1       -2.677   0.590   1.422  0.00  0.00    -0.130 A 
ATOM      9  C   LIG    1       -1.863   0.871   2.503  0.00  0.00    +0.050 A 
ATOM     10  C   LIG    1       -2.016   0.172   3.685  0.00  0.00    +0.010 A 
ATOM     11  C   LIG    1       -2.975  -0.819   3.784  0.00  0.00    +0.060 A 
ATOM     12  C   LIG    1       -3.787  -1.106   2.703  0.00  0.00    -0.010 A 
ATOM     13  C   LIG    1       -3.639  -0.402   1.520  0.00  0.00    +0.110 A 
ATOM     14  F   LIG    1       -4.432  -0.682   0.463  0.00  0.00    -0.130 F 
ENDBRANCH   4   8
BRANCH   5  15
ATOM     15  C   LIG    1        1.288   1.909   0.013  0.00  0.00    -0.140 A 
ATOM     16  C   LIG    1        1.338   3.302  -0.076  0.00  0.00    +0.110 A 
ATOM     17  C   LIG    1        2.557   3.947  -0.071  0.00  0.00    +0.010 A 
ATOM     18  C   LIG    1        3.729   3.218   0.022  0.00  0.00    +0.060 A 
ATOM     19  C   LIG    1        3.689   1.838   0.111  0.00  0.00    +0.010 A 
ATOM     20  C   LIG    1        2.475   1.179   0.112  0.00  0.00    +0.020 A 
ATOM     21 CL   LIG    1        2.425  -0.552   0.230  0.00  0.00    -0.030 Cl
ENDBRANCH   5  15
BRANCH   1  26
ATOM     22  C   LIG    1       -4.541   6.888  -0.026  0.00  0.00    +0.170 A 
ATOM     23  C   LIG    1       -3.560   7.863  -0.130  0.00  0.00    -0.140 A 
ATOM     24  C   LIG    1       -2.221   7.504  -0.186  0.00  0.00    +0.170 A 
ATOM     25  C   LIG    1       -1.858   6.168  -0.139  0.00  0.00    -0.010 A 
ATOM     26  C   LIG    1       -2.842   5.183  -0.034  0.00  0.00    +0.040 A 
ATOM     27  C   LIG    1       -4.188   5.550   0.017  0.00  0.00    -0.020 A 
BRANCH  22  29
ATOM     28  C   LIG    1       -6.144   8.644  -0.026  0.00  0.00    +0.250 C 
ATOM     29  O   LIG    1       -5.851   7.246   0.028  0.00  0.00    -0.310 OA
ENDBRANCH  22  29
BRANCH  24  30
ATOM     30  O   LIG    1       -1.264   8.463  -0.288  0.00  0.00    -0.310 OA
ATOM     31  C   LIG    1       -1.709   9.821  -0.333  0.00  0.00    +0.240 C 
ENDBRANCH  24  30
ENDBRANCH   1  26
TORSDOF 5
