REMARK  Name = ZINCpe000000YuPF.0
REMARK                            x       y       z     vdW  Elec       q    Type
REMARK                         _______ _______ _______ _____ _____    ______ ____
ROOT
ATOM      1  C   LIG    1       -1.054  -3.398   3.180  0.00  0.00    +0.260 C 
ATOM      2  C   LIG    1        0.069  -2.359   3.035  0.00  0.00    +0.330 C 
ATOM      3  N   LIG    1        0.043  -1.840   1.659  0.00  0.00    -0.620 N 
ATOM      4  C   LIG    1        0.045  -2.807   0.551  0.00  0.00    +0.300 C 
ATOM      5  C   LIG    1       -1.071  -3.829   0.793  0.00  0.00    +0.190 C 
ATOM      6  C   LIG    1        0.022  -0.514   1.420  0.00  0.00    +0.500 C 
ATOM      7  O   LIG    1        0.021   0.269   2.346  0.00  0.00    -0.520 OA
ATOM      8  N   LIG    1       -0.911  -4.416   2.130  0.00  0.00    -0.490 NA
ENDROOT
BRANCH   8   9
ATOM      9  C   LIG    1       -1.856  -5.521   2.336  0.00  0.00    +0.140 C 
ATOM     10  C   LIG    1       -2.677  -5.983   1.130  0.00  0.00    +0.040 C 
ATOM     11  C   LIG    1       -3.349  -5.198   2.259  0.00  0.00    -0.010 C 
ENDBRANCH   8   9
BRANCH   1  13
ATOM     12  N   LIG    1       -0.888  -4.534   5.521  0.00  0.00    -0.400 NA
ATOM     13  C   LIG    1       -0.960  -4.040   4.501  0.00  0.00    +0.220 C 
ENDBRANCH   1  13
BRANCH   6  14
ATOM     14  C   LIG    1        0.002  -0.004   0.002  0.00  0.00    +0.330 C 
BRANCH  14  15
ATOM     15  N   LIG    1       -0.018   1.461   0.010  0.00  0.00    -0.590 N 
ATOM     16  C   LIG    1        1.244   2.195   0.002  0.00  0.00    +0.280 C 
ATOM     17  C   LIG    1        1.144   3.450  -0.863  0.00  0.00    +0.090 C 
ATOM     18  C   LIG    1       -0.066   4.252  -0.464  0.00  0.00    -0.050 A 
ATOM     19  C   LIG    1       -0.054   5.628  -0.521  0.00  0.00    +0.000 A 
ATOM     20  C   LIG    1       -1.179   6.345  -0.150  0.00  0.00    +0.040 A 
ATOM     21  C   LIG    1       -2.318   5.689   0.280  0.00  0.00    +0.000 A 
ATOM     22  C   LIG    1       -2.343   4.309   0.343  0.00  0.00    +0.080 A 
ATOM     23  C   LIG    1       -1.214   3.584  -0.030  0.00  0.00    -0.130 A 
ATOM     24  C   LIG    1       -1.201   2.107   0.019  0.00  0.00    +0.570 C 
ATOM     25  O   LIG    1       -2.243   1.483   0.072  0.00  0.00    -0.530 OA
ENDBRANCH  14  15
ENDBRANCH   6  14
TORSDOF 4
