REMARK  Name = ZINCpk00000e1zrD.0
REMARK                            x       y       z     vdW  Elec       q    Type
REMARK                         _______ _______ _______ _____ _____    ______ ____
ROOT
ATOM      1  N   LIG    1       -0.759   1.590  -1.151  0.00  0.00    -0.560 N 
ATOM      2  C   LIG    1       -0.018   1.072   0.005  0.00  0.00    +0.310 C 
ATOM      3  C   LIG    1       -0.773   1.593   1.248  0.00  0.00    +0.010 C 
ATOM      4  C   LIG    1       -2.202   1.793   0.685  0.00  0.00    +0.100 C 
ATOM      5  C   LIG    1       -1.991   1.997  -0.799  0.00  0.00    +0.520 C 
ATOM      6  O   LIG    1       -2.813   2.461  -1.560  0.00  0.00    -0.500 OA
ENDROOT
BRANCH   1  11
ATOM      7  C   LIG    1       -0.557   2.110  -4.789  0.00  0.00    +0.160 A 
ATOM      8  C   LIG    1        0.769   1.775  -5.026  0.00  0.00    -0.100 A 
ATOM      9  C   LIG    1        1.582   1.382  -3.980  0.00  0.00    +0.080 A 
ATOM     10  C   LIG    1        1.079   1.324  -2.695  0.00  0.00    -0.060 A 
ATOM     11  C   LIG    1       -0.248   1.653  -2.452  0.00  0.00    +0.200 A 
ATOM     12  C   LIG    1       -1.066   2.049  -3.501  0.00  0.00    -0.030 A 
BRANCH   7  14
ATOM     13  C   LIG    1       -0.764   2.537  -7.118  0.00  0.00    +0.250 C 
ATOM     14  O   LIG    1       -1.355   2.497  -5.818  0.00  0.00    -0.310 OA
ENDBRANCH   7  14
ENDBRANCH   1  11
BRANCH   3  15
ATOM     15  C   LIG    1       -0.766   0.567   2.352  0.00  0.00    +0.530 C 
ATOM     16  N   LIG    1       -1.376   0.834   3.524  0.00  0.00    -0.730 N 
ATOM     17  H   LIG    1       -1.820   1.686   3.657  0.00  0.00    +0.410 HD
ATOM     18  O   LIG    1       -0.211  -0.499   2.187  0.00  0.00    -0.530 OA
BRANCH  16  19
ATOM     19  C   LIG    1       -1.369  -0.163   4.598  0.00  0.00    +0.280 C 
BRANCH  19  20
ATOM     20  C   LIG    1       -2.124   0.387   5.809  0.00  0.00    +0.010 C 
BRANCH  20  21
ATOM     21  C   LIG    1       -2.117  -0.654   6.930  0.00  0.00    +0.310 C 
BRANCH  21  22
ATOM     22  N   LIG    1       -2.841  -0.128   8.090  0.00  0.00    -0.460 N 
ATOM     23  C   LIG    1       -2.303   0.587   9.127  0.00  0.00    +0.110 A 
ATOM     24  C   LIG    1       -3.315   0.872   9.969  0.00  0.00    +0.140 A 
ATOM     25  N   LIG    1       -4.437   0.339   9.465  0.00  0.00    -0.490 NA
ATOM     26  C   LIG    1       -4.161  -0.262   8.340  0.00  0.00    +0.380 A 
ENDBRANCH  21  22
ENDBRANCH  20  21
ENDBRANCH  19  20
ENDBRANCH  16  19
ENDBRANCH   3  15
TORSDOF 7
