REMARK  Name = ZINCvU00000009vG.0
REMARK                            x       y       z     vdW  Elec       q    Type
REMARK                         _______ _______ _______ _____ _____    ______ ____
ROOT
ATOM      1  N   LIG    1        2.189   4.102  -0.885  0.00  0.00    -0.730 N 
ATOM      2  H   LIG    1        2.969   3.559  -1.080  0.00  0.00    +0.400 HD
ATOM      3  C   LIG    1        2.064   5.325  -1.438  0.00  0.00    +0.520 C 
ATOM      4  O   LIG    1        1.090   6.004  -1.194  0.00  0.00    -0.520 OA
ENDROOT
BRANCH   1   5
ATOM      5  C   LIG    1        1.147   3.593   0.010  0.00  0.00    +0.340 C 
BRANCH   5   9
ATOM      6  C   LIG    1        1.213  -0.680  -0.013  0.00  0.00    +0.130 A 
ATOM      7  C   LIG    1        0.002  -0.004   0.002  0.00  0.00    -0.020 A 
ATOM      8  C   LIG    1       -0.017   1.377   0.010  0.00  0.00    +0.070 A 
ATOM      9  C   LIG    1        1.171   2.086   0.002  0.00  0.00    -0.130 A 
ATOM     10  C   LIG    1        2.379   1.415  -0.013  0.00  0.00    +0.050 A 
ATOM     11  C   LIG    1        2.403   0.033  -0.021  0.00  0.00    -0.070 A 
BRANCH   6  13
ATOM     12  C   LIG    1        2.518  -2.668  -0.036  0.00  0.00    +0.250 C 
ATOM     13  O   LIG    1        1.234  -2.039  -0.020  0.00  0.00    -0.320 OA
ENDBRANCH   6  13
ENDBRANCH   5   9
BRANCH   5  14
ATOM     14  C   LIG    1        1.399   4.092   1.409  0.00  0.00    -0.090 A 
ATOM     15  C   LIG    1        2.689   4.138   1.905  0.00  0.00    +0.020 A 
ATOM     16  C   LIG    1        2.920   4.600   3.187  0.00  0.00    +0.000 A 
ATOM     17  C   LIG    1        1.861   5.007   3.977  0.00  0.00    +0.000 A 
ATOM     18  C   LIG    1        0.571   4.956   3.483  0.00  0.00    +0.000 A 
ATOM     19  C   LIG    1        0.340   4.498   2.200  0.00  0.00    +0.020 A 
ENDBRANCH   5  14
ENDBRANCH   1   5
BRANCH   3  20
ATOM     20  C   LIG    1        3.136   5.849  -2.358  0.00  0.00    +0.120 C 
BRANCH  20  21
ATOM     21  C   LIG    1        2.759   7.227  -2.836  0.00  0.00    -0.120 A 
ATOM     22  C   LIG    1        2.030   7.377  -3.981  0.00  0.00    -0.010 A 
ATOM     23  C   LIG    1        1.695   8.682  -4.389  0.00  0.00    -0.100 A 
ATOM     24  C   LIG    1        0.943   8.915  -5.552  0.00  0.00    +0.040 A 
ATOM     25  C   LIG    1        0.644  10.193  -5.916  0.00  0.00    +0.010 A 
ATOM     26  C   LIG    1        1.074  11.273  -5.149  0.00  0.00    +0.030 A 
ATOM     27  C   LIG    1        1.803  11.084  -4.015  0.00  0.00    +0.040 A 
ATOM     28  C   LIG    1        2.132   9.780  -3.607  0.00  0.00    +0.140 A 
ATOM     29  N   LIG    1        2.848   9.564  -2.498  0.00  0.00    -0.480 NA
ATOM     30  C   LIG    1        1.591   6.179  -4.783  0.00  0.00    +0.120 C 
ATOM     31  C   LIG    1        3.158   8.350  -2.114  0.00  0.00    +0.180 A 
ATOM     32  C   LIG    1        3.966   8.163  -0.856  0.00  0.00    +0.120 C 
ENDBRANCH  20  21
ENDBRANCH   3  20
TORSDOF 6
