REMARK  Name = ZINCpe000000WgK4.0
REMARK                            x       y       z     vdW  Elec       q    Type
REMARK                         _______ _______ _______ _____ _____    ______ ____
ROOT
ATOM      1  C   LIG    1       -1.304   2.115   0.020  0.00  0.00    +0.560 C 
ATOM      2  N   LIG    1       -1.321   3.462   0.027  0.00  0.00    -0.710 N 
ATOM      3  H   LIG    1       -0.487   3.958   0.026  0.00  0.00    +0.410 HD
ATOM      4  O   LIG    1       -2.350   1.494   0.021  0.00  0.00    -0.530 OA
ENDROOT
BRANCH   1   7
ATOM      5  C   LIG    1        1.209  -0.678  -0.013  0.00  0.00    +0.140 A 
ATOM      6  C   LIG    1        0.002  -0.004   0.002  0.00  0.00    -0.020 A 
ATOM      7  C   LIG    1       -0.017   1.393   0.010  0.00  0.00    -0.060 A 
ATOM      8  C   LIG    1        1.185   2.105   0.002  0.00  0.00    -0.060 A 
ATOM      9  C   LIG    1        2.389   1.427  -0.014  0.00  0.00    +0.140 A 
ATOM     10  C   LIG    1        2.405   0.035  -0.021  0.00  0.00    +0.050 A 
BRANCH   5  12
ATOM     11  C   LIG    1       -0.036  -2.704  -0.012  0.00  0.00    +0.250 C 
ATOM     12  O   LIG    1        1.228  -2.038  -0.021  0.00  0.00    -0.300 OA
ENDBRANCH   5  12
BRANCH   9  13
ATOM     13  O   LIG    1        3.559   2.120  -0.021  0.00  0.00    -0.300 OA
ATOM     14  C   LIG    1        3.469   3.546  -0.013  0.00  0.00    +0.250 C 
ENDBRANCH   9  13
BRANCH  10  15
ATOM     15  O   LIG    1        3.591  -0.630  -0.037  0.00  0.00    -0.310 OA
ATOM     16  C   LIG    1        4.143  -0.940  -1.318  0.00  0.00    +0.230 C 
ENDBRANCH  10  15
ENDBRANCH   1   7
BRANCH   2  17
ATOM     17  C   LIG    1       -2.599   4.179   0.037  0.00  0.00    +0.320 C 
BRANCH  17  18
ATOM     18  C   LIG    1       -2.342   5.664   0.044  0.00  0.00    +0.500 C 
ATOM     19  O   LIG    1       -1.201   6.083   0.041  0.00  0.00    -0.570 OA
BRANCH  18  20
ATOM     20  N   LIG    1       -3.364   6.515   0.053  0.00  0.00    -0.680 NA
ATOM     21  C   LIG    1       -3.136   7.828   0.059  0.00  0.00    +0.490 A 
ATOM     22  C   LIG    1       -1.875   8.458   0.056  0.00  0.00    -0.110 A 
ATOM     23  C   LIG    1       -2.071   9.795   0.065  0.00  0.00    +0.350 A 
ATOM     24  N   LIG    1       -3.411  10.046   0.073  0.00  0.00    -0.390 N 
ATOM     25  C   LIG    1       -4.036  11.370   0.084  0.00  0.00    +0.370 C 
ATOM     26  N   LIG    1       -4.087   8.818   0.064  0.00  0.00    -0.470 N 
ATOM     27  H   LIG    1       -5.049   8.692   0.063  0.00  0.00    +0.450 HD
ENDBRANCH  18  20
ENDBRANCH  17  18
ENDBRANCH   2  17
TORSDOF 7
