REMARK  Name = ZINCpe00000VVGiM.0
REMARK                            x       y       z     vdW  Elec       q    Type
REMARK                         _______ _______ _______ _____ _____    ______ ____
ROOT
ATOM      1  C   LIG    1       -8.648   1.191   0.076  0.00  0.00    +0.270 C 
ATOM      2  C   LIG    1       -8.073   2.506   0.665  0.00  0.00    +0.030 C 
ATOM      3  C   LIG    1       -6.653   2.529   0.047  0.00  0.00    +0.250 C 
ATOM      4  N   LIG    1       -6.223   1.118   0.038  0.00  0.00    -0.610 N 
ATOM      5  C   LIG    1       -4.946   0.686   0.029  0.00  0.00    +0.530 C 
ATOM      6  O   LIG    1       -4.708  -0.503   0.022  0.00  0.00    -0.530 OA
ATOM      7  C   LIG    1       -7.417   0.261   0.033  0.00  0.00    +0.240 C 
ENDROOT
BRANCH   1   8
ATOM      8  N   LIG    1       -9.687   0.642   0.951  0.00  0.00    -0.580 N 
BRANCH   8   9
ATOM      9  C   LIG    1       -9.388   0.324   2.264  0.00  0.00    +0.600 A 
ATOM     10  N   LIG    1      -10.340  -0.167   3.043  0.00  0.00    -0.580 NA
ATOM     11  C   LIG    1      -10.090  -0.488   4.303  0.00  0.00    +0.240 A 
ATOM     12  C   LIG    1       -8.818  -0.296   4.810  0.00  0.00    -0.150 A 
ATOM     13  C   LIG    1       -7.838   0.228   3.967  0.00  0.00    +0.400 A 
ATOM     14  C   LIG    1      -11.181  -1.052   5.177  0.00  0.00    +0.150 C 
ATOM     15  N   LIG    1       -8.157   0.522   2.713  0.00  0.00    -0.610 NA
BRANCH  13  16
ATOM     16  O   LIG    1       -6.579   0.432   4.422  0.00  0.00    -0.300 OA
ATOM     17  C   LIG    1       -5.634   0.971   3.496  0.00  0.00    +0.260 C 
ENDBRANCH  13  16
ENDBRANCH   8   9
BRANCH   8  19
ATOM     18  C   LIG    1      -11.149  -0.980  -0.149  0.00  0.00    +0.010 C 
ATOM     19  C   LIG    1      -11.042   0.429   0.436  0.00  0.00    +0.300 C 
ENDBRANCH   8  19
ENDBRANCH   1   8
BRANCH   5  20
ATOM     20  C   LIG    1       -3.814   1.681   0.029  0.00  0.00    +0.040 C 
BRANCH  20  21
ATOM     21  C   LIG    1       -2.479   0.934   0.019  0.00  0.00    +0.070 C 
BRANCH  21  22
ATOM     22  C   LIG    1       -1.330   1.944   0.019  0.00  0.00    +0.060 C 
BRANCH  22  23
ATOM     23  C   LIG    1       -0.014   1.209   0.009  0.00  0.00    +0.510 C 
ATOM     24  O   LIG    1        0.002  -0.004   0.002  0.00  0.00    -0.540 OA
ATOM     25  N   LIG    1        1.143   1.898   0.001  0.00  0.00    -0.860 N 
ATOM     26  H   LIG    1        1.130   2.868   0.007  0.00  0.00    +0.400 HD
ATOM     27  H   LIG    1        1.990   1.425  -0.009  0.00  0.00    +0.400 HD
ENDBRANCH  22  23
ENDBRANCH  21  22
ENDBRANCH  20  21
ENDBRANCH   5  20
TORSDOF 8
