REMARK  Name = ZINCtV000002JLmu.0
REMARK                            x       y       z     vdW  Elec       q    Type
REMARK                         _______ _______ _______ _____ _____    ______ ____
ROOT
ATOM      1  C   LIG    1       -0.092  -6.880   0.503  0.00  0.00    +0.170 C 
ATOM      2  C   LIG    1        1.392  -7.098   0.650  0.00  0.00    +0.180 A 
ATOM      3  C   LIG    1        2.312  -6.094   0.502  0.00  0.00    -0.320 A 
ATOM      4  S   LIG    1        3.911  -6.790   0.750  0.00  0.00    +0.220 S 
ATOM      5  C   LIG    1        3.214  -8.325   1.032  0.00  0.00    +0.080 A 
ATOM      6  N   LIG    1        1.916  -8.262   0.930  0.00  0.00    -0.470 NA
ENDROOT
BRANCH   5   7
ATOM      7  C   LIG    1        3.976  -9.552   1.343  0.00  0.00    -0.010 A 
ATOM      8  C   LIG    1        5.369  -9.511   1.424  0.00  0.00    +0.040 A 
ATOM      9  C   LIG    1        6.074 -10.659   1.720  0.00  0.00    +0.080 A 
ATOM     10  C   LIG    1        5.404 -11.852   1.924  0.00  0.00    -0.160 A 
ATOM     11  C   LIG    1        4.024 -11.902   1.839  0.00  0.00    +0.080 A 
ATOM     12  C   LIG    1        3.307 -10.759   1.550  0.00  0.00    +0.080 A 
BRANCH  10  13
ATOM     13  C   LIG    1        6.181 -13.104   2.241  0.00  0.00    +0.510 C 
ATOM     14  F   LIG    1        5.402 -13.947   3.039  0.00  0.00    -0.170 F 
ATOM     15  F   LIG    1        7.353 -12.765   2.926  0.00  0.00    -0.170 F 
ATOM     16  F   LIG    1        6.511 -13.762   1.051  0.00  0.00    -0.170 F 
ENDBRANCH  10  13
ENDBRANCH   5   7
BRANCH   3  17
ATOM     17  C   LIG    1        2.018  -4.694   0.188  0.00  0.00    +0.600 C 
ATOM     18  N   LIG    1        3.025  -3.835  -0.067  0.00  0.00    -0.530 N 
ATOM     19  C   LIG    1        4.401  -4.327  -0.160  0.00  0.00    +0.340 C 
ATOM     20  O   LIG    1        0.865  -4.306   0.158  0.00  0.00    -0.440 OA
BRANCH  18  21
ATOM     21  C   LIG    1        2.758  -2.488  -0.241  0.00  0.00    +0.340 A 
ATOM     22  N   LIG    1        1.586  -1.956  -0.180  0.00  0.00    -0.470 NA
ATOM     23  C   LIG    1        1.486  -0.627  -0.372  0.00  0.00    +0.110 A 
ATOM     24  C   LIG    1        0.331   0.184  -0.357  0.00  0.00    +0.070 A 
ATOM     25  C   LIG    1        0.426   1.535  -0.577  0.00  0.00    +0.040 A 
ATOM     26  C   LIG    1        1.658   2.125  -0.818  0.00  0.00    +0.040 A 
ATOM     27  C   LIG    1        2.799   1.354  -0.838  0.00  0.00    +0.060 A 
ATOM     28  C   LIG    1        2.721  -0.018  -0.617  0.00  0.00    -0.180 A 
ATOM     29  S   LIG    1        3.970  -1.260  -0.579  0.00  0.00    +0.070 S 
ENDBRANCH  18  21
ENDBRANCH   3  17
TORSDOF 4
