REMARK  Name = ZINCrH000004rZIZ.0
REMARK                            x       y       z     vdW  Elec       q    Type
REMARK                         _______ _______ _______ _____ _____    ______ ____
ROOT
ATOM      1  N   LIG    1       -2.152   1.137  -1.183  0.00  0.00    -0.530 NA
ATOM      2  C   LIG    1       -0.755   1.594  -1.231  0.00  0.00    +0.150 C 
ATOM      3  C   LIG    1       -0.013   1.086   0.008  0.00  0.00    +0.230 C 
ATOM      4  O   LIG    1       -0.685   1.548   1.184  0.00  0.00    -0.360 OA
ATOM      5  C   LIG    1       -2.050   1.145   1.260  0.00  0.00    +0.170 C 
ATOM      6  C   LIG    1       -2.141  -0.388   1.367  0.00  0.00    +0.050 C 
ATOM      7  C   LIG    1       -2.184  -0.610   2.894  0.00  0.00    +0.080 C 
ATOM      8  C   LIG    1       -2.765   0.667   3.463  0.00  0.00    -0.070 A 
ATOM      9  C   LIG    1       -3.318   0.925   4.706  0.00  0.00    +0.010 A 
ATOM     10  C   LIG    1       -3.791   2.187   5.009  0.00  0.00    +0.020 A 
ATOM     11  C   LIG    1       -3.713   3.197   4.068  0.00  0.00    +0.000 A 
ATOM     12  C   LIG    1       -3.162   2.942   2.827  0.00  0.00    +0.040 A 
ATOM     13  C   LIG    1       -2.687   1.678   2.521  0.00  0.00    -0.090 A 
ATOM     14  C   LIG    1       -2.819   1.628   0.033  0.00  0.00    +0.190 C 
ENDROOT
BRANCH   1  15
ATOM     15  C   LIG    1       -2.882   1.550  -2.388  0.00  0.00    +0.360 C 
BRANCH  15  19
ATOM     16  C   LIG    1       -1.914  -0.551  -5.139  0.00  0.00    +0.220 A 
ATOM     17  N   LIG    1       -1.100   0.467  -5.250  0.00  0.00    -0.370 NA
ATOM     18  O   LIG    1       -1.320   1.274  -4.372  0.00  0.00    +0.070 OA
ATOM     19  C   LIG    1       -2.313   0.840  -3.589  0.00  0.00    +0.190 A 
ATOM     20  N   LIG    1       -2.702  -0.316  -4.066  0.00  0.00    -0.460 NA
BRANCH  16  27
ATOM     21  C   LIG    1       -0.079  -0.756  -7.367  0.00  0.00    +0.100 C 
ATOM     22  C   LIG    1       -1.083  -1.847  -7.101  0.00  0.00    -0.050 A 
ATOM     23  C   LIG    1       -1.133  -2.955  -7.922  0.00  0.00    +0.000 A 
ATOM     24  C   LIG    1       -2.054  -3.958  -7.679  0.00  0.00    +0.040 A 
ATOM     25  C   LIG    1       -2.930  -3.857  -6.614  0.00  0.00    +0.000 A 
ATOM     26  C   LIG    1       -2.885  -2.755  -5.783  0.00  0.00    +0.070 A 
ATOM     27  C   LIG    1       -1.963  -1.740  -6.026  0.00  0.00    -0.030 A 
ENDBRANCH  16  27
ENDBRANCH  15  19
ENDBRANCH   1  15
TORSDOF 3
