REMARK  Name = ZINCrH000004sraQ.0
REMARK                            x       y       z     vdW  Elec       q    Type
REMARK                         _______ _______ _______ _____ _____    ______ ____
ROOT
ATOM      1  C   LIG    1       -8.235   4.510   0.429  0.00  0.00    +0.110 C 
ATOM      2  C   LIG    1       -8.399   3.014   0.704  0.00  0.00    +0.040 C 
ATOM      3  C   LIG    1       -7.585   2.218  -0.321  0.00  0.00    +0.280 C 
ATOM      4  N   LIG    1       -6.194   2.689  -0.289  0.00  0.00    -0.610 N 
ATOM      5  C   LIG    1       -5.930   4.126  -0.447  0.00  0.00    +0.280 C 
ATOM      6  C   LIG    1       -5.178   1.820  -0.111  0.00  0.00    +0.520 C 
ATOM      7  O   LIG    1       -5.401   0.629  -0.067  0.00  0.00    -0.540 OA
ATOM      8  C   LIG    1       -6.763   4.900   0.574  0.00  0.00    +0.020 C 
ENDROOT
BRANCH   1  14
ATOM      9  C   LIG    1      -12.037   7.057   2.472  0.00  0.00    +0.140 C 
ATOM     10  C   LIG    1      -10.694   6.393   2.301  0.00  0.00    +0.000 A 
ATOM     11  C   LIG    1       -9.709   6.354   3.218  0.00  0.00    -0.030 A 
ATOM     12  N   LIG    1       -8.673   5.658   2.656  0.00  0.00    -0.560 N 
ATOM     13  H   LIG    1       -7.819   5.461   3.071  0.00  0.00    +0.420 HD
ATOM     14  C   LIG    1       -9.062   5.296   1.414  0.00  0.00    +0.220 A 
ATOM     15  C   LIG    1       -9.740   6.959   4.597  0.00  0.00    +0.130 C 
ATOM     16  N   LIG    1      -10.270   5.743   1.207  0.00  0.00    -0.480 NA
ENDBRANCH   1  14
BRANCH   6  17
ATOM     17  C   LIG    1       -3.767   2.329   0.031  0.00  0.00    +0.000 C 
ATOM     18  C   LIG    1       -3.521   2.751   1.481  0.00  0.00    +0.060 C 
BRANCH  17  19
ATOM     19  C   LIG    1       -2.784   1.221  -0.352  0.00  0.00    +0.070 C 
BRANCH  19  20
ATOM     20  C   LIG    1       -1.379   1.766  -0.328  0.00  0.00    +0.400 C 
ATOM     21  O   LIG    1       -1.183   2.926  -0.033  0.00  0.00    -0.440 OA
BRANCH  20  22
ATOM     22  C   LIG    1       -0.246   0.891  -0.661  0.00  0.00    -0.210 A 
ATOM     23  C   LIG    1       -0.467  -0.448  -1.001  0.00  0.00    +0.100 A 
ATOM     24  C   LIG    1        0.600  -1.260  -1.318  0.00  0.00    +0.000 A 
ATOM     25  C   LIG    1        1.889  -0.757  -1.300  0.00  0.00    +0.080 A 
ATOM     26  C   LIG    1        2.120   0.565  -0.966  0.00  0.00    -0.030 A 
ATOM     27  C   LIG    1        1.062   1.395  -0.646  0.00  0.00    +0.160 A 
ATOM     28  F   LIG    1        1.287   2.686  -0.319  0.00  0.00    -0.120 F 
ENDBRANCH  20  22
ENDBRANCH  19  20
ENDBRANCH  17  19
ENDBRANCH   6  17
TORSDOF 5
