REMARK  Name = ZINCrg000000sdFc.0
REMARK                            x       y       z     vdW  Elec       q    Type
REMARK                         _______ _______ _______ _____ _____    ______ ____
ROOT
ATOM      1  C   LIG    1       -2.529   1.678   0.037  0.00  0.00    +0.370 C 
ENDROOT
BRANCH   1   6
ATOM      2  C   LIG    1        1.011   2.801   0.086  0.00  0.00    +0.220 C 
ATOM      3  N   LIG    1        0.225   4.045   0.017  0.00  0.00    -0.710 N 
ATOM      4  H   LIG    1        0.573   4.950  -0.012  0.00  0.00    +0.440 HD
ATOM      5  C   LIG    1       -1.070   3.681   0.003  0.00  0.00    +0.710 C 
ATOM      6  N   LIG    1       -1.228   2.353   0.048  0.00  0.00    -0.560 N 
ATOM      7  O   LIG    1       -1.993   4.470  -0.051  0.00  0.00    -0.530 OA
ATOM      8  C   LIG    1        1.848   2.763   1.366  0.00  0.00    +0.110 C 
ATOM      9  C   LIG    1       -0.044   1.713   0.106  0.00  0.00    +0.540 C 
ATOM     10  O   LIG    1        0.140   0.516   0.158  0.00  0.00    -0.440 OA
BRANCH   2  15
ATOM     11  C   LIG    1        3.562   0.744  -3.749  0.00  0.00    +0.180 C 
ATOM     12  C   LIG    1        3.001   1.769  -2.797  0.00  0.00    +0.010 A 
ATOM     13  C   LIG    1        3.223   3.095  -2.848  0.00  0.00    -0.060 A 
ATOM     14  C   LIG    1        2.504   3.672  -1.776  0.00  0.00    -0.020 A 
ATOM     15  C   LIG    1        1.892   2.663  -1.130  0.00  0.00    -0.040 A 
ATOM     16  O   LIG    1        2.193   1.514  -1.755  0.00  0.00    -0.160 OA
ENDBRANCH   2  15
ENDBRANCH   1   6
BRANCH   1  17
ATOM     17  C   LIG    1       -3.014   1.503   1.453  0.00  0.00    +0.500 C 
ATOM     18  N   LIG    1       -4.197   0.902   1.690  0.00  0.00    -0.670 N 
ATOM     19  H   LIG    1       -4.771   0.652   0.949  0.00  0.00    +0.420 HD
ATOM     20  O   LIG    1       -2.341   1.902   2.379  0.00  0.00    -0.500 OA
BRANCH  18  21
ATOM     21  C   LIG    1       -4.596   0.640   3.001  0.00  0.00    +0.180 A 
ATOM     22  C   LIG    1       -3.646   0.319   3.965  0.00  0.00    +0.010 A 
ATOM     23  C   LIG    1       -4.036   0.065   5.260  0.00  0.00    +0.070 A 
ATOM     24  C   LIG    1       -5.389   0.120   5.604  0.00  0.00    -0.160 A 
ATOM     25  C   LIG    1       -6.342   0.437   4.632  0.00  0.00    +0.100 A 
ATOM     26  C   LIG    1       -5.945   0.696   3.340  0.00  0.00    -0.010 A 
BRANCH  24  27
ATOM     27  C   LIG    1       -5.812  -0.157   6.991  0.00  0.00    +0.570 C 
ATOM     28  O   LIG    1       -6.990  -0.109   7.289  0.00  0.00    -0.540 OA
ATOM     29  N   LIG    1       -4.892  -0.464   7.927  0.00  0.00    -0.850 N 
ATOM     30  H   LIG    1       -5.169  -0.645   8.839  0.00  0.00    +0.410 HD
ATOM     31  H   LIG    1       -3.952  -0.502   7.689  0.00  0.00    +0.400 HD
ENDBRANCH  24  27
ENDBRANCH  18  21
ENDBRANCH   1  17
TORSDOF 5
