REMARK  Name = ZINCrg00000fSC0V.1
REMARK                            x       y       z     vdW  Elec       q    Type
REMARK                         _______ _______ _______ _____ _____    ______ ____
ROOT
ATOM      1  O   LIG    1        2.065  -0.097   1.255  0.00  0.00    -0.590 OA
ATOM      2  C   LIG    1        2.331   0.926   0.654  0.00  0.00    +0.710 C 
ATOM      3  N   LIG    1        1.362   1.593  -0.002  0.00  0.00    -0.730 N 
ATOM      4  H   LIG    1        1.574   2.409  -0.482  0.00  0.00    +0.400 HD
ATOM      5  N   LIG    1        3.596   1.392   0.645  0.00  0.00    -0.730 N 
ATOM      6  H   LIG    1        3.808   2.208   0.165  0.00  0.00    +0.410 HD
ENDROOT
BRANCH   3   7
ATOM      7  C   LIG    1       -0.013   1.086   0.008  0.00  0.00    +0.380 C 
BRANCH   7   8
ATOM      8  C   LIG    1       -0.742   1.585  -1.213  0.00  0.00    -0.100 A 
ATOM      9  C   LIG    1       -0.551   2.883  -1.648  0.00  0.00    +0.080 A 
ATOM     10  C   LIG    1       -1.215   3.341  -2.771  0.00  0.00    -0.010 A 
ATOM     11  C   LIG    1       -2.080   2.501  -3.453  0.00  0.00    +0.100 A 
ATOM     12  C   LIG    1       -2.274   1.203  -3.013  0.00  0.00    -0.010 A 
ATOM     13  F   LIG    1       -2.733   2.949  -4.547  0.00  0.00    -0.140 F 
ATOM     14  C   LIG    1       -1.605   0.746  -1.893  0.00  0.00    +0.070 A 
ENDBRANCH   7   8
BRANCH   7  15
ATOM     15  C   LIG    1       -0.718   1.572   1.248  0.00  0.00    +0.110 A 
ATOM     16  C   LIG    1       -1.133   0.660   2.200  0.00  0.00    +0.000 A 
ATOM     17  C   LIG    1       -1.776   1.118   3.339  0.00  0.00    +0.060 A 
ATOM     18  C   LIG    1       -1.989   2.481   3.474  0.00  0.00    -0.030 A 
ATOM     19  C   LIG    1       -1.551   3.333   2.478  0.00  0.00    +0.260 A 
ATOM     20  N   LIG    1       -0.938   2.862   1.409  0.00  0.00    -0.470 NA
ENDBRANCH   7  15
ENDBRANCH   3   7
BRANCH   5  21
ATOM     21  C   LIG    1        4.649   0.667   1.359  0.00  0.00    +0.320 C 
BRANCH  21  22
ATOM     22  C   LIG    1        5.960   1.392   1.192  0.00  0.00    +0.510 C 
ATOM     23  N   LIG    1        7.077   0.905   1.766  0.00  0.00    -0.610 N 
ATOM     24  C   LIG    1        7.039  -0.330   2.565  0.00  0.00    +0.280 C 
ATOM     25  C   LIG    1        7.706  -0.064   3.913  0.00  0.00    +0.170 C 
ATOM     26  N   LIG    1        9.047   0.493   3.694  0.00  0.00    -0.690 NA
ATOM     27  H   LIG    1        9.554   0.570   4.563  0.00  0.00    +0.350 HD
ATOM     28  C   LIG    1        8.980   1.790   3.007  0.00  0.00    +0.170 C 
ATOM     29  C   LIG    1        8.367   1.597   1.616  0.00  0.00    +0.290 C 
ATOM     30  O   LIG    1        6.009   2.414   0.541  0.00  0.00    -0.540 OA
ENDBRANCH  21  22
ENDBRANCH   5  21
TORSDOF 5
