REMARK  Name = ZINCqH0000000u42.0
REMARK                            x       y       z     vdW  Elec       q    Type
REMARK                         _______ _______ _______ _____ _____    ______ ____
ROOT
ATOM      1  N   LIG    1        1.164   4.073   1.400  0.00  0.00    -0.700 N 
ATOM      2  H   LIG    1        1.173   3.440   2.135  0.00  0.00    +0.410 HD
ENDROOT
BRANCH   1   3
ATOM      3  C   LIG    1        1.152   5.434   1.658  0.00  0.00    +0.450 A 
ATOM      4  N   LIG    1        1.146   6.309   0.659  0.00  0.00    -0.560 NA
ATOM      5  C   LIG    1        1.129   7.612   0.903  0.00  0.00    +0.390 A 
ATOM      6  N   LIG    1        1.129   8.088   2.139  0.00  0.00    -0.540 NA
ATOM      7  C   LIG    1        1.139   7.272   3.183  0.00  0.00    +0.200 A 
ATOM      8  C   LIG    1        1.137   7.828   4.584  0.00  0.00    +0.140 C 
ATOM      9  C   LIG    1        1.151   5.907   2.973  0.00  0.00    -0.250 A 
ATOM     10  C   LIG    1        1.163   4.949   4.137  0.00  0.00    +0.110 C 
BRANCH   5  11
ATOM     11  C   LIG    1        1.117   8.561  -0.238  0.00  0.00    +0.000 A 
ATOM     12  C   LIG    1        1.124   8.099  -1.557  0.00  0.00    +0.020 A 
ATOM     13  C   LIG    1        1.107   9.016  -2.588  0.00  0.00    +0.250 A 
ATOM     14  N   LIG    1        1.095  10.312  -2.341  0.00  0.00    -0.470 NA
ATOM     15  C   LIG    1        1.094  10.790  -1.112  0.00  0.00    +0.250 A 
ATOM     16  C   LIG    1        1.105   9.942  -0.023  0.00  0.00    +0.020 A 
ENDBRANCH   5  11
ENDBRANCH   1   3
BRANCH   1  17
ATOM     17  C   LIG    1        1.165   3.589   0.018  0.00  0.00    +0.330 C 
BRANCH  17  22
ATOM     18  C   LIG    1        0.004  -0.008   0.009  0.00  0.00    +0.140 A 
ATOM     19  C   LIG    1        1.216  -0.687   0.002  0.00  0.00    +0.030 A 
ATOM     20  C   LIG    1        2.402   0.021   0.001  0.00  0.00    +0.030 A 
ATOM     21  C   LIG    1        2.385   1.403   0.006  0.00  0.00    +0.020 A 
ATOM     22  C   LIG    1        1.180   2.082   0.012  0.00  0.00    -0.100 A 
ATOM     23  C   LIG    1       -0.010   1.381   0.014  0.00  0.00    +0.010 A 
BRANCH  18  26
ATOM     24  C   LIG    1       -2.618  -2.600  -0.750  0.00  0.00    +0.110 C 
ATOM     25  C   LIG    1       -1.294  -1.884  -0.665  0.00  0.00    +0.510 C 
ATOM     26  N   LIG    1       -1.199  -0.722   0.010  0.00  0.00    -0.680 N 
ATOM     27  H   LIG    1       -1.965  -0.379   0.497  0.00  0.00    +0.410 HD
ATOM     28  O   LIG    1       -0.315  -2.355  -1.203  0.00  0.00    -0.520 OA
ENDBRANCH  18  26
ENDBRANCH  17  22
ENDBRANCH   1  17
TORSDOF 5
