REMARK  Name = ZINCrH00000tj16V.0
REMARK                            x       y       z     vdW  Elec       q    Type
REMARK                         _______ _______ _______ _____ _____    ______ ____
ROOT
ATOM      1  N   LIG    1        5.095  -3.986  -0.066  0.00  0.00    -0.570 N 
ATOM      2  C   LIG    1        4.926  -2.676   0.198  0.00  0.00    +0.520 C 
ATOM      3  O   LIG    1        5.888  -1.972   0.418  0.00  0.00    -0.480 OA
ENDROOT
BRANCH   1   9
ATOM      4  C   LIG    1        9.339  -4.269  -2.531  0.00  0.00    +0.090 C 
ATOM      5  C   LIG    1        8.464  -4.669  -1.371  0.00  0.00    -0.070 A 
ATOM      6  C   LIG    1        8.937  -5.559  -0.424  0.00  0.00    +0.010 A 
ATOM      7  C   LIG    1        8.137  -5.928   0.641  0.00  0.00    -0.070 A 
ATOM      8  C   LIG    1        6.863  -5.409   0.763  0.00  0.00    +0.010 A 
ATOM      9  C   LIG    1        6.386  -4.514  -0.186  0.00  0.00    +0.140 A 
ATOM     10  C   LIG    1        8.656  -6.898   1.671  0.00  0.00    +0.090 C 
ATOM     11  C   LIG    1        7.189  -4.150  -1.258  0.00  0.00    +0.010 A 
ENDBRANCH   1   9
BRANCH   2  12
ATOM     12  C   LIG    1        3.539  -2.085   0.220  0.00  0.00    +0.240 C 
BRANCH  12  13
ATOM     13  O   LIG    1        3.621  -0.690   0.521  0.00  0.00    -0.280 OA
BRANCH  13  14
ATOM     14  C   LIG    1        2.450  -0.002   0.580  0.00  0.00    +0.130 A 
ATOM     15  C   LIG    1        1.250  -0.660   0.352  0.00  0.00    -0.030 A 
ATOM     16  C   LIG    1        0.055   0.036   0.410  0.00  0.00    +0.050 A 
ATOM     17  C   LIG    1        0.050   1.383   0.695  0.00  0.00    +0.050 A 
ATOM     18  C   LIG    1        1.258   2.060   0.927  0.00  0.00    -0.150 A 
ATOM     19  C   LIG    1        1.504   3.477   1.243  0.00  0.00    +0.410 C 
ATOM     20  O   LIG    1        0.657   4.337   1.362  0.00  0.00    -0.440 OA
ATOM     21  C   LIG    1        2.993   3.673   1.395  0.00  0.00    +0.050 C 
ATOM     22  C   LIG    1        3.611   2.290   1.149  0.00  0.00    +0.100 C 
ATOM     23  C   LIG    1        2.459   1.355   0.866  0.00  0.00    -0.070 A 
ENDBRANCH  13  14
ENDBRANCH  12  13
ENDBRANCH   2  12
BRANCH   1  24
ATOM     24  C   LIG    1        3.929  -4.858  -0.227  0.00  0.00    +0.300 C 
BRANCH  24  25
ATOM     25  C   LIG    1        3.507  -4.879  -1.698  0.00  0.00    +0.180 C 
BRANCH  25  26
ATOM     26  C   LIG    1        2.335  -5.755  -1.859  0.00  0.00    +0.200 C 
ATOM     27  N   LIG    1        1.431  -6.431  -1.984  0.00  0.00    -0.420 NA
ENDBRANCH  25  26
ENDBRANCH  24  25
ENDBRANCH   1  24
TORSDOF 7
