REMARK  Name = ZINCrD000000AfEE.0
REMARK                            x       y       z     vdW  Elec       q    Type
REMARK                         _______ _______ _______ _____ _____    ______ ____
ROOT
ATOM      1  O   LIG    1        3.702   2.721  -0.019  0.00  0.00    -0.490 OA
ATOM      2  C   LIG    1        3.719   1.508  -0.025  0.00  0.00    +0.530 C 
ATOM      3  N   LIG    1        4.895   0.851  -0.040  0.00  0.00    -0.650 N 
ATOM      4  H   LIG    1        4.908  -0.119  -0.045  0.00  0.00    +0.410 HD
ENDROOT
BRANCH   3   5
ATOM      5  C   LIG    1        6.093   1.564  -0.048  0.00  0.00    +0.300 A 
ATOM      6  C   LIG    1        6.222   2.919  -0.048  0.00  0.00    -0.110 A 
ATOM      7  C   LIG    1        7.587   3.219  -0.053  0.00  0.00    +0.250 A 
ATOM      8  N   LIG    1        8.255   2.094  -0.066  0.00  0.00    -0.290 NA
ATOM      9  N   LIG    1        7.338   1.036  -0.062  0.00  0.00    -0.380 N 
BRANCH   9  10
ATOM     10  C   LIG    1        7.668  -0.392  -0.074  0.00  0.00    +0.370 C 
BRANCH  10  11
ATOM     11  C   LIG    1        7.769  -0.873  -1.499  0.00  0.00    -0.120 A 
ATOM     12  C   LIG    1        6.649  -1.368  -2.141  0.00  0.00    +0.010 A 
ATOM     13  C   LIG    1        6.740  -1.805  -3.450  0.00  0.00    +0.010 A 
ATOM     14  C   LIG    1        7.952  -1.756  -4.112  0.00  0.00    +0.020 A 
ATOM     15  C   LIG    1        9.073  -1.264  -3.468  0.00  0.00    +0.010 A 
ATOM     16  C   LIG    1        8.981  -0.823  -2.161  0.00  0.00    +0.040 A 
ENDBRANCH  10  11
ENDBRANCH   9  10
ENDBRANCH   3   5
BRANCH   2  17
ATOM     17  C   LIG    1        2.424   0.737  -0.017  0.00  0.00    +0.070 C 
BRANCH  17  18
ATOM     18  C   LIG    1        1.248   1.716  -0.001  0.00  0.00    +0.290 C 
BRANCH  18  19
ATOM     19  N   LIG    1       -0.011   0.966   0.007  0.00  0.00    -0.730 N 
ATOM     20  H   LIG    1        0.002  -0.004   0.002  0.00  0.00    +0.400 HD
ATOM     21  C   LIG    1       -1.187   1.624   0.017  0.00  0.00    +0.550 C 
ATOM     22  O   LIG    1       -1.204   2.839   0.023  0.00  0.00    -0.500 OA
BRANCH  21  23
ATOM     23  C   LIG    1       -2.457   0.868   0.018  0.00  0.00    -0.130 A 
ATOM     24  C   LIG    1       -2.442  -0.528   0.011  0.00  0.00    +0.050 A 
ATOM     25  C   LIG    1       -3.630  -1.228   0.013  0.00  0.00    +0.020 A 
ATOM     26  C   LIG    1       -4.837  -0.550   0.021  0.00  0.00    +0.060 A 
ATOM     27  C   LIG    1       -4.861   0.833   0.029  0.00  0.00    +0.020 A 
ATOM     28  C   LIG    1       -3.678   1.546   0.034  0.00  0.00    +0.010 A 
ATOM     29 CL   LIG    1       -3.709   3.282   0.051  0.00  0.00    -0.030 Cl
ENDBRANCH  21  23
ENDBRANCH  18  19
ENDBRANCH  17  18
ENDBRANCH   2  17
TORSDOF 7
