REMARK  Name = ZINCqH0000001Ask.0
REMARK                            x       y       z     vdW  Elec       q    Type
REMARK                         _______ _______ _______ _____ _____    ______ ____
ROOT
ATOM      1  N   LIG    1       -2.028   8.735   2.979  0.00  0.00    -0.690 N 
ATOM      2  H   LIG    1       -1.264   9.303   2.790  0.00  0.00    +0.410 HD
ATOM      3  C   LIG    1       -2.116   7.515   2.414  0.00  0.00    +0.510 C 
ATOM      4  O   LIG    1       -3.072   6.805   2.650  0.00  0.00    -0.510 OA
ENDROOT
BRANCH   3   5
ATOM      5  C   LIG    1       -1.038   7.036   1.496  0.00  0.00    +0.510 C 
ATOM      6  N   LIG    1       -1.127   5.816   0.930  0.00  0.00    -0.690 N 
ATOM      7  H   LIG    1       -1.891   5.248   1.119  0.00  0.00    +0.410 HD
ATOM      8  O   LIG    1       -0.083   7.746   1.260  0.00  0.00    -0.520 OA
BRANCH   6   9
ATOM      9  C   LIG    1       -0.070   5.347   0.031  0.00  0.00    +0.320 C 
BRANCH   9  10
ATOM     10  C   LIG    1       -0.050   3.840   0.022  0.00  0.00    -0.090 A 
ATOM     11  C   LIG    1        1.156   3.165   0.008  0.00  0.00    +0.030 A 
ATOM     12  C   LIG    1        1.175   1.783   0.000  0.00  0.00    +0.010 A 
ATOM     13  C   LIG    1       -0.013   1.076   0.008  0.00  0.00    +0.000 A 
ATOM     14  C   LIG    1       -1.219   1.751   0.017  0.00  0.00    +0.020 A 
ATOM     15  C   LIG    1       -1.238   3.133   0.029  0.00  0.00    +0.010 A 
ENDBRANCH   9  10
BRANCH   9  16
ATOM     16  C   LIG    1       -0.340   5.861  -1.385  0.00  0.00    -0.060 C 
ATOM     17  C   LIG    1        0.801   6.583  -2.104  0.00  0.00    +0.040 C 
ATOM     18  C   LIG    1       -0.400   7.377  -1.587  0.00  0.00    +0.030 C 
ENDBRANCH   9  16
ENDBRANCH   6   9
ENDBRANCH   3   5
BRANCH   1  19
ATOM     19  C   LIG    1       -3.084   9.204   3.879  0.00  0.00    +0.290 C 
BRANCH  19  20
ATOM     20  C   LIG    1       -2.520  10.235   4.822  0.00  0.00    -0.100 A 
ATOM     21  C   LIG    1       -1.613  11.171   4.361  0.00  0.00    +0.010 A 
ATOM     22  C   LIG    1       -1.099  12.120   5.225  0.00  0.00    +0.010 A 
ATOM     23  C   LIG    1       -1.485  12.126   6.553  0.00  0.00    +0.000 A 
ATOM     24  C   LIG    1       -2.387  11.187   7.015  0.00  0.00    +0.010 A 
ATOM     25  C   LIG    1       -2.905  10.242   6.150  0.00  0.00    +0.020 A 
ENDBRANCH  19  20
BRANCH  19  27
ATOM     26  C   LIG    1       -3.644  10.929   2.160  0.00  0.00    +0.010 C 
ATOM     27  C   LIG    1       -4.214   9.829   3.057  0.00  0.00    -0.020 C 
ATOM     28  C   LIG    1       -4.869   8.752   2.190  0.00  0.00    +0.020 C 
ENDBRANCH  19  27
ENDBRANCH   1  19
TORSDOF 7
