REMARK  Name = ZINCpe000000X0qA.0
REMARK                            x       y       z     vdW  Elec       q    Type
REMARK                         _______ _______ _______ _____ _____    ______ ____
ROOT
ATOM      1  N   LIG    1       -3.604   2.351   0.035  0.00  0.00    -0.520 NA
ATOM      2  C   LIG    1       -3.629   3.115   1.289  0.00  0.00    +0.170 C 
ATOM      3  C   LIG    1       -4.683   4.223   1.187  0.00  0.00    +0.280 C 
ATOM      4  N   LIG    1       -5.966   3.614   0.805  0.00  0.00    -0.630 N 
ATOM      5  C   LIG    1       -5.992   2.723  -0.365  0.00  0.00    +0.320 C 
ATOM      6  C   LIG    1       -7.088   3.865   1.508  0.00  0.00    +0.710 C 
ATOM      7  N   LIG    1       -7.026   4.603   2.634  0.00  0.00    -0.740 N 
ATOM      8  H   LIG    1       -6.189   5.014   2.900  0.00  0.00    +0.390 HD
ATOM      9  O   LIG    1       -8.155   3.427   1.126  0.00  0.00    -0.590 OA
ATOM     10  C   LIG    1       -4.886   1.674  -0.202  0.00  0.00    +0.170 C 
ENDROOT
BRANCH   7  11
ATOM     11  C   LIG    1       -8.224   4.784   3.458  0.00  0.00    +0.250 C 
ATOM     12  C   LIG    1       -9.047   5.952   2.912  0.00  0.00    +0.000 C 
ATOM     13  C   LIG    1      -10.298   6.141   3.773  0.00  0.00    +0.000 C 
ATOM     14  C   LIG    1       -9.885   6.438   5.216  0.00  0.00    +0.000 C 
ATOM     15  C   LIG    1       -9.062   5.269   5.761  0.00  0.00    +0.020 C 
ATOM     16  C   LIG    1       -7.811   5.080   4.901  0.00  0.00    +0.010 C 
ENDBRANCH   7  11
BRANCH   1  17
ATOM     17  C   LIG    1       -2.492   1.391   0.025  0.00  0.00    +0.220 C 
BRANCH  17  24
ATOM     18  C   LIG    1        3.543   2.173  -1.039  0.00  0.00    +0.070 C 
ATOM     19  C   LIG    1        2.129   1.595  -1.126  0.00  0.00    +0.130 C 
ATOM     20  C   LIG    1        1.271   2.167   0.008  0.00  0.00    +0.260 C 
ATOM     21  N   LIG    1       -0.019   1.459   0.015  0.00  0.00    -0.620 N 
ATOM     22  C   LIG    1       -0.001  -0.012   0.007  0.00  0.00    +0.240 C 
ATOM     23  C   LIG    1        0.919  -0.478  -1.127  0.00  0.00    +0.220 C 
ATOM     24  C   LIG    1       -1.183   2.139   0.024  0.00  0.00    +0.520 C 
ATOM     25  O   LIG    1       -1.178   3.352   0.030  0.00  0.00    -0.520 OA
ATOM     26  O   LIG    1        2.187   0.172  -1.001  0.00  0.00    -0.380 OA
ENDBRANCH  17  24
ENDBRANCH   1  17
TORSDOF 3
