REMARK  Name = ZINCc70000001nMD.0
REMARK                            x       y       z     vdW  Elec       q    Type
REMARK                         _______ _______ _______ _____ _____    ______ ____
ROOT
ATOM      1  C   LIG    1        0.781   5.542   0.186  0.00  0.00    +0.520 C 
ATOM      2  N   LIG    1        0.814   4.218   0.434  0.00  0.00    -0.720 N 
ATOM      3  H   LIG    1        0.411   3.866   1.243  0.00  0.00    +0.410 HD
ATOM      4  O   LIG    1        1.286   5.982  -0.826  0.00  0.00    -0.530 OA
ENDROOT
BRANCH   1   5
ATOM      5  C   LIG    1        0.118   6.476   1.165  0.00  0.00    +0.240 C 
BRANCH   5   7
ATOM      6  N   LIG    1        0.291   8.925   0.284  0.00  0.00    -0.410 NA
ATOM      7  C   LIG    1        0.216   7.859   0.667  0.00  0.00    +0.210 C 
ENDBRANCH   5   7
ENDBRANCH   1   5
BRANCH   2   8
ATOM      8  C   LIG    1        1.459   3.310  -0.517  0.00  0.00    +0.300 C 
BRANCH   8   9
ATOM      9  C   LIG    1        1.358   1.873  -0.001  0.00  0.00    +0.140 C 
ATOM     10  C   LIG    1        2.044   0.890  -0.983  0.00  0.00    +0.020 C 
ATOM     11  C   LIG    1        1.318  -0.441  -0.670  0.00  0.00    +0.000 C 
ATOM     12  C   LIG    1        0.002  -0.004   0.002  0.00  0.00    +0.200 C 
ATOM     13  O   LIG    1       -0.017   1.433   0.010  0.00  0.00    -0.370 OA
ENDBRANCH   8   9
ENDBRANCH   2   8
TORSDOF 4
