REMARK  Name = ZINCqH00000070mU.0
REMARK                            x       y       z     vdW  Elec       q    Type
REMARK                         _______ _______ _______ _____ _____    ______ ____
ROOT
ATOM      1  C   LIG    1       -0.016  -5.767  -0.031  0.00  0.00    +0.390 C 
ENDROOT
BRANCH   1   5
ATOM      2  N   LIG    1        1.085  -2.287  -0.355  0.00  0.00    -0.310 N 
ATOM      3  C   LIG    1        2.275  -2.882  -0.115  0.00  0.00    +0.230 A 
ATOM      4  C   LIG    1        2.050  -4.208   0.034  0.00  0.00    -0.090 A 
ATOM      5  C   LIG    1        0.677  -4.431  -0.119  0.00  0.00    +0.060 A 
ATOM      6  N   LIG    1        0.098  -3.280  -0.348  0.00  0.00    -0.270 NA
BRANCH   2  10
ATOM      7  C   LIG    1        0.463   1.789  -0.991  0.00  0.00    +0.120 A 
ATOM      8  C   LIG    1       -0.612   0.911  -1.016  0.00  0.00    +0.010 A 
ATOM      9  C   LIG    1       -0.406  -0.438  -0.806  0.00  0.00    +0.070 A 
ATOM     10  C   LIG    1        0.876  -0.916  -0.569  0.00  0.00    +0.120 A 
ATOM     11  C   LIG    1        1.950  -0.037  -0.544  0.00  0.00    +0.030 A 
ATOM     12  C   LIG    1        1.744   1.312  -0.754  0.00  0.00    -0.040 A 
BRANCH   7  14
ATOM     13  C   LIG    1        1.411   3.963  -1.159  0.00  0.00    +0.240 C 
ATOM     14  O   LIG    1        0.260   3.117  -1.199  0.00  0.00    -0.310 OA
ENDBRANCH   7  14
ENDBRANCH   2  10
ENDBRANCH   1   5
BRANCH   1  15
ATOM     15  N   LIG    1       -0.527  -5.963   1.327  0.00  0.00    -0.720 N 
ATOM     16  H   LIG    1       -0.391  -5.278   2.001  0.00  0.00    +0.400 HD
ATOM     17  C   LIG    1       -1.187  -7.095   1.642  0.00  0.00    +0.550 C 
ATOM     18  O   LIG    1       -1.358  -7.952   0.800  0.00  0.00    -0.530 OA
BRANCH  17  19
ATOM     19  C   LIG    1       -1.714  -7.297   3.039  0.00  0.00    -0.070 C 
ATOM     20  C   LIG    1       -1.453  -8.650   3.704  0.00  0.00    +0.040 C 
ATOM     21  C   LIG    1       -2.861  -8.291   3.225  0.00  0.00    -0.080 C 
ATOM     22  C   LIG    1       -3.388  -9.004   1.978  0.00  0.00    +0.070 C 
ATOM     23  C   LIG    1       -3.909  -7.969   4.293  0.00  0.00    +0.080 C 
BRANCH  20  24
ATOM     24  C   LIG    1       -0.690  -9.680   2.910  0.00  0.00    -0.010 C 
ATOM     25  C   LIG    1       -0.293 -10.788   3.486  0.00  0.00    -0.130 C 
ATOM     26  C   LIG    1        0.470 -11.817   2.692  0.00  0.00    +0.070 C 
ATOM     27  C   LIG    1       -0.599 -11.033   4.941  0.00  0.00    +0.070 C 
ENDBRANCH  20  24
ENDBRANCH  17  19
ENDBRANCH   1  15
TORSDOF 6
