REMARK  Name = ZINCpk00001AZj7Y.0
REMARK                            x       y       z     vdW  Elec       q    Type
REMARK                         _______ _______ _______ _____ _____    ______ ____
ROOT
ATOM      1  C   LIG    1       -1.973   4.736   0.045  0.00  0.00    +0.320 C 
ENDROOT
BRANCH   1   2
ATOM      2  C   LIG    1       -0.824   3.760   0.029  0.00  0.00    -0.100 A 
ATOM      3  C   LIG    1        0.477   4.225   0.019  0.00  0.00    +0.040 A 
ATOM      4  C   LIG    1        1.530   3.329   0.005  0.00  0.00    +0.040 A 
ATOM      5  C   LIG    1        1.282   1.968   0.000  0.00  0.00    -0.100 A 
ATOM      6  C   LIG    1        2.221   0.787  -0.015  0.00  0.00    +0.320 C 
ATOM      7  N   LIG    1        1.405  -0.431  -0.014  0.00  0.00    -0.620 N 
ATOM      8  C   LIG    1        0.002  -0.004   0.002  0.00  0.00    +0.320 C 
ATOM      9  C   LIG    1        1.858  -1.700  -0.025  0.00  0.00    +0.570 C 
ATOM     10  O   LIG    1        1.070  -2.627  -0.022  0.00  0.00    -0.540 OA
ATOM     11  C   LIG    1       -0.018   1.504   0.010  0.00  0.00    -0.100 A 
ATOM     12  C   LIG    1       -1.072   2.401   0.030  0.00  0.00    +0.060 A 
BRANCH   9  13
ATOM     13  C   LIG    1        3.305  -1.965  -0.040  0.00  0.00    -0.090 C 
ATOM     14  C   LIG    1        3.751  -3.217  -0.051  0.00  0.00    +0.160 C 
ENDBRANCH   9  13
ENDBRANCH   1   2
BRANCH   1  16
ATOM     15  C   LIG    1       -3.370   5.918  -1.564  0.00  0.00    +0.530 C 
ATOM     16  N   LIG    1       -2.358   5.059  -1.331  0.00  0.00    -0.730 N 
ATOM     17  H   LIG    1       -1.884   4.655  -2.075  0.00  0.00    +0.400 HD
ATOM     18  O   LIG    1       -3.962   6.424  -0.634  0.00  0.00    -0.510 OA
BRANCH  15  21
ATOM     19  C   LIG    1       -5.865   5.972  -3.056  0.00  0.00    +0.110 C 
ATOM     20  C   LIG    1       -4.960   7.215  -3.074  0.00  0.00    +0.090 C 
ATOM     21  C   LIG    1       -3.766   6.251  -2.979  0.00  0.00    -0.030 C 
ATOM     22  C   LIG    1       -4.669   5.190  -3.631  0.00  0.00    +0.030 C 
BRANCH  19  23
ATOM     23  O   LIG    1       -6.243   5.558  -1.742  0.00  0.00    -0.520 OA
ATOM     24  H   LIG    1       -6.812   4.777  -1.724  0.00  0.00    +0.370 HD
ENDBRANCH  19  23
BRANCH  19  25
ATOM     25  C   LIG    1       -7.054   6.066  -4.015  0.00  0.00    +0.170 C 
BRANCH  25  27
ATOM     26  C   LIG    1       -8.494   3.852  -3.853  0.00  0.00    +0.020 C 
ATOM     27  C   LIG    1       -7.855   4.834  -3.925  0.00  0.00    -0.200 C 
ENDBRANCH  25  27
ENDBRANCH  19  25
ENDBRANCH  15  21
ENDBRANCH   1  16
TORSDOF 7
