REMARK  Name = ZINCpe00000MJKb0.0
REMARK                            x       y       z     vdW  Elec       q    Type
REMARK                         _______ _______ _______ _____ _____    ______ ____
ROOT
ATOM      1  C   LIG    1        3.527   1.836  -0.599  0.00  0.00    +0.050 C 
ATOM      2  C   LIG    1        2.091   1.908  -1.120  0.00  0.00    +0.230 C 
ATOM      3  C   LIG    1        1.619   0.507  -1.525  0.00  0.00    +0.170 C 
ATOM      4  N   LIG    1        0.194   0.556  -1.877  0.00  0.00    -0.530 NA
ATOM      5  C   LIG    1       -0.627   0.945  -0.722  0.00  0.00    +0.160 C 
ATOM      6  C   LIG    1       -0.248   2.364  -0.285  0.00  0.00    +0.280 C 
ATOM      7  N   LIG    1        1.205   2.410  -0.059  0.00  0.00    -0.600 N 
ATOM      8  C   LIG    1        1.711   2.901   1.090  0.00  0.00    +0.590 C 
ATOM      9  O   LIG    1        2.912   3.060   1.207  0.00  0.00    -0.530 OA
ENDROOT
BRANCH   8  10
ATOM     10  C   LIG    1        0.814   3.244   2.200  0.00  0.00    -0.050 A 
ATOM     11  C   LIG    1       -0.401   2.677   2.449  0.00  0.00    +0.070 A 
ATOM     12  C   LIG    1       -0.918   3.298   3.608  0.00  0.00    -0.230 A 
ATOM     13  C   LIG    1        0.013   4.234   4.016  0.00  0.00    +0.250 A 
ATOM     14  N   LIG    1        1.052   4.197   3.166  0.00  0.00    -0.400 N 
ATOM     15  C   LIG    1        2.249   5.037   3.251  0.00  0.00    +0.340 C 
BRANCH  12  16
ATOM     16  C   LIG    1       -2.209   3.007   4.257  0.00  0.00    +0.590 C 
ATOM     17  O   LIG    1       -2.942   2.154   3.796  0.00  0.00    -0.540 OA
ATOM     18  N   LIG    1       -2.576   3.686   5.362  0.00  0.00    -0.850 N 
ATOM     19  H   LIG    1       -3.426   3.494   5.789  0.00  0.00    +0.410 HD
ATOM     20  H   LIG    1       -1.991   4.366   5.730  0.00  0.00    +0.400 HD
ENDBRANCH  12  16
ENDBRANCH   8  10
BRANCH   4  21
ATOM     21  C   LIG    1       -0.255  -0.727  -2.434  0.00  0.00    +0.240 C 
BRANCH  21  22
ATOM     22  C   LIG    1       -1.637  -0.566  -3.014  0.00  0.00    -0.130 A 
ATOM     23  C   LIG    1       -1.803  -0.200  -4.341  0.00  0.00    +0.080 A 
ATOM     24  C   LIG    1       -3.093  -0.064  -4.832  0.00  0.00    -0.030 A 
ATOM     25  C   LIG    1       -4.162  -0.297  -3.988  0.00  0.00    +0.260 A 
ATOM     26  N   LIG    1       -3.967  -0.645  -2.731  0.00  0.00    -0.480 NA
ATOM     27  C   LIG    1       -2.755  -0.788  -2.232  0.00  0.00    +0.250 A 
ENDBRANCH  21  22
ENDBRANCH   4  21
TORSDOF 4
