REMARK  Name = ZINCpk00000Fam7R.0
REMARK                            x       y       z     vdW  Elec       q    Type
REMARK                         _______ _______ _______ _____ _____    ______ ____
ROOT
ATOM      1  C   LIG    1        3.748   7.056  -4.875  0.00  0.00    +0.160 C 
ATOM      2  C   LIG    1        4.018   8.454  -4.258  0.00  0.00    +0.080 C 
ATOM      3  C   LIG    1        3.828   8.209  -2.746  0.00  0.00    +0.240 C 
ATOM      4  N   LIG    1        2.997   7.005  -2.600  0.00  0.00    -0.610 N 
ATOM      5  C   LIG    1        2.623   6.446  -1.432  0.00  0.00    +0.520 C 
ATOM      6  O   LIG    1        2.979   6.938  -0.382  0.00  0.00    -0.500 OA
ATOM      7  C   LIG    1        2.637   6.513  -3.942  0.00  0.00    +0.240 C 
ENDROOT
BRANCH   1   9
ATOM      8  C   LIG    1        4.942   5.187  -5.786  0.00  0.00    +0.210 C 
ATOM      9  O   LIG    1        4.915   6.233  -4.812  0.00  0.00    -0.370 OA
ENDBRANCH   1   9
BRANCH   5  10
ATOM     10  C   LIG    1        1.761   5.210  -1.430  0.00  0.00    +0.050 C 
BRANCH  10  11
ATOM     11  C   LIG    1        1.482   4.784   0.013  0.00  0.00    +0.130 C 
BRANCH  11  12
ATOM     12  C   LIG    1        0.621   3.548   0.015  0.00  0.00    -0.240 A 
ATOM     13  C   LIG    1        1.062   2.269   0.004  0.00  0.00    +0.230 A 
ATOM     14  N   LIG    1       -0.018   1.461   0.010  0.00  0.00    -0.380 N 
ATOM     15  N   LIG    1       -1.162   2.269   0.019  0.00  0.00    -0.300 NA
ATOM     16  C   LIG    1        0.002  -0.004   0.002  0.00  0.00    +0.360 C 
ATOM     17  C   LIG    1       -0.778   3.520   0.028  0.00  0.00    +0.230 A 
ENDBRANCH  11  12
ENDBRANCH  10  11
ENDBRANCH   5  10
BRANCH   3  18
ATOM     18  C   LIG    1        3.124   9.408  -2.107  0.00  0.00    +0.170 C 
BRANCH  18  19
ATOM     19  O   LIG    1        3.044   9.215  -0.693  0.00  0.00    -0.270 OA
BRANCH  19  20
ATOM     20  C   LIG    1        2.442  10.195   0.030  0.00  0.00    +0.080 A 
ATOM     21  C   LIG    1        2.320  10.079   1.411  0.00  0.00    +0.040 A 
ATOM     22  C   LIG    1        1.704  11.108   2.106  0.00  0.00    +0.010 A 
ATOM     23  C   LIG    1        1.225  12.201   1.409  0.00  0.00    +0.210 A 
ATOM     24  N   LIG    1        1.352  12.278   0.099  0.00  0.00    -0.450 NA
ATOM     25  C   LIG    1        1.936  11.324  -0.599  0.00  0.00    +0.160 A 
ENDBRANCH  19  20
ENDBRANCH  18  19
ENDBRANCH   3  18
TORSDOF 7
