REMARK  Name = ZINCqH0000003YeF.0
REMARK                            x       y       z     vdW  Elec       q    Type
REMARK                         _______ _______ _______ _____ _____    ______ ____
ROOT
ATOM      1  C   LIG    1       -5.922   4.299  -0.439  0.00  0.00    -0.160 A 
ATOM      2  C   LIG    1       -5.291   5.460   0.008  0.00  0.00    +0.100 A 
ATOM      3  C   LIG    1       -4.157   5.369   0.788  0.00  0.00    +0.000 A 
ATOM      4  C   LIG    1       -3.647   4.130   1.131  0.00  0.00    +0.160 A 
ATOM      5  C   LIG    1       -4.265   2.974   0.687  0.00  0.00    -0.680 A 
ATOM      6  C   LIG    1       -5.400   3.051  -0.093  0.00  0.00    +0.200 A 
ENDROOT
BRANCH   1   9
ATOM      7  N   LIG    1       -7.641   5.595  -1.606  0.00  0.00    -0.720 N 
ATOM      8  H   LIG    1       -7.204   6.404  -1.297  0.00  0.00    +0.400 HD
ATOM      9  C   LIG    1       -7.139   4.389  -1.274  0.00  0.00    +0.560 C 
ATOM     10  O   LIG    1       -7.686   3.375  -1.662  0.00  0.00    -0.530 OA
BRANCH   7  11
ATOM     11  C   LIG    1       -8.846   5.684  -2.434  0.00  0.00    +0.230 C 
ATOM     12  C   LIG    1       -8.457   5.602  -3.912  0.00  0.00    +0.020 C 
BRANCH  11  14
ATOM     13  C   LIG    1      -10.051   7.044  -0.719  0.00  0.00    +0.010 C 
ATOM     14  C   LIG    1       -9.552   7.015  -2.165  0.00  0.00    +0.020 C 
ENDBRANCH  11  14
ENDBRANCH   7  11
ENDBRANCH   1   9
BRANCH   5  15
ATOM     15  S   LIG    1       -3.605   1.400   1.125  0.00  0.00    +2.690 S 
ATOM     16  O   LIG    1       -2.905   1.585   2.348  0.00  0.00    -0.940 OA
ATOM     17  O   LIG    1       -4.662   0.464   0.968  0.00  0.00    -0.940 OA
BRANCH  15  18
ATOM     18  N   LIG    1       -2.465   1.014  -0.012  0.00  0.00    -1.060 N 
ATOM     19  H   LIG    1       -2.594   0.242  -0.586  0.00  0.00    +0.430 HD
BRANCH  18  20
ATOM     20  C   LIG    1       -1.315   1.800  -0.146  0.00  0.00    +0.090 A 
ATOM     21  C   LIG    1       -1.188   2.668  -1.221  0.00  0.00    +0.090 A 
ATOM     22  C   LIG    1       -0.056   3.449  -1.349  0.00  0.00    -0.060 A 
ATOM     23  C   LIG    1        0.958   3.361  -0.407  0.00  0.00    +0.170 A 
ATOM     24  C   LIG    1        0.835   2.489   0.665  0.00  0.00    -0.120 A 
ATOM     25 BR   LIG    1        2.218   2.370   1.950  0.00  0.00    -0.020 Br
ATOM     26  C   LIG    1       -0.297   1.708   0.795  0.00  0.00    +0.110 A 
BRANCH  23  27
ATOM     27  O   LIG    1        2.073   4.130  -0.535  0.00  0.00    -0.300 OA
ATOM     28  C   LIG    1        2.132   5.004  -1.663  0.00  0.00    +0.250 C 
ENDBRANCH  23  27
ENDBRANCH  18  20
ENDBRANCH  15  18
ENDBRANCH   5  15
TORSDOF 7
