REMARK  Name = ZINCrH000004uLwz.0
REMARK                            x       y       z     vdW  Elec       q    Type
REMARK                         _______ _______ _______ _____ _____    ______ ____
ROOT
ATOM      1  O   LIG    1        3.771   3.120  -2.747  0.00  0.00    -0.520 OA
ATOM      2  C   LIG    1        2.849   3.600  -2.122  0.00  0.00    +0.520 C 
ATOM      3  N   LIG    1        3.027   4.739  -1.425  0.00  0.00    -0.520 N 
ATOM      4  H   LIG    1        2.289   5.123  -0.925  0.00  0.00    +0.420 HD
ENDROOT
BRANCH   2   5
ATOM      5  C   LIG    1        1.503   2.921  -2.124  0.00  0.00    +0.000 C 
ATOM      6  C   LIG    1        1.571   1.657  -2.985  0.00  0.00    +0.060 C 
ATOM      7  C   LIG    1        0.197   0.984  -3.015  0.00  0.00    +0.030 C 
ATOM      8  C   LIG    1       -0.201   0.579  -1.592  0.00  0.00    +0.260 C 
ATOM      9  N   LIG    1       -0.127   1.763  -0.726  0.00  0.00    -0.610 N 
ATOM     10  C   LIG    1       -1.187   2.136   0.019  0.00  0.00    +0.600 C 
ATOM     11  O   LIG    1       -1.093   3.079   0.782  0.00  0.00    -0.520 OA
ATOM     12  C   LIG    1        1.121   2.538  -0.691  0.00  0.00    +0.300 C 
BRANCH  10  13
ATOM     13  C   LIG    1       -2.452   1.405  -0.089  0.00  0.00    -0.270 A 
ATOM     14  C   LIG    1       -3.691   1.974  -0.183  0.00  0.00    +0.090 A 
ATOM     15  C   LIG    1       -4.707   1.052  -0.277  0.00  0.00    +0.000 A 
ATOM     16  C   LIG    1       -4.317  -0.228  -0.252  0.00  0.00    -0.070 A 
ATOM     17  S   LIG    1       -2.620  -0.346  -0.112  0.00  0.00    +0.220 S 
ENDBRANCH  10  13
ENDBRANCH   2   5
BRANCH   3  18
ATOM     18  N   LIG    1        4.277   5.371  -1.423  0.00  0.00    -0.540 N 
ATOM     19  H   LIG    1        5.015   4.988  -1.922  0.00  0.00    +0.440 HD
BRANCH  18  20
ATOM     20  C   LIG    1        4.462   6.552  -0.701  0.00  0.00    +0.260 A 
ATOM     21  C   LIG    1        3.405   7.105   0.011  0.00  0.00    -0.070 A 
ATOM     22  C   LIG    1        3.592   8.271   0.728  0.00  0.00    +0.110 A 
ATOM     23  C   LIG    1        4.827   8.893   0.729  0.00  0.00    -0.030 A 
ATOM     24  C   LIG    1        5.881   8.347   0.018  0.00  0.00    +0.120 A 
ATOM     25  C   LIG    1        5.702   7.179  -0.697  0.00  0.00    -0.260 A 
BRANCH  25  26
ATOM     26  C   LIG    1        6.850   6.586  -1.473  0.00  0.00    +0.510 C 
ATOM     27  F   LIG    1        6.510   6.517  -2.828  0.00  0.00    -0.180 F 
ATOM     28  F   LIG    1        7.121   5.300  -0.994  0.00  0.00    -0.180 F 
ATOM     29  F   LIG    1        7.983   7.391  -1.316  0.00  0.00    -0.170 F 
ENDBRANCH  25  26
ENDBRANCH  18  20
ENDBRANCH   3  18
TORSDOF 5
