REMARK  Name = ZINCqH0000007PXF.0
REMARK                            x       y       z     vdW  Elec       q    Type
REMARK                         _______ _______ _______ _____ _____    ______ ____
ROOT
ATOM      1  N   LIG    1       -4.043   1.828   0.876  0.00  0.00    -0.480 N 
ATOM      2  C   LIG    1       -3.616   1.770  -0.528  0.00  0.00    +0.190 C 
ATOM      3  C   LIG    1       -2.277   1.036  -0.625  0.00  0.00    +0.040 C 
ATOM      4  C   LIG    1       -1.232   1.775   0.216  0.00  0.00    +0.230 C 
ATOM      5  C   LIG    1       -1.723   1.864   1.663  0.00  0.00    +0.030 C 
ATOM      6  C   LIG    1       -3.078   2.574   1.694  0.00  0.00    +0.190 C 
ENDROOT
BRANCH   1  12
ATOM      7  C   LIG    1       -6.424   1.696   0.466  0.00  0.00    +0.120 A 
ATOM      8  C   LIG    1       -7.692   2.240   0.584  0.00  0.00    -0.060 A 
ATOM      9  C   LIG    1       -7.864   3.462   1.209  0.00  0.00    +0.020 A 
ATOM     10  C   LIG    1       -6.775   4.140   1.722  0.00  0.00    -0.010 A 
ATOM     11  C   LIG    1       -5.506   3.600   1.613  0.00  0.00    +0.000 A 
ATOM     12  C   LIG    1       -5.326   2.376   0.988  0.00  0.00    +0.080 A 
BRANCH   7  14
ATOM     13  C   LIG    1       -7.423  -0.143  -0.664  0.00  0.00    +0.220 C 
ATOM     14  O   LIG    1       -6.252   0.497  -0.153  0.00  0.00    -0.310 OA
ENDBRANCH   7  14
ENDBRANCH   1  12
BRANCH   4  15
ATOM     15  N   LIG    1        0.037   1.044   0.173  0.00  0.00    -0.720 N 
ATOM     16  H   LIG    1        0.042   0.091  -0.007  0.00  0.00    +0.400 HD
ATOM     17  C   LIG    1        1.198   1.698   0.378  0.00  0.00    +0.560 C 
ATOM     18  O   LIG    1        1.192   2.893   0.604  0.00  0.00    -0.530 OA
BRANCH  17  19
ATOM     19  C   LIG    1        2.477   0.963   0.329  0.00  0.00    -0.120 A 
ATOM     20  C   LIG    1        2.487  -0.414   0.070  0.00  0.00    +0.060 A 
ATOM     21  C   LIG    1        3.658  -1.100   0.022  0.00  0.00    +0.070 A 
ATOM     22  C   LIG    1        4.888  -0.440   0.233  0.00  0.00    +0.100 A 
ATOM     23  N   LIG    1        6.137  -0.936   0.226  0.00  0.00    -0.470 NA
ATOM     24  C   LIG    1        7.105  -0.127   0.446  0.00  0.00    +0.280 A 
ATOM     25  S   LIG    1        6.545   1.463   0.708  0.00  0.00    +0.120 S 
ATOM     26  C   LIG    1        4.878   0.938   0.493  0.00  0.00    -0.200 A 
ATOM     27  C   LIG    1        3.678   1.636   0.535  0.00  0.00    +0.150 A 
ENDBRANCH  17  19
ENDBRANCH   4  15
TORSDOF 4
