REMARK  Name = ZINCrg00000SjSCZ.0
REMARK                            x       y       z     vdW  Elec       q    Type
REMARK                         _______ _______ _______ _____ _____    ______ ____
ROOT
ATOM      1  N   LIG    1       -4.164   7.292   2.607  0.00  0.00    -0.610 N 
ATOM      2  C   LIG    1       -4.803   6.150   3.281  0.00  0.00    +0.270 C 
ATOM      3  C   LIG    1       -4.250   4.858   2.669  0.00  0.00    +0.220 C 
ATOM      4  O   LIG    1       -2.821   4.896   2.697  0.00  0.00    -0.360 OA
ATOM      5  C   LIG    1       -2.248   5.952   1.918  0.00  0.00    +0.080 C 
ATOM      6  C   LIG    1       -2.736   5.838   0.475  0.00  0.00    +0.060 C 
ATOM      7  C   LIG    1       -2.602   4.388  -0.005  0.00  0.00    -0.170 C 
ATOM      8  S   LIG    1       -0.843   3.923   0.075  0.00  0.00    +2.280 S 
ATOM      9  C   LIG    1       -0.281   4.412   1.736  0.00  0.00    -0.260 C 
ATOM     10  N   LIG    1       -0.758   2.435  -0.018  0.00  0.00    -1.130 NA
ATOM     11  O   LIG    1       -0.058   4.463  -0.979  0.00  0.00    -0.920 OA
ATOM     12  C   LIG    1       -0.725   5.859   1.984  0.00  0.00    +0.110 C 
ATOM     13  C   LIG    1       -2.697   7.300   2.498  0.00  0.00    +0.310 C 
ENDROOT
BRANCH   1  19
ATOM     14  C   LIG    1       -7.274  11.336   0.712  0.00  0.00    +0.160 A 
ATOM     15  N   LIG    1       -8.236  11.259   1.594  0.00  0.00    -0.240 NA
ATOM     16  N   LIG    1       -7.997  10.317   2.438  0.00  0.00    -0.300 NA
ATOM     17  C   LIG    1       -6.852   9.733   2.135  0.00  0.00    +0.240 A 
ATOM     18  C   LIG    1       -6.107   8.675   2.687  0.00  0.00    -0.040 A 
ATOM     19  C   LIG    1       -4.925   8.331   2.088  0.00  0.00    +0.390 A 
ATOM     20  N   LIG    1       -4.495   8.997   1.005  0.00  0.00    -0.510 NA
ATOM     21  C   LIG    1       -5.178   9.976   0.480  0.00  0.00    +0.600 A 
ATOM     22  N   LIG    1       -6.359  10.374   1.019  0.00  0.00    -0.450 N 
BRANCH  14  24
ATOM     23  C   LIG    1       -6.464  13.577   0.025  0.00  0.00    +0.040 C 
ATOM     24  C   LIG    1       -7.192  12.312  -0.433  0.00  0.00    +0.170 C 
ENDBRANCH  14  24
ENDBRANCH   1  19
BRANCH  10  25
ATOM     25  C   LIG    1        0.421   1.835   0.031  0.00  0.00    +0.540 C 
ATOM     26  O   LIG    1        1.435   2.495   0.146  0.00  0.00    -0.580 OA
ATOM     27  C   LIG    1        0.507   0.333  -0.063  0.00  0.00    +0.130 C 
ENDBRANCH  10  25
TORSDOF 3
