REMARK  Name = ZINCpe000000Ytxu.0
REMARK                            x       y       z     vdW  Elec       q    Type
REMARK                         _______ _______ _______ _____ _____    ______ ____
ROOT
ATOM      1  N   LIG    1        3.671   1.218  -0.026  0.00  0.00    -0.610 N 
ATOM      2  C   LIG    1        2.406   0.752  -0.017  0.00  0.00    +0.510 C 
ATOM      3  O   LIG    1        2.201  -0.443  -0.021  0.00  0.00    -0.520 OA
ENDROOT
BRANCH   1   4
ATOM      4  C   LIG    1        3.919   2.662  -0.021  0.00  0.00    +0.310 C 
BRANCH   4   5
ATOM      5  C   LIG    1        4.019   3.157   1.423  0.00  0.00    +0.180 C 
BRANCH   5   7
ATOM      6  N   LIG    1        4.460   5.727   1.433  0.00  0.00    -0.420 NA
ATOM      7  C   LIG    1        4.268   4.608   1.429  0.00  0.00    +0.200 C 
ENDBRANCH   5   7
ENDBRANCH   4   5
ENDBRANCH   1   4
BRANCH   2   8
ATOM      8  C   LIG    1        1.248   1.716  -0.001  0.00  0.00    +0.320 C 
BRANCH   8   9
ATOM      9  N   LIG    1       -0.011   0.966   0.007  0.00  0.00    -0.710 N 
ATOM     10  H   LIG    1        0.002  -0.004   0.002  0.00  0.00    +0.420 HD
ATOM     11  C   LIG    1       -1.187   1.624   0.017  0.00  0.00    +0.610 C 
ATOM     12  O   LIG    1       -1.204   2.841   0.023  0.00  0.00    -0.510 OA
BRANCH  11  13
ATOM     13  C   LIG    1       -2.446   0.874   0.018  0.00  0.00    -0.060 A 
ATOM     14  C   LIG    1       -3.701   1.413   0.027  0.00  0.00    +0.060 A 
ATOM     15  C   LIG    1       -4.603   0.338   0.026  0.00  0.00    +0.010 A 
ATOM     16  C   LIG    1       -3.868  -0.798   0.016  0.00  0.00    +0.000 A 
ATOM     17 BR   LIG    1       -4.559  -2.558   0.010  0.00  0.00    +0.070 Br
ATOM     18  O   LIG    1       -2.569  -0.470   0.006  0.00  0.00    -0.150 OA
ENDBRANCH  11  13
ENDBRANCH   8   9
ENDBRANCH   2   8
BRANCH   1  19
ATOM     19  C   LIG    1        4.797   0.282  -0.042  0.00  0.00    +0.300 C 
BRANCH  19  20
ATOM     20  C   LIG    1        5.175  -0.037  -1.490  0.00  0.00    +0.160 C 
BRANCH  20  21
ATOM     21  N   LIG    1        6.304  -0.976  -1.506  0.00  0.00    -0.530 NA
ATOM     22  C   LIG    1        7.519  -0.349  -0.964  0.00  0.00    +0.140 C 
ATOM     23  C   LIG    1        8.652  -1.378  -0.944  0.00  0.00    +0.220 C 
ATOM     24  O   LIG    1        8.850  -1.888  -2.265  0.00  0.00    -0.380 OA
ATOM     25  C   LIG    1        7.687  -2.506  -2.823  0.00  0.00    +0.220 C 
ATOM     26  C   LIG    1        6.544  -1.489  -2.863  0.00  0.00    +0.150 C 
ENDBRANCH  20  21
ENDBRANCH  19  20
ENDBRANCH   1  19
TORSDOF 9
