REMARK  Name = ZINCqH0000035S4T.0
REMARK                            x       y       z     vdW  Elec       q    Type
REMARK                         _______ _______ _______ _____ _____    ______ ____
ROOT
ATOM      1  C   LIG    1        0.536  -2.999   1.383  0.00  0.00    +0.520 C 
ATOM      2  N   LIG    1        1.674  -3.685   1.609  0.00  0.00    -0.650 N 
ATOM      3  H   LIG    1        2.167  -4.066   0.865  0.00  0.00    +0.410 HD
ATOM      4  O   LIG    1       -0.079  -2.522   2.313  0.00  0.00    -0.490 OA
ENDROOT
BRANCH   2   5
ATOM      5  C   LIG    1        2.144  -3.846   2.912  0.00  0.00    +0.300 A 
ATOM      6  C   LIG    1        1.562  -3.363   4.043  0.00  0.00    -0.110 A 
ATOM      7  C   LIG    1        2.350  -3.750   5.130  0.00  0.00    +0.250 A 
ATOM      8  N   LIG    1        3.370  -4.432   4.676  0.00  0.00    -0.290 NA
ATOM      9  N   LIG    1        3.265  -4.507   3.281  0.00  0.00    -0.380 N 
BRANCH   9  10
ATOM     10  C   LIG    1        4.204  -5.183   2.381  0.00  0.00    +0.260 C 
ATOM     11  C   LIG    1        4.275  -6.668   2.741  0.00  0.00    +0.020 C 
ATOM     12  C   LIG    1        5.255  -7.374   1.801  0.00  0.00    +0.010 C 
ATOM     13  C   LIG    1        6.643  -6.747   1.947  0.00  0.00    +0.020 C 
ATOM     14  C   LIG    1        6.571  -5.261   1.587  0.00  0.00    +0.010 C 
ATOM     15  C   LIG    1        5.591  -4.556   2.527  0.00  0.00    +0.020 C 
ENDBRANCH   9  10
ENDBRANCH   2   5
BRANCH   1  16
ATOM     16  C   LIG    1        0.029  -2.824  -0.025  0.00  0.00    +0.130 C 
BRANCH  16  22
ATOM     17  C   LIG    1       -1.198  -0.636   0.010  0.00  0.00    +0.180 A 
ATOM     18  C   LIG    1       -2.373   0.107   0.025  0.00  0.00    -0.080 A 
ATOM     19  C   LIG    1       -3.592  -0.532   0.033  0.00  0.00    +0.120 A 
ATOM     20  C   LIG    1       -3.643  -1.931   0.026  0.00  0.00    -0.210 A 
ATOM     21  C   LIG    1       -2.454  -2.670   0.010  0.00  0.00    +0.130 A 
ATOM     22  C   LIG    1       -1.249  -2.026  -0.003  0.00  0.00    -0.120 A 
BRANCH  20  23
ATOM     23  C   LIG    1       -4.939  -2.622   0.034  0.00  0.00    +0.400 C 
ATOM     24  O   LIG    1       -4.981  -3.834   0.028  0.00  0.00    -0.460 OA
ATOM     25  C   LIG    1       -6.218  -1.824   0.051  0.00  0.00    +0.070 C 
ENDBRANCH  20  23
BRANCH  17  27
ATOM     26  C   LIG    1       -0.017   1.425   0.010  0.00  0.00    +0.240 C 
ATOM     27  O   LIG    1        0.002  -0.004   0.002  0.00  0.00    -0.310 OA
ENDBRANCH  17  27
ENDBRANCH  16  22
ENDBRANCH   1  16
TORSDOF 6
