REMARK  Name = ZINCrH00000No4Kz.2
REMARK                            x       y       z     vdW  Elec       q    Type
REMARK                         _______ _______ _______ _____ _____    ______ ____
ROOT
ATOM      1  N   LIG    1        3.464   2.869   2.722  0.00  0.00    -0.510 NA
ATOM      2  C   LIG    1        3.694   2.752   4.178  0.00  0.00    +0.180 C 
ATOM      3  C   LIG    1        5.052   3.456   4.422  0.00  0.00    +0.030 C 
ATOM      4  C   LIG    1        4.977   4.638   3.420  0.00  0.00    +0.030 C 
ATOM      5  C   LIG    1        4.224   4.028   2.219  0.00  0.00    +0.260 C 
ENDROOT
BRANCH   5   6
ATOM      6  C   LIG    1        3.280   5.045   1.632  0.00  0.00    +0.180 A 
ATOM      7  N   LIG    1        2.156   5.442   2.171  0.00  0.00    -0.470 NA
ATOM      8  C   LIG    1        1.585   6.350   1.376  0.00  0.00    +0.010 A 
ATOM      9  C   LIG    1        2.379   6.517   0.296  0.00  0.00    -0.020 A 
ATOM     10  C   LIG    1        2.081   7.455  -0.844  0.00  0.00    +0.110 C 
ATOM     11  C   LIG    1        0.598   7.841  -0.777  0.00  0.00    +0.030 C 
ATOM     12  C   LIG    1        0.253   8.294   0.644  0.00  0.00    +0.010 C 
ATOM     13  C   LIG    1        0.286   7.086   1.589  0.00  0.00    +0.120 C 
ATOM     14  N   LIG    1        3.451   5.694   0.457  0.00  0.00    -0.440 N 
ATOM     15  C   LIG    1        4.577   5.539  -0.468  0.00  0.00    +0.330 C 
ENDBRANCH   5   6
BRANCH   1  16
ATOM     16  C   LIG    1        2.032   3.010   2.425  0.00  0.00    +0.200 C 
BRANCH  16  17
ATOM     17  C   LIG    1        1.316   1.693   2.733  0.00  0.00    +0.300 C 
BRANCH  17  27
ATOM     18  C   LIG    1       -0.013   1.086   0.008  0.00  0.00    +0.180 C 
ATOM     19  C   LIG    1       -0.718   1.572   1.248  0.00  0.00    +0.280 A 
ATOM     20  N   LIG    1       -1.995   1.808   1.335  0.00  0.00    -0.500 NA
ATOM     21  C   LIG    1       -2.296   2.229   2.590  0.00  0.00    +0.050 A 
ATOM     22  C   LIG    1       -3.485   2.609   3.220  0.00  0.00    +0.060 A 
ATOM     23  C   LIG    1       -3.466   3.000   4.528  0.00  0.00    +0.000 A 
ATOM     24  C   LIG    1       -2.278   3.025   5.243  0.00  0.00    +0.030 A 
ATOM     25  C   LIG    1       -1.093   2.655   4.643  0.00  0.00    +0.010 A 
ATOM     26  C   LIG    1       -1.092   2.254   3.314  0.00  0.00    +0.050 A 
ATOM     27  N   LIG    1       -0.112   1.833   2.437  0.00  0.00    -0.480 N 
ENDBRANCH  17  27
ENDBRANCH  16  17
ENDBRANCH   1  16
TORSDOF 4
