REMARK  Name = ZINCpe00000gMrFS.0
REMARK                            x       y       z     vdW  Elec       q    Type
REMARK                         _______ _______ _______ _____ _____    ______ ____
ROOT
ATOM      1  C   LIG    1        1.774   2.932  -0.900  0.00  0.00    +0.590 C 
ATOM      2  N   LIG    1        1.452   1.837  -0.184  0.00  0.00    -0.600 N 
ATOM      3  C   LIG    1        0.062   1.360  -0.118  0.00  0.00    +0.300 C 
ATOM      4  C   LIG    1        0.042  -0.132  -0.467  0.00  0.00    +0.190 C 
ATOM      5  N   LIG    1        0.986  -0.847   0.401  0.00  0.00    -0.490 N 
ATOM      6  C   LIG    1        2.365  -0.394   0.176  0.00  0.00    +0.190 C 
ATOM      7  C   LIG    1        2.481   1.087   0.552  0.00  0.00    +0.300 C 
ATOM      8  O   LIG    1        0.940   3.462  -1.608  0.00  0.00    -0.520 OA
ENDROOT
BRANCH   1  11
ATOM      9  N   LIG    1        5.191   3.468   0.164  0.00  0.00    -0.340 N 
ATOM     10  N   LIG    1        3.991   3.021   0.062  0.00  0.00    -0.160 NA
ATOM     11  C   LIG    1        3.142   3.489  -0.825  0.00  0.00    +0.010 A 
ATOM     12  C   LIG    1        3.530   4.529  -1.703  0.00  0.00    +0.130 A 
ATOM     13  C   LIG    1        4.799   5.018  -1.604  0.00  0.00    -0.020 A 
ATOM     14  C   LIG    1        5.650   4.455  -0.627  0.00  0.00    +0.480 A 
ATOM     15  O   LIG    1        6.793   4.861  -0.502  0.00  0.00    -0.520 OA
BRANCH   9  16
ATOM     16  C   LIG    1        6.082   2.891   1.173  0.00  0.00    +0.350 C 
BRANCH  16  17
ATOM     17  C   LIG    1        5.941   3.669   2.483  0.00  0.00    +0.180 C 
BRANCH  17  19
ATOM     18  C   LIG    1        4.382   4.183   4.230  0.00  0.00    +0.200 C 
ATOM     19  O   LIG    1        4.621   3.494   3.001  0.00  0.00    -0.380 OA
ENDBRANCH  17  19
ENDBRANCH  16  17
ENDBRANCH   9  16
ENDBRANCH   1  11
BRANCH   5  20
ATOM     20  C   LIG    1        0.878  -2.229   0.227  0.00  0.00    +0.110 A 
ATOM     21  C   LIG    1       -0.043  -2.747  -0.675  0.00  0.00    -0.040 A 
ATOM     22  C   LIG    1       -0.143  -4.113  -0.849  0.00  0.00    +0.030 A 
ATOM     23  C   LIG    1        0.664  -4.966  -0.119  0.00  0.00    -0.030 A 
ATOM     24  C   LIG    1        1.579  -4.454   0.784  0.00  0.00    +0.030 A 
ATOM     25  C   LIG    1        1.688  -3.088   0.959  0.00  0.00    -0.020 A 
ENDBRANCH   5  20
TORSDOF 5
