REMARK  Name = ZINCc700000054uS.2
REMARK                            x       y       z     vdW  Elec       q    Type
REMARK                         _______ _______ _______ _____ _____    ______ ____
ROOT
ATOM      1  C   LIG    1        0.002  -0.004   0.002  0.00  0.00    +0.120 C 
ATOM      2  C   LIG    1        0.738  -0.493  -1.249  0.00  0.00    +0.050 C 
ATOM      3  C   LIG    1        2.153   0.091  -1.260  0.00  0.00    +0.040 C 
ATOM      4  C   LIG    1        2.070   1.619  -1.215  0.00  0.00    +0.170 C 
ATOM      5  N   LIG    1        1.359   2.036   0.000  0.00  0.00    -0.540 NA
ATOM      6  C   LIG    1        1.380   3.497   0.147  0.00  0.00    +0.200 C 
ATOM      7  F   LIG    1        0.663  -0.469   1.144  0.00  0.00    -0.180 F 
ATOM      8  C   LIG    1       -0.019   1.526   0.010  0.00  0.00    +0.190 C 
ENDROOT
BRANCH   1  12
ATOM      9  C   LIG    1       -3.595  -0.811   1.034  0.00  0.00    +0.280 C 
ATOM     10  N   LIG    1       -2.221  -0.303   1.045  0.00  0.00    -0.720 N 
ATOM     11  H   LIG    1       -1.893   0.194   1.811  0.00  0.00    +0.410 HD
ATOM     12  C   LIG    1       -1.411  -0.526  -0.009  0.00  0.00    +0.500 C 
ATOM     13  O   LIG    1       -1.821  -1.148  -0.967  0.00  0.00    -0.520 OA
ENDBRANCH   1  12
TORSDOF 1
