REMARK  Name = ZINCpk00000KfKPn.0
REMARK                            x       y       z     vdW  Elec       q    Type
REMARK                         _______ _______ _______ _____ _____    ______ ____
ROOT
ATOM      1  C   LIG    1       -4.300   4.856  -1.008  0.00  0.00    +0.520 C 
ATOM      2  N   LIG    1       -5.026   5.264  -2.068  0.00  0.00    -0.520 N 
ATOM      3  H   LIG    1       -4.710   5.087  -2.968  0.00  0.00    +0.430 HD
ATOM      4  O   LIG    1       -4.694   5.077   0.118  0.00  0.00    -0.510 OA
ENDROOT
BRANCH   2   5
ATOM      5  N   LIG    1       -6.235   5.943  -1.869  0.00  0.00    -0.530 N 
ATOM      6  H   LIG    1       -6.550   6.120  -0.969  0.00  0.00    +0.430 HD
ATOM      7  C   LIG    1       -6.961   6.350  -2.930  0.00  0.00    +0.510 C 
ATOM      8  O   LIG    1       -6.567   6.130  -4.055  0.00  0.00    -0.530 OA
BRANCH   7   9
ATOM      9  C   LIG    1       -8.262   7.081  -2.716  0.00  0.00    +0.160 C 
BRANCH   9  10
ATOM     10  C   LIG    1       -8.870   7.423  -4.052  0.00  0.00    -0.230 A 
ATOM     11  C   LIG    1       -8.661   8.560  -4.754  0.00  0.00    +0.110 A 
ATOM     12  N   LIG    1       -9.382   8.479  -5.892  0.00  0.00    -0.370 N 
ATOM     13  N   LIG    1      -10.064   7.256  -5.884  0.00  0.00    -0.300 NA
ATOM     14  C   LIG    1       -9.445   9.494  -6.947  0.00  0.00    +0.360 C 
ATOM     15  C   LIG    1       -7.777   9.709  -4.342  0.00  0.00    +0.140 C 
ATOM     16  C   LIG    1       -9.757   6.623  -4.781  0.00  0.00    +0.090 A 
ATOM     17  C   LIG    1      -10.270   5.268  -4.367  0.00  0.00    +0.150 C 
ENDBRANCH   9  10
ENDBRANCH   7   9
ENDBRANCH   2   5
BRANCH   1  18
ATOM     18  C   LIG    1       -2.999   4.126  -1.221  0.00  0.00    +0.240 C 
BRANCH  18  19
ATOM     19  O   LIG    1       -2.422   3.802   0.045  0.00  0.00    -0.300 OA
BRANCH  19  27
ATOM     20  C   LIG    1       -2.513   0.979   0.019  0.00  0.00    +0.100 C 
ATOM     21  C   LIG    1       -1.218   1.750   0.017  0.00  0.00    -0.090 A 
ATOM     22  C   LIG    1       -0.013   1.076   0.008  0.00  0.00    +0.010 A 
ATOM     23  C   LIG    1        1.176   1.783   0.000  0.00  0.00    +0.020 A 
ATOM     24  C   LIG    1        1.160   3.165   0.008  0.00  0.00    +0.010 A 
ATOM     25  C   LIG    1       -0.043   3.844   0.024  0.00  0.00    -0.090 A 
ATOM     26  C   LIG    1       -0.059   5.351   0.032  0.00  0.00    +0.100 C 
ATOM     27  C   LIG    1       -1.237   3.137   0.031  0.00  0.00    +0.080 A 
ENDBRANCH  19  27
ENDBRANCH  18  19
ENDBRANCH   1  18
TORSDOF 6
