REMARK  Name = ZINCrD000000Cacm.0
REMARK                            x       y       z     vdW  Elec       q    Type
REMARK                         _______ _______ _______ _____ _____    ______ ____
ROOT
ATOM      1  O   LIG    1        5.018   0.902  -0.163  0.00  0.00    -0.570 OA
ATOM      2  C   LIG    1        5.011   2.101   0.040  0.00  0.00    +0.720 C 
ATOM      3  N   LIG    1        6.169   2.751   0.274  0.00  0.00    -0.630 N 
ATOM      4  C   LIG    1        6.296   4.173   0.641  0.00  0.00    +0.240 C 
ATOM      5  C   LIG    1        7.726   4.571   0.196  0.00  0.00    +0.040 C 
ATOM      6  C   LIG    1        8.524   3.281   0.524  0.00  0.00    +0.060 C 
ATOM      7  C   LIG    1        7.512   2.158   0.213  0.00  0.00    +0.240 C 
ATOM      8  N   LIG    1        3.847   2.780   0.031  0.00  0.00    -0.670 N 
ATOM      9  H   LIG    1        3.845   3.741   0.163  0.00  0.00    +0.410 HD
ENDROOT
BRANCH   8  10
ATOM     10  C   LIG    1        2.639   2.098  -0.169  0.00  0.00    +0.140 A 
ATOM     11  C   LIG    1        2.627   0.892  -0.854  0.00  0.00    +0.060 A 
ATOM     12  C   LIG    1        1.435   0.221  -1.050  0.00  0.00    -0.010 A 
ATOM     13  C   LIG    1        0.253   0.749  -0.565  0.00  0.00    +0.020 A 
ATOM     14  C   LIG    1        0.257   1.950   0.119  0.00  0.00    -0.060 A 
ATOM     15  C   LIG    1        1.448   2.629   0.320  0.00  0.00    +0.100 A 
BRANCH  15  16
ATOM     16  O   LIG    1        1.453   3.811   0.992  0.00  0.00    -0.310 OA
BRANCH  16  17
ATOM     17  C   LIG    1        0.211   4.248   1.547  0.00  0.00    +0.160 C 
ATOM     18  C   LIG    1       -0.586   5.046   0.494  0.00  0.00    +0.000 C 
ATOM     19  C   LIG    1       -1.269   6.173   1.310  0.00  0.00    +0.020 C 
ATOM     20  C   LIG    1       -0.183   6.552   2.347  0.00  0.00    +0.020 C 
ATOM     21  C   LIG    1        0.467   5.205   2.725  0.00  0.00    +0.040 C 
ENDBRANCH  16  17
ENDBRANCH  15  16
ENDBRANCH   8  10
BRANCH   7  22
ATOM     22  C   LIG    1        7.636   1.040   1.250  0.00  0.00    +0.170 C 
BRANCH  22  23
ATOM     23  N   LIG    1        8.939   0.378   1.104  0.00  0.00    -0.530 NA
ATOM     24  C   LIG    1        8.975  -0.451  -0.109  0.00  0.00    +0.160 C 
ATOM     25  C   LIG    1       10.366  -1.074  -0.254  0.00  0.00    +0.220 C 
ATOM     26  O   LIG    1       10.672  -1.825   0.924  0.00  0.00    -0.390 OA
ATOM     27  C   LIG    1       10.646  -1.048   2.125  0.00  0.00    +0.220 C 
ATOM     28  C   LIG    1        9.258  -0.425   2.293  0.00  0.00    +0.150 C 
ENDBRANCH  22  23
ENDBRANCH   7  22
TORSDOF 5
