REMARK  Name = ZINCpk00000xI6jf.0
REMARK                            x       y       z     vdW  Elec       q    Type
REMARK                         _______ _______ _______ _____ _____    ______ ____
ROOT
ATOM      1  N   LIG    1       -3.368  -0.656   2.587  0.00  0.00    -0.550 N 
ATOM      2  C   LIG    1       -2.400  -0.310   1.714  0.00  0.00    +0.600 A 
ATOM      3  C   LIG    1       -1.714   0.908   1.893  0.00  0.00    -0.150 A 
ATOM      4  C   LIG    1       -2.052   1.725   2.966  0.00  0.00    +0.340 A 
ATOM      5  N   LIG    1       -3.056   1.314   3.828  0.00  0.00    -0.510 N 
ATOM      6  C   LIG    1       -3.433   2.156   4.966  0.00  0.00    +0.350 C 
ATOM      7  N   LIG    1       -1.267   2.802   2.910  0.00  0.00    -0.500 NA
ATOM      8  C   LIG    1       -0.456   2.711   1.879  0.00  0.00    +0.540 A 
ATOM      9  N   LIG    1       -0.698   1.558   1.213  0.00  0.00    -0.400 N 
ATOM     10  O   LIG    1       -2.120  -1.043   0.782  0.00  0.00    -0.510 OA
ATOM     11  C   LIG    1       -3.686   0.142   3.621  0.00  0.00    +0.710 A 
ATOM     12  O   LIG    1       -4.565  -0.202   4.388  0.00  0.00    -0.530 OA
ENDROOT
BRANCH   8  13
ATOM     13  N   LIG    1        0.498   3.655   1.524  0.00  0.00    -0.320 N 
ATOM     14  N   LIG    1        1.367   3.579   0.428  0.00  0.00    -0.290 NA
ATOM     15  C   LIG    1        2.117   4.651   0.424  0.00  0.00    +0.110 A 
ATOM     16  C   LIG    1        1.753   5.448   1.516  0.00  0.00    -0.220 A 
ATOM     17  C   LIG    1        2.364   6.775   1.888  0.00  0.00    +0.140 C 
ATOM     18  C   LIG    1        3.189   4.973  -0.584  0.00  0.00    +0.180 C 
ATOM     19  C   LIG    1        0.753   4.821   2.176  0.00  0.00    +0.130 A 
ATOM     20  C   LIG    1        0.050   5.322   3.412  0.00  0.00    +0.180 C 
ENDBRANCH   8  13
BRANCH   9  21
ATOM     21  C   LIG    1       -0.013   1.086   0.008  0.00  0.00    +0.330 C 
ATOM     22  C   LIG    1       -0.753   1.593  -1.232  0.00  0.00    +0.040 C 
ENDBRANCH   9  21
BRANCH   1  23
ATOM     23  C   LIG    1       -4.084  -1.921   2.406  0.00  0.00    +0.310 C 
BRANCH  23  25
ATOM     24  C   LIG    1       -6.060  -3.012   1.334  0.00  0.00    +0.030 C 
ATOM     25  C   LIG    1       -5.312  -1.691   1.523  0.00  0.00    +0.000 C 
ENDBRANCH  23  25
ENDBRANCH   1  23
TORSDOF 4
