REMARK  Name = ZINCqH0000033H91.0
REMARK                            x       y       z     vdW  Elec       q    Type
REMARK                         _______ _______ _______ _____ _____    ______ ____
ROOT
ATOM      1  C   LIG    1        1.825   3.578  -3.163  0.00  0.00    +0.130 A 
ATOM      2  N   LIG    1        1.711   2.559  -2.360  0.00  0.00    -0.440 NA
ATOM      3  C   LIG    1        1.752   2.807  -1.071  0.00  0.00    +0.090 A 
ATOM      4  C   LIG    1        1.901   4.091  -0.729  0.00  0.00    -0.070 A 
ATOM      5  S   LIG    1        2.007   5.046  -2.206  0.00  0.00    +0.090 S 
ENDROOT
BRANCH   1   9
ATOM      6  C   LIG    1        1.767   3.392  -7.407  0.00  0.00    +0.150 A 
ATOM      7  C   LIG    1        1.917   4.617  -6.770  0.00  0.00    -0.010 A 
ATOM      8  C   LIG    1        1.937   4.681  -5.393  0.00  0.00    +0.070 A 
ATOM      9  C   LIG    1        1.805   3.513  -4.640  0.00  0.00    -0.070 A 
ATOM     10  C   LIG    1        1.659   2.284  -5.284  0.00  0.00    +0.120 A 
ATOM     11  C   LIG    1        1.635   2.228  -6.661  0.00  0.00    -0.080 A 
BRANCH   6  12
ATOM     12  O   LIG    1        1.748   3.333  -8.764  0.00  0.00    -0.310 OA
BRANCH  12  14
ATOM     13  C   LIG    1        1.593   2.174 -10.880  0.00  0.00    +0.070 C 
ATOM     14  C   LIG    1        1.590   2.041  -9.355  0.00  0.00    +0.170 C 
ENDBRANCH  12  14
ENDBRANCH   6  12
ENDBRANCH   1   9
BRANCH   3  15
ATOM     15  C   LIG    1        1.631   1.714  -0.041  0.00  0.00    +0.150 C 
BRANCH  15  16
ATOM     16  C   LIG    1        0.364   0.934  -0.283  0.00  0.00    +0.520 C 
ATOM     17  N   LIG    1        0.046  -0.100   0.521  0.00  0.00    -0.650 N 
ATOM     18  H   LIG    1        0.662  -0.383   1.215  0.00  0.00    +0.400 HD
ATOM     19  O   LIG    1       -0.365   1.233  -1.204  0.00  0.00    -0.500 OA
BRANCH  17  20
ATOM     20  C   LIG    1       -1.182  -0.769   0.354  0.00  0.00    -0.010 A 
ATOM     21  C   LIG    1       -1.342  -2.090   0.084  0.00  0.00    +0.080 A 
ATOM     22  N   LIG    1       -2.676  -2.332   0.001  0.00  0.00    -0.370 N 
ATOM     23  N   LIG    1       -3.348  -1.124   0.226  0.00  0.00    -0.290 NA
ATOM     24  C   LIG    1       -3.301  -3.627  -0.277  0.00  0.00    +0.360 C 
ATOM     25  C   LIG    1       -0.240  -3.103  -0.091  0.00  0.00    +0.140 C 
ATOM     26  C   LIG    1       -2.456  -0.191   0.444  0.00  0.00    +0.090 A 
ATOM     27  C   LIG    1       -2.749   1.258   0.736  0.00  0.00    +0.150 C 
ENDBRANCH  17  20
ENDBRANCH  15  16
ENDBRANCH   3  15
TORSDOF 6
