REMARK  Name = ZINCqH0000006K3u.0
REMARK                            x       y       z     vdW  Elec       q    Type
REMARK                         _______ _______ _______ _____ _____    ______ ____
ROOT
ATOM      1  N   LIG    1       -3.596   3.378   2.634  0.00  0.00    -0.720 N 
ATOM      2  H   LIG    1       -3.077   3.322   3.451  0.00  0.00    +0.400 HD
ATOM      3  C   LIG    1       -3.078   2.928   1.474  0.00  0.00    +0.520 C 
ATOM      4  O   LIG    1       -3.728   2.998   0.452  0.00  0.00    -0.520 OA
ENDROOT
BRANCH   1   5
ATOM      5  C   LIG    1       -4.944   3.951   2.661  0.00  0.00    +0.320 C 
BRANCH   5  10
ATOM      6  C   LIG    1       -5.293   6.041   5.789  0.00  0.00    +0.130 A 
ATOM      7  C   LIG    1       -5.908   5.144   6.651  0.00  0.00    -0.070 A 
ATOM      8  C   LIG    1       -6.208   3.867   6.218  0.00  0.00    -0.050 A 
ATOM      9  C   LIG    1       -5.901   3.484   4.926  0.00  0.00    -0.010 A 
ATOM     10  C   LIG    1       -5.283   4.374   4.067  0.00  0.00    -0.070 A 
ATOM     11  C   LIG    1       -6.876   2.893   7.154  0.00  0.00    +0.100 C 
ATOM     12  C   LIG    1       -4.981   5.652   4.495  0.00  0.00    -0.010 A 
BRANCH   6  14
ATOM     13  C   LIG    1       -5.347   7.629   7.558  0.00  0.00    +0.250 C 
ATOM     14  O   LIG    1       -4.997   7.298   6.213  0.00  0.00    -0.320 OA
ENDBRANCH   6  14
ENDBRANCH   5  10
ENDBRANCH   1   5
BRANCH   3  15
ATOM     15  C   LIG    1       -1.691   2.338   1.447  0.00  0.00    +0.080 C 
BRANCH  15  16
ATOM     16  C   LIG    1       -1.348   1.909   0.019  0.00  0.00    +0.070 C 
ATOM     17  S   LIG    1       -1.246   3.376  -1.045  0.00  0.00    -0.030 S 
ATOM     18  C   LIG    1        0.299   4.074  -0.553  0.00  0.00    -0.140 A 
ATOM     19  C   LIG    1        0.495   5.443  -0.629  0.00  0.00    +0.110 A 
ATOM     20  C   LIG    1        1.715   5.987  -0.271  0.00  0.00    +0.030 A 
ATOM     21  C   LIG    1        2.739   5.160   0.159  0.00  0.00    -0.000 A 
ATOM     22  C   LIG    1        2.545   3.794   0.242  0.00  0.00    +0.010 A 
ATOM     23 CL   LIG    1        4.274   5.843   0.596  0.00  0.00    -0.050 Cl
ATOM     24  C   LIG    1        1.318   3.237  -0.097  0.00  0.00    +0.170 A 
ATOM     25  N   LIG    1        1.145   1.859   0.001  0.00  0.00    -0.650 N 
ATOM     26  H   LIG    1        1.950   1.321   0.070  0.00  0.00    +0.420 HD
ATOM     27  C   LIG    1       -0.014   1.209   0.009  0.00  0.00    +0.530 C 
ATOM     28  O   LIG    1        0.002  -0.004   0.002  0.00  0.00    -0.500 OA
ENDBRANCH  15  16
ENDBRANCH   3  15
TORSDOF 5
