REMARK  Name = ZINCpk00000dFiWA.0
REMARK                            x       y       z     vdW  Elec       q    Type
REMARK                         _______ _______ _______ _____ _____    ______ ____
ROOT
ATOM      1  C   LIG    1       -2.331   2.486  -2.396  0.00  0.00    +0.190 A 
ATOM      2  N   LIG    1       -1.340   2.109  -3.162  0.00  0.00    -0.290 NA
ATOM      3  N   LIG    1       -0.409   1.582  -2.443  0.00  0.00    -0.270 NA
ATOM      4  C   LIG    1       -0.766   1.598  -1.196  0.00  0.00    +0.150 A 
ATOM      5  C   LIG    1       -0.013   1.086   0.008  0.00  0.00    +0.420 C 
ATOM      6  N   LIG    1       -0.726   1.573   1.204  0.00  0.00    -0.620 N 
ATOM      7  C   LIG    1       -2.197   1.499   1.208  0.00  0.00    +0.310 C 
ATOM      8  C   LIG    1       -2.753   2.401   0.100  0.00  0.00    +0.300 C 
ATOM      9  C   LIG    1       -0.052   2.072   2.258  0.00  0.00    +0.540 C 
ATOM     10  O   LIG    1       -0.656   2.468   3.232  0.00  0.00    -0.520 OA
ATOM     11  N   LIG    1       -1.992   2.176  -1.129  0.00  0.00    -0.470 N 
ENDROOT
BRANCH   9  12
ATOM     12  C   LIG    1        1.454   2.138   2.227  0.00  0.00    -0.030 C 
ATOM     13  C   LIG    1        2.030   0.726   2.058  0.00  0.00    +0.250 C 
ATOM     14  O   LIG    1        3.448   0.832   1.929  0.00  0.00    -0.290 OA
ATOM     15  C   LIG    1        4.114   1.587   2.841  0.00  0.00    +0.100 A 
ATOM     16  C   LIG    1        3.463   2.508   3.640  0.00  0.00    -0.120 A 
ATOM     17  C   LIG    1        4.184   3.262   4.553  0.00  0.00    +0.010 A 
ATOM     18  C   LIG    1        5.550   3.097   4.673  0.00  0.00    +0.020 A 
ATOM     19  C   LIG    1        6.207   2.175   3.879  0.00  0.00    -0.040 A 
ATOM     20  C   LIG    1        5.495   1.420   2.964  0.00  0.00    +0.110 A 
ATOM     21  C   LIG    1        1.972   2.713   3.547  0.00  0.00    +0.120 C 
BRANCH  20  22
ATOM     22  O   LIG    1        6.141   0.513   2.183  0.00  0.00    -0.310 OA
ATOM     23  C   LIG    1        7.553   0.393   2.361  0.00  0.00    +0.250 C 
ENDBRANCH  20  22
ENDBRANCH   9  12
BRANCH   1  25
ATOM     24  C   LIG    1       -3.432   4.662  -2.844  0.00  0.00    +0.040 C 
ATOM     25  C   LIG    1       -3.611   3.142  -2.846  0.00  0.00    +0.140 C 
ENDBRANCH   1  25
TORSDOF 3
