REMARK  Name = ZINCvU0000000Ayr.0
REMARK                            x       y       z     vdW  Elec       q    Type
REMARK                         _______ _______ _______ _____ _____    ______ ____
ROOT
ATOM      1  N   LIG    1       -1.737  -3.249   0.000  0.00  0.00    -0.650 N 
ATOM      2  H   LIG    1       -1.528  -4.192  -0.087  0.00  0.00    +0.420 HD
ATOM      3  C   LIG    1       -3.019  -2.851   0.117  0.00  0.00    +0.520 C 
ATOM      4  O   LIG    1       -3.289  -1.668   0.126  0.00  0.00    -0.490 OA
ENDROOT
BRANCH   1  17
ATOM      5  C   LIG    1        0.512  -2.596  -0.609  0.00  0.00    +0.090 A 
ATOM      6  C   LIG    1        1.531  -1.664  -0.605  0.00  0.00    +0.010 A 
ATOM      7  C   LIG    1        1.339  -0.433   0.015  0.00  0.00    -0.100 A 
ATOM      8  C   LIG    1        0.118  -0.133   0.635  0.00  0.00    +0.080 A 
ATOM      9  O   LIG    1        0.195   1.114   1.153  0.00  0.00    -0.190 OA
ATOM     10  C   LIG    1        1.401   1.675   0.919  0.00  0.00    +0.090 A 
ATOM     11  C   LIG    1        1.937   2.913   1.251  0.00  0.00    +0.030 A 
ATOM     12  C   LIG    1        3.226   3.232   0.876  0.00  0.00    +0.060 A 
ATOM     13  C   LIG    1        3.999   2.326   0.168  0.00  0.00    -0.010 A 
ATOM     14  C   LIG    1        3.484   1.091  -0.170  0.00  0.00    +0.070 A 
ATOM     15  C   LIG    1       -0.900  -1.078   0.624  0.00  0.00    +0.080 A 
ATOM     16  C   LIG    1        2.186   0.760   0.203  0.00  0.00    -0.120 A 
ATOM     17  C   LIG    1       -0.706  -2.301   0.007  0.00  0.00    +0.160 A 
BRANCH   5  19
ATOM     18  C   LIG    1        1.965  -4.036  -1.823  0.00  0.00    +0.250 C 
ATOM     19  O   LIG    1        0.694  -3.802  -1.213  0.00  0.00    -0.320 OA
ENDBRANCH   5  19
ENDBRANCH   1  17
BRANCH   3  20
ATOM     20  C   LIG    1       -4.119  -3.875   0.235  0.00  0.00    +0.190 C 
ATOM     21  C   LIG    1       -3.954  -4.650   1.544  0.00  0.00    +0.080 C 
BRANCH  20  22
ATOM     22  O   LIG    1       -5.407  -3.205   0.228  0.00  0.00    -0.310 OA
BRANCH  22  23
ATOM     23  C   LIG    1       -6.449  -3.889  -0.284  0.00  0.00    +0.520 C 
ATOM     24  O   LIG    1       -6.285  -5.013  -0.714  0.00  0.00    -0.470 OA
BRANCH  23  25
ATOM     25  C   LIG    1       -7.788  -3.271  -0.324  0.00  0.00    -0.140 A 
ATOM     26  C   LIG    1       -8.183  -2.519  -1.436  0.00  0.00    +0.160 A 
ATOM     27  C   LIG    1       -9.442  -1.948  -1.467  0.00  0.00    +0.010 A 
ATOM     28  C   LIG    1      -10.304  -2.110  -0.399  0.00  0.00    +0.100 A 
ATOM     29  C   LIG    1       -9.918  -2.848   0.707  0.00  0.00    +0.030 A 
ATOM     30  F   LIG    1       -7.338  -2.355  -2.478  0.00  0.00    -0.120 F 
ATOM     31  C   LIG    1       -8.667  -3.430   0.751  0.00  0.00    +0.030 A 
ATOM     32 CL   LIG    1       -8.187  -4.355   2.140  0.00  0.00    -0.030 Cl
ENDBRANCH  23  25
ENDBRANCH  22  23
ENDBRANCH  20  22
ENDBRANCH   3  20
TORSDOF 6
