REMARK  Name = ZINCpk00000y2BSw.0
REMARK                            x       y       z     vdW  Elec       q    Type
REMARK                         _______ _______ _______ _____ _____    ______ ____
ROOT
ATOM      1  N   LIG    1        2.859   4.410   0.952  0.00  0.00    -0.730 N 
ATOM      2  H   LIG    1        2.364   4.211   1.763  0.00  0.00    +0.400 HD
ENDROOT
BRANCH   1   6
ATOM      3  C   LIG    1        6.577   6.646  -1.356  0.00  0.00    +0.100 C 
ATOM      4  C   LIG    1        5.807   6.336  -0.098  0.00  0.00    -0.060 A 
ATOM      5  C   LIG    1        4.694   5.520  -0.154  0.00  0.00    -0.010 A 
ATOM      6  C   LIG    1        3.985   5.234   1.006  0.00  0.00    +0.210 A 
ATOM      7  C   LIG    1        4.395   5.775   2.217  0.00  0.00    +0.040 A 
ATOM      8  C   LIG    1        5.512   6.586   2.267  0.00  0.00    -0.620 A 
ATOM      9  C   LIG    1        6.215   6.868   1.111  0.00  0.00    +0.060 A 
BRANCH   8  10
ATOM     10  S   LIG    1        6.037   7.266   3.805  0.00  0.00    +2.700 S 
ATOM     11  O   LIG    1        7.421   7.559   3.663  0.00  0.00    -0.960 OA
ATOM     12  O   LIG    1        5.523   6.413   4.818  0.00  0.00    -0.960 OA
BRANCH  10  13
ATOM     13  N   LIG    1        5.268   8.722   3.985  0.00  0.00    -1.250 NA
ATOM     14  H   LIG    1        5.426   9.259   4.777  0.00  0.00    +0.420 HD
ATOM     15  H   LIG    1        4.660   9.037   3.299  0.00  0.00    +0.420 HD
ENDBRANCH  10  13
ENDBRANCH   8  10
ENDBRANCH   1   6
BRANCH   1  16
ATOM     16  C   LIG    1        2.424   3.845  -0.328  0.00  0.00    +0.320 C 
BRANCH  16  17
ATOM     17  C   LIG    1        1.144   3.075  -0.129  0.00  0.00    -0.130 A 
ATOM     18  C   LIG    1        1.157   1.693  -0.083  0.00  0.00    +0.090 A 
ATOM     19  C   LIG    1       -0.047   1.025   0.101  0.00  0.00    -0.030 A 
ATOM     20  C   LIG    1       -1.212   1.754   0.228  0.00  0.00    +0.280 A 
ATOM     21  N   LIG    1       -1.194   3.073   0.186  0.00  0.00    -0.510 NA
ATOM     22  C   LIG    1       -0.067   3.746   0.012  0.00  0.00    +0.310 A 
BRANCH  22  23
ATOM     23  N   LIG    1       -0.095   5.135  -0.032  0.00  0.00    -0.480 N 
ATOM     24  C   LIG    1       -0.600   5.692   1.232  0.00  0.00    +0.170 C 
ATOM     25  C   LIG    1       -0.557   7.221   1.163  0.00  0.00    +0.230 C 
ATOM     26  O   LIG    1       -1.316   7.663   0.034  0.00  0.00    -0.380 OA
ATOM     27  C   LIG    1       -0.850   7.141  -1.214  0.00  0.00    +0.230 C 
ATOM     28  C   LIG    1       -0.896   5.611  -1.169  0.00  0.00    +0.160 C 
ENDBRANCH  22  23
ENDBRANCH  16  17
ENDBRANCH   1  16
TORSDOF 6
