REMARK  Name = ZINCrD000000CV44.0
REMARK                            x       y       z     vdW  Elec       q    Type
REMARK                         _______ _______ _______ _____ _____    ______ ____
ROOT
ATOM      1  O   LIG    1        5.125   8.133  -2.240  0.00  0.00    -0.530 OA
ATOM      2  C   LIG    1        5.554   8.308  -1.117  0.00  0.00    +0.700 C 
ATOM      3  N   LIG    1        6.767   8.829  -0.851  0.00  0.00    -0.710 N 
ATOM      4  H   LIG    1        7.429   9.120  -1.498  0.00  0.00    +0.440 HD
ATOM      5  C   LIG    1        6.890   8.869   0.612  0.00  0.00    +0.170 C 
ATOM      6  C   LIG    1        5.579   8.303   1.106  0.00  0.00    +0.540 C 
ATOM      7  O   LIG    1        5.235   8.149   2.259  0.00  0.00    -0.450 OA
ATOM      8  C   LIG    1        7.061  10.306   1.094  0.00  0.00    +0.050 C 
ATOM      9  C   LIG    1        8.501  10.747   0.794  0.00  0.00    +0.260 C 
ATOM     10  O   LIG    1        9.392   9.931   1.555  0.00  0.00    -0.310 OA
ATOM     11  C   LIG    1        9.224   8.584   1.508  0.00  0.00    +0.160 A 
ATOM     12  C   LIG    1       10.272   7.767   1.917  0.00  0.00    -0.010 A 
ATOM     13  C   LIG    1       10.134   6.394   1.887  0.00  0.00    +0.070 A 
ATOM     14  C   LIG    1        8.951   5.828   1.449  0.00  0.00    -0.020 A 
ATOM     15  C   LIG    1        7.908   6.637   1.040  0.00  0.00    +0.060 A 
ATOM     16  C   LIG    1        8.040   8.014   1.067  0.00  0.00    -0.180 A 
ATOM     17  N   LIG    1        4.874   8.004  -0.004  0.00  0.00    -0.580 N 
ENDROOT
BRANCH  17  18
ATOM     18  C   LIG    1        3.529   7.424   0.006  0.00  0.00    +0.320 C 
BRANCH  18  19
ATOM     19  C   LIG    1        3.631   5.898  -0.003  0.00  0.00    +0.030 C 
BRANCH  19  20
ATOM     20  C   LIG    1        2.226   5.292   0.008  0.00  0.00    +0.200 C 
BRANCH  20  21
ATOM     21  O   LIG    1        2.322   3.866  -0.000  0.00  0.00    -0.310 OA
BRANCH  21  22
ATOM     22  C   LIG    1        1.155   3.169   0.008  0.00  0.00    +0.140 A 
ATOM     23  C   LIG    1        1.175   1.782   0.000  0.00  0.00    +0.000 A 
ATOM     24  C   LIG    1       -0.013   1.076   0.008  0.00  0.00    +0.070 A 
ATOM     25  C   LIG    1       -1.220   1.751   0.017  0.00  0.00    -0.070 A 
ATOM     26  C   LIG    1       -1.242   3.134   0.030  0.00  0.00    +0.070 A 
ATOM     27 CL   LIG    1       -2.711   0.861   0.019  0.00  0.00    -0.070 Cl
ATOM     28  C   LIG    1       -0.057   3.844   0.022  0.00  0.00    -0.060 A 
ENDBRANCH  21  22
ENDBRANCH  20  21
ENDBRANCH  19  20
ENDBRANCH  18  19
ENDBRANCH  17  18
TORSDOF 5
