REMARK  Name = ZINCb70000002ye8.0
REMARK                            x       y       z     vdW  Elec       q    Type
REMARK                         _______ _______ _______ _____ _____    ______ ____
ROOT
ATOM      1  C   LIG    1        1.139   3.547   0.010  0.00  0.00    +0.130 C 
ATOM      2  C   LIG    1        2.544   4.199   0.000  0.00  0.00    +0.070 C 
ATOM      3  C   LIG    1        2.463   5.611  -0.353  0.00  0.00    +0.070 C 
ATOM      4  C   LIG    1        1.629   6.435   0.641  0.00  0.00    +0.250 C 
ATOM      5  N   LIG    1        0.240   6.298   0.275  0.00  0.00    -0.500 N 
ATOM      6  C   LIG    1       -0.438   5.247   1.063  0.00  0.00    +0.270 C 
ATOM      7  H   LIG    1        0.181   6.063  -0.705  0.00  0.00    +0.430 HD
ATOM      8  H   LIG    1       -0.228   7.179   0.429  0.00  0.00    +0.430 HD
ATOM      9  C   LIG    1        0.411   3.978   1.256  0.00  0.00    +0.050 C 
ENDROOT
BRANCH   1  10
ATOM     10  O   LIG    1        0.408   3.967  -1.144  0.00  0.00    -0.570 OA
ATOM     11  H   LIG    1       -0.485   3.599  -1.200  0.00  0.00    +0.400 HD
ENDBRANCH   1  10
BRANCH   1  12
ATOM     12  C   LIG    1        1.280   2.024   0.001  0.00  0.00    +0.170 C 
BRANCH  12  14
ATOM     13  C   LIG    1        0.002  -0.004   0.002  0.00  0.00    +0.220 C 
ATOM     14  O   LIG    1       -0.017   1.425   0.010  0.00  0.00    -0.400 OA
ENDBRANCH  12  14
ENDBRANCH   1  12
TORSDOF 3
