REMARK  Name = ZINCqH0000032vLf.0
REMARK                            x       y       z     vdW  Elec       q    Type
REMARK                         _______ _______ _______ _____ _____    ______ ____
ROOT
ATOM      1  N   LIG    1        6.516  -0.065  -2.328  0.00  0.00    -0.680 N 
ATOM      2  H   LIG    1        6.427   0.890  -2.466  0.00  0.00    +0.410 HD
ATOM      3  C   LIG    1        5.570  -0.738  -1.642  0.00  0.00    +0.710 C 
ATOM      4  N   LIG    1        4.557  -0.068  -1.058  0.00  0.00    -0.720 N 
ATOM      5  H   LIG    1        4.509   0.898  -1.131  0.00  0.00    +0.400 HD
ATOM      6  O   LIG    1        5.631  -1.949  -1.551  0.00  0.00    -0.570 OA
ENDROOT
BRANCH   1  12
ATOM      7  C   LIG    1       11.230  -3.822  -3.450  0.00  0.00    +0.130 A 
ATOM      8  N   LIG    1       10.900  -2.855  -4.221  0.00  0.00    -0.460 NA
ATOM      9  C   LIG    1        9.843  -2.095  -3.871  0.00  0.00    +0.060 A 
ATOM     10  C   LIG    1        9.289  -0.986  -4.545  0.00  0.00    +0.100 A 
ATOM     11  C   LIG    1        8.209  -0.334  -4.037  0.00  0.00    +0.010 A 
ATOM     12  C   LIG    1        7.627  -0.747  -2.840  0.00  0.00    +0.180 A 
ATOM     13  C   LIG    1        8.153  -1.828  -2.156  0.00  0.00    +0.060 A 
ATOM     14  C   LIG    1        9.255  -2.507  -2.670  0.00  0.00    -0.150 A 
ATOM     15  S   LIG    1       10.150  -3.898  -2.064  0.00  0.00    +0.050 S 
BRANCH   7  17
ATOM     16  C   LIG    1       12.169  -5.494  -5.022  0.00  0.00    +0.060 C 
ATOM     17  C   LIG    1       12.382  -4.762  -3.695  0.00  0.00    +0.070 C 
ATOM     18  C   LIG    1       13.687  -3.965  -3.756  0.00  0.00    +0.060 C 
ENDBRANCH   7  17
ENDBRANCH   1  12
BRANCH   4  19
ATOM     19  C   LIG    1        3.529  -0.799  -0.313  0.00  0.00    +0.320 C 
BRANCH  19  20
ATOM     20  C   LIG    1        2.255   0.006  -0.293  0.00  0.00    -0.100 A 
ATOM     21  C   LIG    1        1.035  -0.626  -0.444  0.00  0.00    +0.030 A 
ATOM     22  C   LIG    1       -0.133   0.113  -0.425  0.00  0.00    +0.020 A 
ATOM     23  C   LIG    1       -0.082   1.484  -0.255  0.00  0.00    +0.020 A 
ATOM     24  C   LIG    1        1.138   2.116  -0.103  0.00  0.00    +0.020 A 
ATOM     25  C   LIG    1        2.307   1.377  -0.123  0.00  0.00    +0.010 A 
ENDBRANCH  19  20
BRANCH  19  26
ATOM     26  C   LIG    1        4.000  -1.029   1.100  0.00  0.00    +0.510 C 
ATOM     27  O   LIG    1        5.088  -0.622   1.450  0.00  0.00    -0.530 OA
ATOM     28  N   LIG    1        3.213  -1.686   1.974  0.00  0.00    -0.850 N 
ATOM     29  H   LIG    1        3.517  -1.834   2.884  0.00  0.00    +0.410 HD
ATOM     30  H   LIG    1        2.343  -2.012   1.694  0.00  0.00    +0.400 HD
ENDBRANCH  19  26
ENDBRANCH   4  19
TORSDOF 5
