REMARK  Name = ZINCtV00001bB3ui.0
REMARK                            x       y       z     vdW  Elec       q    Type
REMARK                         _______ _______ _______ _____ _____    ______ ____
ROOT
ATOM      1  C   LIG    1       -2.932  -2.129   1.458  0.00  0.00    +0.040 C 
ATOM      2  C   LIG    1       -2.082  -2.772   0.361  0.00  0.00    +0.010 C 
ATOM      3  C   LIG    1       -0.707  -2.102   0.321  0.00  0.00    +0.210 C 
ATOM      4  N   LIG    1       -0.866  -0.673   0.020  0.00  0.00    -0.410 N 
ATOM      5  C   LIG    1       -1.484  -0.473  -1.297  0.00  0.00    +0.220 C 
ATOM      6  C   LIG    1       -2.882  -1.095  -1.305  0.00  0.00    +0.070 C 
ATOM      7  C   LIG    1       -2.772  -2.590  -0.994  0.00  0.00    +0.040 C 
ENDROOT
BRANCH   7   8
ATOM      8  C   LIG    1       -4.151  -3.196  -0.942  0.00  0.00    -0.080 A 
ATOM      9  C   LIG    1       -5.176  -2.528  -0.299  0.00  0.00    +0.060 A 
ATOM     10  C   LIG    1       -6.441  -3.084  -0.251  0.00  0.00    +0.020 A 
ATOM     11  C   LIG    1       -6.681  -4.308  -0.847  0.00  0.00    +0.070 A 
ATOM     12  C   LIG    1       -5.656  -4.976  -1.489  0.00  0.00    -0.180 A 
ATOM     13  C   LIG    1       -4.392  -4.419  -1.541  0.00  0.00    +0.060 A 
BRANCH  12  14
ATOM     14  C   LIG    1       -5.917  -6.311  -2.138  0.00  0.00    +0.510 C 
ATOM     15  F   LIG    1       -5.099  -7.283  -1.552  0.00  0.00    -0.180 F 
ATOM     16  F   LIG    1       -5.636  -6.228  -3.506  0.00  0.00    -0.180 F 
ATOM     17  F   LIG    1       -7.260  -6.662  -1.958  0.00  0.00    -0.180 F 
ENDBRANCH  12  14
ENDBRANCH   7   8
BRANCH   4  18
ATOM     18  C   LIG    1        0.337  -0.015   0.104  0.00  0.00    +0.360 A 
ATOM     19  N   LIG    1        0.546   1.271  -0.105  0.00  0.00    -0.480 NA
ATOM     20  C   LIG    1        1.870   1.458   0.090  0.00  0.00    +0.220 A 
ATOM     21  N   LIG    1        2.385   0.296   0.402  0.00  0.00    -0.360 NA
ATOM     22  O   LIG    1        1.524  -0.557   0.415  0.00  0.00    +0.050 OA
BRANCH  20  23
ATOM     23  C   LIG    1        2.604   2.742  -0.028  0.00  0.00    -0.020 A 
ATOM     24  C   LIG    1        1.923   3.906  -0.376  0.00  0.00    +0.080 A 
ATOM     25  C   LIG    1        2.610   5.100  -0.479  0.00  0.00    +0.020 A 
ATOM     26  C   LIG    1        3.973   5.139  -0.249  0.00  0.00    +0.050 A 
ATOM     27  C   LIG    1        4.656   3.985   0.092  0.00  0.00    +0.030 A 
ATOM     28  C   LIG    1        3.978   2.787   0.204  0.00  0.00    -0.010 A 
ATOM     29 CL   LIG    1        4.836   1.339   0.632  0.00  0.00    -0.040 Cl
ENDBRANCH  20  23
ENDBRANCH   4  18
TORSDOF 4
