REMARK  Name = ZINCvU000000062N.0
REMARK                            x       y       z     vdW  Elec       q    Type
REMARK                         _______ _______ _______ _____ _____    ______ ____
ROOT
ATOM      1  N   LIG    1       -0.014   0.961   0.006  0.00  0.00    -0.660 N 
ATOM      2  H   LIG    1        0.784   1.329   0.416  0.00  0.00    +0.410 HD
ATOM      3  C   LIG    1        0.033  -0.241  -0.602  0.00  0.00    +0.560 C 
ATOM      4  O   LIG    1       -0.985  -0.741  -1.042  0.00  0.00    -0.490 OA
ENDROOT
BRANCH   1   8
ATOM      5  C   LIG    1       -3.595   3.101   0.137  0.00  0.00    +0.130 A 
ATOM      6  C   LIG    1       -2.389   3.771   0.012  0.00  0.00    -0.050 A 
ATOM      7  C   LIG    1       -1.203   3.063  -0.026  0.00  0.00    +0.040 A 
ATOM      8  C   LIG    1       -1.217   1.677   0.050  0.00  0.00    +0.110 A 
ATOM      9  C   LIG    1       -2.423   1.000   0.175  0.00  0.00    +0.080 A 
ATOM     10  C   LIG    1       -3.612   1.710   0.218  0.00  0.00    +0.130 A 
BRANCH  10  11
ATOM     11  N   LIG    1       -4.831   1.030   0.344  0.00  0.00    -0.570 N 
ATOM     12  C   LIG    1       -5.640   0.564  -0.789  0.00  0.00    +0.270 C 
ATOM     13  C   LIG    1       -6.616  -0.479  -0.195  0.00  0.00    +0.050 C 
ATOM     14  C   LIG    1       -6.709  -0.017   1.278  0.00  0.00    +0.060 C 
ATOM     15  C   LIG    1       -5.412   0.725   1.517  0.00  0.00    +0.520 C 
ATOM     16  O   LIG    1       -4.963   1.005   2.608  0.00  0.00    -0.520 OA
ENDBRANCH  10  11
BRANCH   5  18
ATOM     17  C   LIG    1       -4.668   5.223   0.091  0.00  0.00    +0.240 C 
ATOM     18  O   LIG    1       -4.761   3.800   0.180  0.00  0.00    -0.310 OA
ENDBRANCH   5  18
ENDBRANCH   1   8
BRANCH   3  19
ATOM     19  C   LIG    1        1.318  -0.951  -0.732  0.00  0.00    -0.190 A 
ATOM     20  C   LIG    1        2.497  -0.388  -0.230  0.00  0.00    +0.120 A 
ATOM     21  C   LIG    1        3.678  -1.095  -0.378  0.00  0.00    -0.040 A 
ATOM     22  C   LIG    1        3.661  -2.325  -1.011  0.00  0.00    +0.320 A 
ATOM     23  N   LIG    1        2.540  -2.839  -1.477  0.00  0.00    -0.480 NA
ATOM     24  C   LIG    1        1.381  -2.208  -1.358  0.00  0.00    +0.150 A 
BRANCH  24  25
ATOM     25  S   LIG    1       -0.087  -2.946  -1.994  0.00  0.00    +0.150 S 
BRANCH  25  26
ATOM     26  C   LIG    1        0.550  -4.509  -2.500  0.00  0.00    -0.150 A 
ATOM     27  C   LIG    1        0.944  -4.706  -3.818  0.00  0.00    +0.090 A 
ATOM     28  C   LIG    1        1.446  -5.931  -4.211  0.00  0.00    +0.040 A 
ATOM     29  C   LIG    1        1.549  -6.964  -3.296  0.00  0.00    -0.060 A 
ATOM     30  C   LIG    1        1.153  -6.772  -1.984  0.00  0.00    +0.040 A 
ATOM     31 BR   LIG    1        2.232  -8.641  -3.839  0.00  0.00    -0.040 Br
ATOM     32  C   LIG    1        0.654  -5.548  -1.584  0.00  0.00    +0.080 A 
ENDBRANCH  25  26
ENDBRANCH  24  25
ENDBRANCH   3  19
TORSDOF 6
