REMARK  Name = ZINCpk00000eaoSs.0
REMARK                            x       y       z     vdW  Elec       q    Type
REMARK                         _______ _______ _______ _____ _____    ______ ____
ROOT
ATOM      1  C   LIG    1       -0.521  -0.088   4.601  0.00  0.00    +0.100 A 
ATOM      2  C   LIG    1        0.132  -0.594   3.490  0.00  0.00    +0.010 A 
ATOM      3  C   LIG    1        0.021   0.048   2.270  0.00  0.00    -0.110 A 
ATOM      4  C   LIG    1       -0.738   1.198   2.158  0.00  0.00    +0.040 A 
ATOM      5  C   LIG    1       -1.398   1.705   3.263  0.00  0.00    -0.040 A 
ATOM      6  C   LIG    1       -1.290   1.067   4.487  0.00  0.00    +0.120 A 
ENDROOT
BRANCH   3   7
ATOM      7  C   LIG    1        0.733  -0.504   1.062  0.00  0.00    +0.440 C 
ATOM      8  N   LIG    1        2.176  -0.457   1.295  0.00  0.00    -0.730 N 
ATOM      9  H   LIG    1        2.543   0.139   1.967  0.00  0.00    +0.410 HD
ATOM     10  C   LIG    1        2.997  -1.250   0.569  0.00  0.00    +0.570 C 
ATOM     11  C   LIG    1        2.370  -2.242  -0.327  0.00  0.00    -0.190 A 
ATOM     12  C   LIG    1        3.112  -2.920  -1.290  0.00  0.00    +0.110 A 
ATOM     13  C   LIG    1        2.485  -3.825  -2.121  0.00  0.00    -0.030 A 
ATOM     14  C   LIG    1        1.126  -4.065  -1.996  0.00  0.00    +0.070 A 
ATOM     15  C   LIG    1        0.384  -3.416  -1.029  0.00  0.00    -0.040 A 
ATOM     16  C   LIG    1        1.000  -2.510  -0.176  0.00  0.00    +0.160 A 
ATOM     17  O   LIG    1        4.206  -1.150   0.651  0.00  0.00    -0.520 OA
ATOM     18  N   LIG    1        0.279  -1.874   0.823  0.00  0.00    -0.500 N 
ATOM     19  C   LIG    1       -1.161  -1.910   0.537  0.00  0.00    +0.250 C 
ENDBRANCH   3   7
BRANCH   1  21
ATOM     20  C   LIG    1        0.392  -1.898   5.844  0.00  0.00    +0.240 C 
ATOM     21  O   LIG    1       -0.413  -0.718   5.802  0.00  0.00    -0.300 OA
ENDBRANCH   1  21
BRANCH   6  22
ATOM     22  O   LIG    1       -1.933   1.568   5.576  0.00  0.00    -0.280 OA
BRANCH  22  23
ATOM     23  C   LIG    1       -2.704   2.756   5.384  0.00  0.00    +0.240 C 
BRANCH  23  24
ATOM     24  C   LIG    1       -3.338   3.160   6.690  0.00  0.00    +0.520 C 
ATOM     25  O   LIG    1       -3.150   2.495   7.687  0.00  0.00    -0.510 OA
ATOM     26  N   LIG    1       -4.116   4.259   6.750  0.00  0.00    -0.850 N 
ATOM     27  H   LIG    1       -4.524   4.519   7.591  0.00  0.00    +0.410 HD
ATOM     28  H   LIG    1       -4.267   4.790   5.953  0.00  0.00    +0.400 HD
ENDBRANCH  23  24
ENDBRANCH  22  23
ENDBRANCH   6  22
TORSDOF 5
