REMARK  Name = ZINCpe00000VVH5B.0
REMARK                            x       y       z     vdW  Elec       q    Type
REMARK                         _______ _______ _______ _____ _____    ______ ____
ROOT
ATOM      1  C   LIG    1       -1.791   8.245   0.997  0.00  0.00    +0.330 C 
ATOM      2  N   LIG    1       -1.917   6.821   0.677  0.00  0.00    -0.530 N 
ATOM      3  C   LIG    1       -1.761   6.443  -0.598  0.00  0.00    +0.710 C 
ATOM      4  N   LIG    1       -1.860   5.154  -0.981  0.00  0.00    -0.710 N 
ATOM      5  H   LIG    1       -1.742   4.902  -1.910  0.00  0.00    +0.440 HD
ATOM      6  C   LIG    1       -2.150   4.138   0.045  0.00  0.00    +0.390 C 
ATOM      7  C   LIG    1       -2.316   4.629   1.469  0.00  0.00    -0.280 C 
ATOM      8  C   LIG    1       -2.592   3.950   2.673  0.00  0.00    +0.580 C 
ATOM      9  O   LIG    1       -2.756   2.747   2.763  0.00  0.00    -0.520 OA
ATOM     10  N   LIG    1       -2.651   4.805   3.711  0.00  0.00    -0.620 N 
ATOM     11  C   LIG    1       -2.399   6.152   3.179  0.00  0.00    +0.360 C 
ATOM     12  O   LIG    1       -1.521   7.289  -1.438  0.00  0.00    -0.550 OA
ATOM     13  C   LIG    1       -2.187   5.952   1.695  0.00  0.00    +0.170 C 
ENDROOT
BRANCH   6  14
ATOM     14  C   LIG    1       -1.031   3.129   0.029  0.00  0.00    -0.200 A 
ATOM     15  C   LIG    1       -1.190   1.804   0.017  0.00  0.00    +0.040 A 
ATOM     16  C   LIG    1       -0.013   1.076   0.008  0.00  0.00    +0.010 A 
ATOM     17  C   LIG    1        1.102   1.808   0.001  0.00  0.00    -0.050 A 
ATOM     18  S   LIG    1        0.685   3.517   0.015  0.00  0.00    +0.100 S 
ENDBRANCH   6  14
BRANCH  10  19
ATOM     19  C   LIG    1       -2.917   4.458   5.109  0.00  0.00    +0.330 C 
BRANCH  19  20
ATOM     20  C   LIG    1       -4.424   4.512   5.370  0.00  0.00    +0.160 C 
BRANCH  20  21
ATOM     21  N   LIG    1       -4.691   4.165   6.772  0.00  0.00    -0.530 NA
ATOM     22  C   LIG    1       -4.346   2.761   7.041  0.00  0.00    +0.150 C 
ATOM     23  C   LIG    1       -4.583   2.458   8.523  0.00  0.00    +0.220 C 
ATOM     24  O   LIG    1       -5.942   2.755   8.854  0.00  0.00    -0.380 OA
ATOM     25  C   LIG    1       -6.311   4.114   8.605  0.00  0.00    +0.220 C 
ATOM     26  C   LIG    1       -6.092   4.434   7.124  0.00  0.00    +0.160 C 
ENDBRANCH  20  21
ENDBRANCH  19  20
ENDBRANCH  10  19
TORSDOF 4
