REMARK  Name = ZINCqH0000002aGN.0
REMARK                            x       y       z     vdW  Elec       q    Type
REMARK                         _______ _______ _______ _____ _____    ______ ____
ROOT
ATOM      1  C   LIG    1        3.930   0.421  -3.181  0.00  0.00    +0.560 C 
ATOM      2  N   LIG    1        4.233   0.056  -1.919  0.00  0.00    -0.600 N 
ATOM      3  C   LIG    1        4.761   1.046  -0.978  0.00  0.00    +0.280 C 
ATOM      4  O   LIG    1        3.414  -0.379  -3.937  0.00  0.00    -0.530 OA
ENDROOT
BRANCH   1   9
ATOM      5  C   LIG    1        3.812   3.618  -5.158  0.00  0.00    +0.140 A 
ATOM      6  C   LIG    1        4.785   4.369  -4.509  0.00  0.00    +0.010 A 
ATOM      7  C   LIG    1        5.473   3.837  -3.435  0.00  0.00    +0.020 A 
ATOM      8  C   LIG    1        5.196   2.558  -2.997  0.00  0.00    +0.020 A 
ATOM      9  C   LIG    1        4.225   1.793  -3.645  0.00  0.00    -0.110 A 
ATOM     10  C   LIG    1        3.530   2.330  -4.729  0.00  0.00    +0.090 A 
BRANCH   5  12
ATOM     11  C   LIG    1        1.829   3.826  -6.456  0.00  0.00    +0.510 C 
ATOM     12  N   LIG    1        3.117   4.161  -6.244  0.00  0.00    -0.680 N 
ATOM     13  H   LIG    1        3.563   4.779  -6.845  0.00  0.00    +0.410 HD
ATOM     14  O   LIG    1        1.250   3.112  -5.665  0.00  0.00    -0.510 OA
BRANCH  11  16
ATOM     15  C   LIG    1       -0.329   3.814  -7.678  0.00  0.00    +0.040 C 
ATOM     16  C   LIG    1        1.109   4.338  -7.677  0.00  0.00    +0.060 C 
ENDBRANCH  11  16
ENDBRANCH   5  12
ENDBRANCH   1   9
BRANCH   2  17
ATOM     17  C   LIG    1        4.034  -1.330  -1.490  0.00  0.00    +0.250 C 
ATOM     18  C   LIG    1        5.372  -1.923  -1.043  0.00  0.00    +0.030 C 
BRANCH  17  19
ATOM     19  C   LIG    1        3.045  -1.366  -0.323  0.00  0.00    +0.080 C 
BRANCH  19  20
ATOM     20  C   LIG    1        1.693  -0.897  -0.795  0.00  0.00    -0.110 A 
ATOM     21  C   LIG    1        1.325   0.425  -0.636  0.00  0.00    +0.040 A 
ATOM     22  C   LIG    1        0.085   0.856  -1.071  0.00  0.00    -0.030 A 
ATOM     23  C   LIG    1       -0.790  -0.035  -1.664  0.00  0.00    +0.040 A 
ATOM     24  C   LIG    1       -0.427  -1.358  -1.825  0.00  0.00    -0.080 A 
ATOM     25  C   LIG    1        0.817  -1.793  -1.391  0.00  0.00    +0.130 A 
BRANCH  25  26
ATOM     26  O   LIG    1        1.177  -3.094  -1.549  0.00  0.00    -0.310 OA
ATOM     27  C   LIG    1        0.225  -3.959  -2.171  0.00  0.00    +0.240 C 
ENDBRANCH  25  26
ENDBRANCH  19  20
ENDBRANCH  17  19
ENDBRANCH   2  17
TORSDOF 7
