REMARK  Name = ZINCqH00000519qe.0
REMARK                            x       y       z     vdW  Elec       q    Type
REMARK                         _______ _______ _______ _____ _____    ______ ____
ROOT
ATOM      1  C   LIG    1        0.300   1.364   1.897  0.00  0.00    +0.210 C 
ENDROOT
BRANCH   1   3
ATOM      2  O   LIG    1        1.622   3.103   1.004  0.00  0.00    -0.490 OA
ATOM      3  C   LIG    1        1.235   2.541   2.007  0.00  0.00    +0.510 C 
ATOM      4  N   LIG    1        1.641   2.969   3.219  0.00  0.00    -0.670 N 
ATOM      5  H   LIG    1        1.414   2.462   4.013  0.00  0.00    +0.410 HD
BRANCH   4   6
ATOM      6  C   LIG    1        2.390   4.148   3.330  0.00  0.00    +0.160 A 
ATOM      7  C   LIG    1        2.177   5.193   2.443  0.00  0.00    +0.040 A 
ATOM      8  C   LIG    1        2.915   6.357   2.552  0.00  0.00    +0.060 A 
ATOM      9  C   LIG    1        3.869   6.483   3.548  0.00  0.00    +0.020 A 
ATOM     10  O   LIG    1        4.716   7.507   3.865  0.00  0.00    -0.310 OA
ATOM     11  C   LIG    1        5.732   6.922   4.699  0.00  0.00    +0.430 C 
ATOM     12  O   LIG    1        5.067   5.803   5.315  0.00  0.00    -0.310 OA
ATOM     13  C   LIG    1        4.086   5.435   4.440  0.00  0.00    +0.050 A 
ATOM     14  C   LIG    1        3.342   4.272   4.333  0.00  0.00    +0.010 A 
ENDBRANCH   4   6
ENDBRANCH   1   3
BRANCH   1  15
ATOM     15  N   LIG    1        0.120   1.012   0.482  0.00  0.00    -0.510 NA
BRANCH  15  16
ATOM     16  C   LIG    1        1.296   0.303  -0.038  0.00  0.00    +0.280 C 
BRANCH  16  17
ATOM     17  C   LIG    1        1.185   0.176  -1.535  0.00  0.00    -0.180 A 
ATOM     18  C   LIG    1        1.648   1.061  -2.419  0.00  0.00    +0.040 A 
ATOM     19  C   LIG    1        1.430   0.731  -3.745  0.00  0.00    +0.010 A 
ATOM     20  C   LIG    1        0.789  -0.423  -3.939  0.00  0.00    -0.050 A 
ATOM     21  S   LIG    1        0.431  -1.167  -2.385  0.00  0.00    +0.080 S 
ENDBRANCH  16  17
ENDBRANCH  15  16
BRANCH  15  22
ATOM     22  C   LIG    1       -1.101   0.219   0.289  0.00  0.00    +0.300 C 
BRANCH  22  23
ATOM     23  C   LIG    1       -2.309   1.099   0.486  0.00  0.00    -0.020 A 
ATOM     24  C   LIG    1       -2.866   1.891  -0.447  0.00  0.00    -0.030 A 
ATOM     25  C   LIG    1       -3.969   2.530   0.163  0.00  0.00    -0.060 A 
ATOM     26  C   LIG    1       -4.016   2.096   1.436  0.00  0.00    +0.160 A 
ATOM     27  O   LIG    1       -3.007   1.230   1.626  0.00  0.00    -0.180 OA
ENDBRANCH  22  23
ENDBRANCH  15  22
ENDBRANCH   1  15
TORSDOF 7
