REMARK  Name = ZINCrD00000F5Lmc.0
REMARK                            x       y       z     vdW  Elec       q    Type
REMARK                         _______ _______ _______ _____ _____    ______ ____
ROOT
ATOM      1  N   LIG    1       -0.721   1.571  -1.179  0.00  0.00    -0.730 N 
ATOM      2  H   LIG    1       -1.516   2.118  -1.079  0.00  0.00    +0.400 HD
ATOM      3  C   LIG    1       -0.268   1.258  -2.409  0.00  0.00    +0.490 C 
ATOM      4  O   LIG    1        0.726   0.575  -2.534  0.00  0.00    -0.520 OA
ENDROOT
BRANCH   1   5
ATOM      5  C   LIG    1       -0.013   1.086   0.008  0.00  0.00    +0.280 C 
BRANCH   5   7
ATOM      6  C   LIG    1       -0.064   0.971   2.503  0.00  0.00    +0.040 C 
ATOM      7  C   LIG    1       -0.729   1.579   1.267  0.00  0.00    +0.230 C 
BRANCH   7   8
ATOM      8  N   LIG    1       -2.135   1.173   1.219  0.00  0.00    -0.730 N 
ATOM      9  H   LIG    1       -2.400   0.400   0.696  0.00  0.00    +0.400 HD
ATOM     10  C   LIG    1       -3.063   1.873   1.903  0.00  0.00    +0.520 C 
ATOM     11  O   LIG    1       -2.732   2.839   2.557  0.00  0.00    -0.520 OA
BRANCH  10  12
ATOM     12  C   LIG    1       -4.510   1.455   1.854  0.00  0.00    +0.150 C 
BRANCH  12  13
ATOM     13  C   LIG    1       -5.333   2.395   2.696  0.00  0.00    -0.150 A 
ATOM     14  C   LIG    1       -5.904   3.518   2.260  0.00  0.00    +0.030 A 
ATOM     15  C   LIG    1       -6.617   4.220   3.216  0.00  0.00    +0.060 A 
ATOM     16  C   LIG    1       -6.616   3.671   4.433  0.00  0.00    -0.200 A 
ATOM     17 BR   LIG    1       -7.488   4.386   5.952  0.00  0.00    +0.010 Br
ATOM     18  S   LIG    1       -5.680   2.183   4.407  0.00  0.00    +0.170 S 
ENDBRANCH  12  13
ENDBRANCH  10  12
ENDBRANCH   7   8
ENDBRANCH   5   7
ENDBRANCH   1   5
BRANCH   3  19
ATOM     19  C   LIG    1       -0.997   1.758  -3.630  0.00  0.00    +0.280 C 
BRANCH  19  20
ATOM     20  C   LIG    1       -2.370   1.138  -3.684  0.00  0.00    -0.160 A 
ATOM     21  C   LIG    1       -2.584  -0.002  -4.434  0.00  0.00    +0.120 A 
ATOM     22  C   LIG    1       -3.842  -0.574  -4.481  0.00  0.00    +0.020 A 
ATOM     23  C   LIG    1       -4.891   0.000  -3.784  0.00  0.00    +0.150 A 
ATOM     24  C   LIG    1       -4.679   1.146  -3.035  0.00  0.00    -0.120 A 
ATOM     25 CL   LIG    1       -5.993   1.869  -2.161  0.00  0.00    -0.020 Cl
ATOM     26  F   LIG    1       -6.121  -0.556  -3.834  0.00  0.00    -0.110 F 
ATOM     27  C   LIG    1       -3.417   1.716  -2.986  0.00  0.00    +0.150 A 
ATOM     28  F   LIG    1       -3.208   2.833  -2.256  0.00  0.00    -0.110 F 
ENDBRANCH  19  20
BRANCH  19  29
ATOM     29  O   LIG    1       -0.265   1.396  -4.803  0.00  0.00    -0.520 OA
ATOM     30  H   LIG    1       -0.144   0.443  -4.912  0.00  0.00    +0.390 HD
ENDBRANCH  19  29
ENDBRANCH   3  19
TORSDOF 8
