REMARK  Name = ZINCkj000005fWLl.0
REMARK                            x       y       z     vdW  Elec       q    Type
REMARK                         _______ _______ _______ _____ _____    ______ ____
ROOT
ATOM      1  N   LIG    1        2.107   5.213  -2.134  0.00  0.00    -0.730 N 
ATOM      2  H   LIG    1        2.597   5.677  -1.437  0.00  0.00    +0.410 HD
ATOM      3  C   LIG    1        2.104   3.866  -2.173  0.00  0.00    +0.510 C 
ATOM      4  O   LIG    1        1.492   3.286  -3.044  0.00  0.00    -0.490 OA
ENDROOT
BRANCH   1   5
ATOM      5  C   LIG    1        1.370   5.977  -3.143  0.00  0.00    +0.280 C 
BRANCH   5   6
ATOM      6  C   LIG    1        1.536   7.474  -2.872  0.00  0.00    +0.250 C 
BRANCH   6   7
ATOM      7  N   LIG    1        0.796   8.240  -3.885  0.00  0.00    -0.380 N 
ATOM      8  H   LIG    1        1.101   7.961  -4.805  0.00  0.00    +0.430 HD
BRANCH   7  10
ATOM      9  C   LIG    1       -1.098   8.372  -2.338  0.00  0.00    +0.080 C 
ATOM     10  C   LIG    1       -0.642   7.976  -3.744  0.00  0.00    +0.250 C 
ENDBRANCH   7  10
BRANCH   7  11
ATOM     11  C   LIG    1        1.052   9.674  -3.697  0.00  0.00    +0.240 C 
ATOM     12  C   LIG    1        0.399  10.462  -4.834  0.00  0.00    +0.080 C 
ENDBRANCH   7  11
ENDBRANCH   6   7
ENDBRANCH   5   6
ENDBRANCH   1   5
BRANCH   3  13
ATOM     13  C   LIG    1        2.863   3.080  -1.135  0.00  0.00    +0.390 C 
BRANCH  13  14
ATOM     14  N   LIG    1        2.704   1.647  -1.394  0.00  0.00    -0.360 N 
ATOM     15  C   LIG    1        3.703   0.755  -1.558  0.00  0.00    +0.260 A 
ATOM     16  C   LIG    1        3.141  -0.457  -1.777  0.00  0.00    -0.050 A 
ATOM     17  C   LIG    1        1.752  -0.299  -1.746  0.00  0.00    -0.010 A 
ATOM     18  N   LIG    1        1.489   0.962  -1.516  0.00  0.00    -0.210 NA
BRANCH  17  19
ATOM     19  C   LIG    1        0.734  -1.393  -1.943  0.00  0.00    +0.560 C 
ATOM     20  F   LIG    1        0.832  -2.316  -0.896  0.00  0.00    -0.160 F 
ATOM     21  F   LIG    1        0.975  -2.041  -3.159  0.00  0.00    -0.160 F 
ATOM     22  F   LIG    1       -0.550  -0.838  -1.957  0.00  0.00    -0.170 F 
ENDBRANCH  17  19
ENDBRANCH  13  14
ENDBRANCH   3  13
TORSDOF 8
