REMARK  Name = ZINCvU0000000IHK.0
REMARK                            x       y       z     vdW  Elec       q    Type
REMARK                         _______ _______ _______ _____ _____    ______ ____
ROOT
ATOM      1  S   LIG    1       -3.575  -1.753   6.120  0.00  0.00    +0.160 S 
ENDROOT
BRANCH   1   5
ATOM      2  C   LIG    1       -2.466  -2.732   9.704  0.00  0.00    +0.160 A 
ATOM      3  N   LIG    1       -1.789  -1.639   9.507  0.00  0.00    -0.240 NA
ATOM      4  N   LIG    1       -2.050  -1.175   8.336  0.00  0.00    -0.290 NA
ATOM      5  C   LIG    1       -2.910  -1.964   7.739  0.00  0.00    +0.130 A 
ATOM      6  O   LIG    1       -3.196  -2.963   8.595  0.00  0.00    -0.190 OA
BRANCH   2   7
ATOM      7  C   LIG    1       -2.443  -3.582  10.948  0.00  0.00    +0.380 C 
BRANCH   7   8
ATOM      8  O   LIG    1       -3.453  -3.128  11.853  0.00  0.00    -0.310 OA
BRANCH   8  14
ATOM      9  C   LIG    1       -1.929  -6.691  14.820  0.00  0.00    +0.090 C 
ATOM     10  C   LIG    1       -2.843  -5.533  14.514  0.00  0.00    -0.050 A 
ATOM     11  C   LIG    1       -3.799  -5.145  15.435  0.00  0.00    -0.020 A 
ATOM     12  C   LIG    1       -4.639  -4.082  15.157  0.00  0.00    +0.050 A 
ATOM     13  C   LIG    1       -4.525  -3.406  13.958  0.00  0.00    -0.110 A 
ATOM     14  C   LIG    1       -3.567  -3.793  13.033  0.00  0.00    +0.130 A 
ATOM     15  C   LIG    1       -5.442  -2.249  13.655  0.00  0.00    +0.100 C 
ATOM     16  C   LIG    1       -2.728  -4.862  13.312  0.00  0.00    -0.080 A 
ENDBRANCH   8  14
ENDBRANCH   7   8
ENDBRANCH   2   7
ENDBRANCH   1   5
BRANCH   1  17
ATOM     17  C   LIG    1       -2.735  -0.225   5.633  0.00  0.00    +0.100 C 
BRANCH  17  18
ATOM     18  C   LIG    1       -3.162   0.161   4.240  0.00  0.00    +0.550 C 
ATOM     19  N   LIG    1       -2.661   1.272   3.666  0.00  0.00    -0.560 N 
ATOM     20  C   LIG    1       -3.065   1.666   2.307  0.00  0.00    +0.300 C 
ATOM     21  C   LIG    1       -2.158   1.057   1.272  0.00  0.00    +0.030 C 
ATOM     22  C   LIG    1       -0.729   1.579   1.267  0.00  0.00    +0.030 C 
ATOM     23  S   LIG    1        0.157   0.983   2.736  0.00  0.00    -0.150 S 
ATOM     24  C   LIG    1       -0.404   2.114   3.986  0.00  0.00    -0.100 A 
ATOM     25  C   LIG    1        0.478   2.996   4.581  0.00  0.00    +0.080 A 
ATOM     26  C   LIG    1        0.019   3.847   5.573  0.00  0.00    +0.030 A 
ATOM     27  C   LIG    1       -1.307   3.801   5.962  0.00  0.00    +0.040 A 
ATOM     28  C   LIG    1       -2.190   2.924   5.359  0.00  0.00    +0.010 A 
ATOM     29  C   LIG    1       -0.013   1.086   0.008  0.00  0.00    +0.080 C 
ATOM     30  C   LIG    1       -1.743   2.082   4.348  0.00  0.00    +0.150 A 
ATOM     31  O   LIG    1       -3.956  -0.529   3.636  0.00  0.00    -0.510 OA
ENDBRANCH  17  18
ENDBRANCH   1  17
TORSDOF 6
