REMARK  Name = ZINCqH00000014Kz.0
REMARK                            x       y       z     vdW  Elec       q    Type
REMARK                         _______ _______ _______ _____ _____    ______ ____
ROOT
ATOM      1  C   LIG    1        3.550   2.446  -0.122  0.00  0.00    +0.510 C 
ATOM      2  N   LIG    1        2.396   1.759  -0.013  0.00  0.00    -0.670 N 
ATOM      3  H   LIG    1        2.412   0.792   0.062  0.00  0.00    +0.420 HD
ATOM      4  O   LIG    1        3.537   3.658  -0.114  0.00  0.00    -0.510 OA
ENDROOT
BRANCH   2   5
ATOM      5  C   LIG    1        1.172   2.442  -0.007  0.00  0.00    +0.170 A 
ATOM      6  C   LIG    1        1.070   3.689  -0.606  0.00  0.00    +0.050 A 
ATOM      7  C   LIG    1       -0.141   4.365  -0.601  0.00  0.00    +0.080 A 
ATOM      8  C   LIG    1       -1.252   3.790   0.003  0.00  0.00    +0.040 A 
ATOM      9  O   LIG    1       -2.451   4.436   0.014  0.00  0.00    -0.300 OA
ATOM     10  C   LIG    1       -2.427   5.841  -0.261  0.00  0.00    +0.230 C 
ATOM     11  C   LIG    1       -1.535   6.075  -1.488  0.00  0.00    +0.230 C 
ATOM     12  C   LIG    1       -1.149   2.541   0.597  0.00  0.00    +0.070 A 
ATOM     13  O   LIG    1       -0.222   5.591  -1.186  0.00  0.00    -0.300 OA
ATOM     14  C   LIG    1        0.059   1.870   0.598  0.00  0.00    -0.070 A 
ATOM     15 CL   LIG    1        0.185   0.310   1.349  0.00  0.00    -0.050 Cl
ENDBRANCH   2   5
BRANCH   1  16
ATOM     16  C   LIG    1        4.857   1.706  -0.253  0.00  0.00    +0.080 C 
BRANCH  16  17
ATOM     17  C   LIG    1        6.004   2.714  -0.360  0.00  0.00    +0.060 C 
BRANCH  17  18
ATOM     18  C   LIG    1        7.330   1.963  -0.493  0.00  0.00    +0.190 C 
BRANCH  18  22
ATOM     19  C   LIG    1       10.043   4.293  -0.170  0.00  0.00    +0.180 A 
ATOM     20  N   LIG    1        9.857   4.247  -1.455  0.00  0.00    -0.380 NA
ATOM     21  O   LIG    1        8.956   3.480  -1.722  0.00  0.00    +0.080 OA
ATOM     22  C   LIG    1        8.460   2.955  -0.598  0.00  0.00    +0.180 A 
ATOM     23  N   LIG    1        9.148   3.464   0.396  0.00  0.00    -0.470 NA
BRANCH  19  25
ATOM     24  C   LIG    1       12.005   4.202   1.344  0.00  0.00    +0.060 C 
ATOM     25  C   LIG    1       11.072   5.122   0.554  0.00  0.00    +0.020 C 
ATOM     26  C   LIG    1       10.369   6.083   1.514  0.00  0.00    +0.060 C 
ATOM     27  C   LIG    1       11.888   5.924  -0.463  0.00  0.00    +0.050 C 
ENDBRANCH  19  25
ENDBRANCH  18  22
ENDBRANCH  17  18
ENDBRANCH  16  17
ENDBRANCH   1  16
TORSDOF 6
