REMARK  Name = ZINCvU00000004aG.0
REMARK                            x       y       z     vdW  Elec       q    Type
REMARK                         _______ _______ _______ _____ _____    ______ ____
ROOT
ATOM      1  N   LIG    1        5.041  -3.575  -0.074  0.00  0.00    -0.510 N 
ATOM      2  C   LIG    1        4.867  -4.911  -0.074  0.00  0.00    +0.560 A 
ATOM      3  C   LIG    1        3.541  -5.433  -0.064  0.00  0.00    -0.230 A 
ATOM      4  C   LIG    1        2.482  -4.532  -0.049  0.00  0.00    +0.090 A 
ATOM      5  S   LIG    1        0.954  -5.402  -0.039  0.00  0.00    +0.230 S 
ATOM      6  C   LIG    1        1.757  -6.960  -0.055  0.00  0.00    -0.030 A 
ATOM      7  N   LIG    1        2.735  -3.207  -0.043  0.00  0.00    -0.520 NA
ATOM      8  C   LIG    1        3.084  -6.819  -0.068  0.00  0.00    +0.040 A 
ATOM      9  O   LIG    1        5.828  -5.661  -0.088  0.00  0.00    -0.500 OA
ATOM     10  C   LIG    1        3.961  -2.741  -0.053  0.00  0.00    +0.370 A 
ENDROOT
BRANCH   8  11
ATOM     11  C   LIG    1        4.011  -7.968  -0.083  0.00  0.00    +0.040 A 
ATOM     12  C   LIG    1        3.973  -9.036   0.760  0.00  0.00    -0.030 A 
ATOM     13  C   LIG    1        5.035  -9.886   0.386  0.00  0.00    -0.070 A 
ATOM     14  C   LIG    1        5.666  -9.297  -0.648  0.00  0.00    +0.000 A 
ATOM     15  C   LIG    1        6.869  -9.847  -1.370  0.00  0.00    +0.180 C 
ATOM     16  O   LIG    1        5.045  -8.139  -0.929  0.00  0.00    -0.150 OA
ENDBRANCH   8  11
BRANCH   1  17
ATOM     17  C   LIG    1        6.395  -3.016  -0.090  0.00  0.00    +0.340 C 
BRANCH  17  19
ATOM     18  C   LIG    1        8.009  -3.376   1.706  0.00  0.00    +0.070 C 
ATOM     19  C   LIG    1        6.880  -2.833   1.325  0.00  0.00    -0.070 C 
ENDBRANCH  17  19
ENDBRANCH   1  17
BRANCH  10  20
ATOM     20  S   LIG    1        4.220  -0.998  -0.045  0.00  0.00    +0.080 S 
BRANCH  20  21
ATOM     21  C   LIG    1        2.502  -0.426  -0.025  0.00  0.00    +0.100 C 
BRANCH  21  22
ATOM     22  C   LIG    1        2.475   1.081  -0.016  0.00  0.00    +0.420 C 
ATOM     23  O   LIG    1        3.514   1.706  -0.023  0.00  0.00    -0.440 OA
BRANCH  22  24
ATOM     24  C   LIG    1        1.188   1.793   0.000  0.00  0.00    -0.170 A 
ATOM     25  C   LIG    1       -0.013   1.076   0.008  0.00  0.00    +0.060 A 
ATOM     26  C   LIG    1       -1.215   1.751   0.017  0.00  0.00    +0.000 A 
ATOM     27  C   LIG    1       -1.236   3.135   0.031  0.00  0.00    -0.050 A 
ATOM     28  C   LIG    1       -0.052   3.852   0.023  0.00  0.00    -0.100 A 
ATOM     29  C   LIG    1       -0.086   5.359   0.031  0.00  0.00    +0.090 C 
ATOM     30  C   LIG    1       -2.554   3.864   0.047  0.00  0.00    +0.100 C 
ATOM     31  C   LIG    1        1.158   3.192   0.008  0.00  0.00    +0.090 A 
ENDBRANCH  22  24
ENDBRANCH  21  22
ENDBRANCH  20  21
ENDBRANCH  10  20
TORSDOF 7
