REMARK  Name = ZINCtV000002PDMN.0
REMARK                            x       y       z     vdW  Elec       q    Type
REMARK                         _______ _______ _______ _____ _____    ______ ____
ROOT
ATOM      1  C   LIG    1       -1.306   1.936   0.019  0.00  0.00    -0.070 A 
ATOM      2  C   LIG    1       -1.911   2.271   1.217  0.00  0.00    +0.220 A 
ATOM      3  N   LIG    1       -3.056   2.913   1.247  0.00  0.00    -0.430 NA
ATOM      4  C   LIG    1       -3.700   3.277   0.135  0.00  0.00    +0.080 A 
ATOM      5  S   LIG    1       -5.223   4.132  -0.066  0.00  0.00    +0.190 S 
ATOM      6  C   LIG    1       -5.115   4.072  -1.817  0.00  0.00    -0.160 A 
ATOM      7  C   LIG    1       -4.003   3.450  -2.214  0.00  0.00    -0.070 A 
ATOM      8  C   LIG    1       -3.634   3.245  -3.678  0.00  0.00    +0.110 C 
ATOM      9  C   LIG    1       -4.883   3.452  -4.536  0.00  0.00    +0.030 C 
ATOM     10  C   LIG    1       -5.537   4.784  -4.155  0.00  0.00    +0.030 C 
ATOM     11  C   LIG    1       -6.154   4.654  -2.760  0.00  0.00    +0.130 C 
ATOM     12  C   LIG    1       -3.166   2.980  -1.117  0.00  0.00    -0.110 A 
ATOM     13  C   LIG    1       -1.922   2.291  -1.176  0.00  0.00    +0.100 A 
ENDROOT
BRANCH  13  14
ATOM     14  C   LIG    1       -1.302   1.954  -2.479  0.00  0.00    -0.100 A 
ATOM     15  C   LIG    1       -0.870   2.970  -3.332  0.00  0.00    +0.050 A 
ATOM     16  C   LIG    1       -0.288   2.650  -4.541  0.00  0.00    +0.010 A 
ATOM     17  C   LIG    1       -0.142   1.326  -4.913  0.00  0.00    +0.040 A 
ATOM     18  C   LIG    1       -0.573   0.314  -4.074  0.00  0.00    +0.020 A 
ATOM     19  C   LIG    1       -1.152   0.621  -2.859  0.00  0.00    +0.040 A 
ENDBRANCH  13  14
BRANCH   1  21
ATOM     20  O   LIG    1        0.002  -0.004   0.002  0.00  0.00    -0.130 OA
ATOM     21  N   LIG    1       -0.014   1.214   0.009  0.00  0.00    +0.030 N 
ATOM     22  O   LIG    1        1.032   1.837   0.002  0.00  0.00    -0.120 OA
ENDBRANCH   1  21
BRANCH   2  23
ATOM     23  C   LIG    1       -1.242   1.893   2.514  0.00  0.00    +0.160 C 
BRANCH  23  24
ATOM     24  C   LIG    1       -0.325   3.006   2.950  0.00  0.00    -0.100 A 
ATOM     25  C   LIG    1        0.997   3.012   2.544  0.00  0.00    +0.020 A 
ATOM     26  C   LIG    1        1.837   4.036   2.939  0.00  0.00    +0.020 A 
ATOM     27  C   LIG    1        1.358   5.048   3.750  0.00  0.00    +0.010 A 
ATOM     28  C   LIG    1        0.038   5.040   4.160  0.00  0.00    +0.000 A 
ATOM     29  C   LIG    1       -0.803   4.018   3.760  0.00  0.00    +0.020 A 
ENDBRANCH  23  24
ENDBRANCH   2  23
TORSDOF 4
