REMARK  Name = ZINCpk00000ke3Fi.0
REMARK                            x       y       z     vdW  Elec       q    Type
REMARK                         _______ _______ _______ _____ _____    ______ ____
ROOT
ATOM      1  N   LIG    1       -0.011   0.966   0.007  0.00  0.00    -0.720 N 
ATOM      2  H   LIG    1        0.002  -0.004   0.002  0.00  0.00    +0.410 HD
ATOM      3  C   LIG    1       -1.187   1.624   0.017  0.00  0.00    +0.710 C 
ATOM      4  N   LIG    1       -2.345   0.934   0.018  0.00  0.00    -0.650 N 
ATOM      5  H   LIG    1       -2.332  -0.036   0.013  0.00  0.00    +0.410 HD
ATOM      6  O   LIG    1       -1.204   2.840   0.023  0.00  0.00    -0.580 OA
ENDROOT
BRANCH   1  13
ATOM      7  C   LIG    1        2.352   0.860  -0.625  0.00  0.00    +0.190 C 
ATOM      8  C   LIG    1        3.737   1.184  -0.044  0.00  0.00    -0.320 C 
ATOM      9  S   LIG    1        3.439   2.455   1.242  0.00  0.00    +2.400 S 
ATOM     10  C   LIG    1        1.654   2.067   1.454  0.00  0.00    -0.300 C 
ATOM     11  O   LIG    1        3.581   3.750   0.675  0.00  0.00    -0.920 OA
ATOM     12  O   LIG    1        4.146   2.111   2.425  0.00  0.00    -0.930 OA
ATOM     13  C   LIG    1        1.248   1.716  -0.001  0.00  0.00    +0.300 C 
BRANCH   7  15
ATOM     14  C   LIG    1        2.549  -1.400  -1.398  0.00  0.00    +0.230 C 
ATOM     15  O   LIG    1        2.062  -0.518  -0.385  0.00  0.00    -0.380 OA
ENDBRANCH   7  15
ENDBRANCH   1  13
BRANCH   4  16
ATOM     16  C   LIG    1       -3.574   1.622   0.028  0.00  0.00    +0.040 A 
ATOM     17  C   LIG    1       -3.736   2.969   0.042  0.00  0.00    +0.260 A 
ATOM     18  N   LIG    1       -5.071   3.222   0.045  0.00  0.00    -0.350 N 
ATOM     19  N   LIG    1       -5.742   1.992   0.041  0.00  0.00    -0.240 NA
ATOM     20  C   LIG    1       -4.848   1.036   0.031  0.00  0.00    -0.030 A 
BRANCH  20  21
ATOM     21  C   LIG    1       -5.139  -0.443   0.022  0.00  0.00    +0.490 C 
ATOM     22  F   LIG    1       -4.112  -1.117  -0.647  0.00  0.00    -0.190 F 
ATOM     23  F   LIG    1       -6.354  -0.676  -0.632  0.00  0.00    -0.190 F 
ENDBRANCH  20  21
BRANCH  18  24
ATOM     24  C   LIG    1       -5.698   4.546   0.057  0.00  0.00    +0.330 C 
BRANCH  24  25
ATOM     25  C   LIG    1       -6.670   4.660  -1.119  0.00  0.00    -0.020 C 
ATOM     26  C   LIG    1       -5.891   4.593  -2.434  0.00  0.00    +0.020 C 
ATOM     27  C   LIG    1       -7.417   5.993  -1.036  0.00  0.00    +0.030 C 
ENDBRANCH  24  25
ENDBRANCH  18  24
ENDBRANCH   4  16
TORSDOF 6
