REMARK  Name = ZINCrH000004m0V7.0
REMARK                            x       y       z     vdW  Elec       q    Type
REMARK                         _______ _______ _______ _____ _____    ______ ____
ROOT
ATOM      1  N   LIG    1       -1.111   7.024   1.841  0.00  0.00    -0.660 N 
ATOM      2  H   LIG    1       -0.671   7.622   1.216  0.00  0.00    +0.410 HD
ATOM      3  C   LIG    1       -1.816   7.528   2.874  0.00  0.00    +0.510 C 
ATOM      4  O   LIG    1       -2.281   6.783   3.711  0.00  0.00    -0.490 OA
ENDROOT
BRANCH   1   8
ATOM      5  C   LIG    1       -0.812   2.893   1.330  0.00  0.00    +0.090 A 
ATOM      6  C   LIG    1        0.166   3.729   0.815  0.00  0.00    -0.010 A 
ATOM      7  C   LIG    1        0.067   5.097   0.985  0.00  0.00    -0.110 A 
ATOM      8  C   LIG    1       -1.012   5.637   1.671  0.00  0.00    +0.150 A 
ATOM      9  C   LIG    1       -1.994   4.802   2.188  0.00  0.00    -0.020 A 
ATOM     10  C   LIG    1        1.132   6.004   0.424  0.00  0.00    +0.090 C 
ATOM     11  C   LIG    1       -1.898   3.432   2.013  0.00  0.00    +0.120 A 
BRANCH   5  13
ATOM     12  C   LIG    1        0.425   1.064   0.446  0.00  0.00    +0.230 C 
ATOM     13  O   LIG    1       -0.713   1.547   1.162  0.00  0.00    -0.310 OA
ENDBRANCH   5  13
BRANCH  11  14
ATOM     14  O   LIG    1       -2.862   2.613   2.514  0.00  0.00    -0.300 OA
ATOM     15  C   LIG    1       -3.948   3.235   3.204  0.00  0.00    +0.240 C 
ENDBRANCH  11  14
ENDBRANCH   1   8
BRANCH   3  16
ATOM     16  C   LIG    1       -2.027   9.015   2.988  0.00  0.00    +0.240 C 
BRANCH  16  17
ATOM     17  O   LIG    1       -2.798   9.299   4.156  0.00  0.00    -0.280 OA
BRANCH  17  18
ATOM     18  C   LIG    1       -3.080  10.605   4.408  0.00  0.00    +0.110 A 
ATOM     19  C   LIG    1       -2.618  11.589   3.552  0.00  0.00    -0.040 A 
ATOM     20  C   LIG    1       -2.904  12.919   3.798  0.00  0.00    +0.020 A 
ATOM     21  C   LIG    1       -3.644  13.268   4.913  0.00  0.00    +0.030 A 
ATOM     22  C   LIG    1       -4.098  12.292   5.774  0.00  0.00    -0.140 A 
ATOM     23  C   LIG    1       -4.899  12.362   7.061  0.00  0.00    +0.100 C 
ATOM     24  C   LIG    1       -4.675  10.952   7.655  0.00  0.00    +0.100 C 
ATOM     25  C   LIG    1       -5.938  10.453   8.359  0.00  0.00    +0.080 C 
ATOM     26  C   LIG    1       -3.485  10.953   8.618  0.00  0.00    +0.050 C 
ATOM     27  O   LIG    1       -4.388  10.158   6.491  0.00  0.00    -0.290 OA
ATOM     28  C   LIG    1       -3.831  10.952   5.535  0.00  0.00    +0.090 A 
ENDBRANCH  17  18
ENDBRANCH  16  17
ENDBRANCH   3  16
TORSDOF 6
