REMARK  Name = ZINCrH00000No4L5.0
REMARK                            x       y       z     vdW  Elec       q    Type
REMARK                         _______ _______ _______ _____ _____    ______ ____
ROOT
ATOM      1  N   LIG    1       -3.000   0.029  -2.228  0.00  0.00    -0.680 N 
ATOM      2  H   LIG    1       -2.800   0.588  -1.460  0.00  0.00    +0.410 HD
ATOM      3  C   LIG    1       -2.479  -1.211  -2.312  0.00  0.00    +0.710 C 
ATOM      4  N   LIG    1       -1.756  -1.709  -1.290  0.00  0.00    -0.620 N 
ATOM      5  O   LIG    1       -2.663  -1.881  -3.310  0.00  0.00    -0.560 OA
ENDROOT
BRANCH   1  11
ATOM      6  C   LIG    1       -6.628   3.018  -3.684  0.00  0.00    +0.110 C 
ATOM      7  C   LIG    1       -5.596   1.961  -3.982  0.00  0.00    -0.100 A 
ATOM      8  C   LIG    1       -5.467   1.465  -5.266  0.00  0.00    +0.020 A 
ATOM      9  C   LIG    1       -4.521   0.495  -5.544  0.00  0.00    +0.030 A 
ATOM     10  C   LIG    1       -3.699   0.022  -4.540  0.00  0.00    +0.050 A 
ATOM     11  C   LIG    1       -3.829   0.512  -3.248  0.00  0.00    +0.140 A 
ATOM     12  C   LIG    1       -4.780   1.488  -2.971  0.00  0.00    +0.060 A 
ATOM     13  F   LIG    1       -4.907   1.971  -1.716  0.00  0.00    -0.140 F 
ENDBRANCH   1  11
BRANCH   4  14
ATOM     14  C   LIG    1       -1.630  -0.950  -0.043  0.00  0.00    +0.380 C 
BRANCH  14  15
ATOM     15  C   LIG    1       -0.540   0.080  -0.189  0.00  0.00    +0.050 A 
ATOM     16  C   LIG    1       -0.697   1.422  -0.126  0.00  0.00    -0.230 A 
ATOM     17  C   LIG    1        0.558   2.012  -0.311  0.00  0.00    +0.240 A 
ATOM     18  N   LIG    1        1.437   1.057  -0.479  0.00  0.00    -0.280 NA
ATOM     19  C   LIG    1       -1.995   2.153   0.102  0.00  0.00    +0.110 C 
ATOM     20  N   LIG    1        0.768  -0.172  -0.406  0.00  0.00    -0.360 N 
ATOM     21  C   LIG    1        1.381  -1.496  -0.536  0.00  0.00    +0.360 C 
ENDBRANCH  14  15
ENDBRANCH   4  14
BRANCH   4  22
ATOM     22  C   LIG    1       -1.095  -3.009  -1.426  0.00  0.00    +0.300 C 
BRANCH  22  23
ATOM     23  C   LIG    1       -2.012  -4.107  -0.883  0.00  0.00    +0.030 C 
BRANCH  23  24
ATOM     24  C   LIG    1       -1.321  -5.465  -1.025  0.00  0.00    +0.150 C 
ATOM     25  C   LIG    1       -2.196  -6.581  -0.399  0.00  0.00    +0.010 C 
ATOM     26  C   LIG    1       -1.694  -7.823  -1.187  0.00  0.00    +0.000 C 
ATOM     27  C   LIG    1       -1.383  -7.228  -2.577  0.00  0.00    +0.190 C 
ATOM     28  O   LIG    1       -1.196  -5.818  -2.412  0.00  0.00    -0.380 OA
ENDBRANCH  23  24
ENDBRANCH  22  23
ENDBRANCH   4  22
TORSDOF 6
