REMARK  Name = ZINCvU00000005Jy.0
REMARK                            x       y       z     vdW  Elec       q    Type
REMARK                         _______ _______ _______ _____ _____    ______ ____
ROOT
ATOM      1  N   LIG    1        2.297   5.455  -2.405  0.00  0.00    -0.700 N 
ATOM      2  H   LIG    1        1.558   5.818  -1.891  0.00  0.00    +0.410 HD
ENDROOT
BRANCH   1   3
ATOM      3  C   LIG    1        2.121   5.137  -3.740  0.00  0.00    +0.490 A 
ATOM      4  C   LIG    1        0.903   5.442  -4.397  0.00  0.00    -0.220 A 
ATOM      5  C   LIG    1       -0.306   6.082  -3.894  0.00  0.00    -0.030 A 
ATOM      6  C   LIG    1       -1.276   6.213  -4.797  0.00  0.00    -0.020 A 
ATOM      7  S   LIG    1       -0.786   5.574  -6.355  0.00  0.00    +0.180 S 
ATOM      8  C   LIG    1        0.792   5.099  -5.745  0.00  0.00    +0.120 A 
ATOM      9  N   LIG    1        1.824   4.495  -6.350  0.00  0.00    -0.530 NA
ATOM     10  C   LIG    1        2.931   4.229  -5.696  0.00  0.00    +0.560 A 
ATOM     11  N   LIG    1        3.086   4.538  -4.422  0.00  0.00    -0.580 NA
BRANCH   5  12
ATOM     12  C   LIG    1       -0.445   6.546  -2.493  0.00  0.00    -0.030 A 
ATOM     13  C   LIG    1       -0.354   5.636  -1.441  0.00  0.00    +0.000 A 
ATOM     14  C   LIG    1       -0.479   6.076  -0.139  0.00  0.00    +0.010 A 
ATOM     15  C   LIG    1       -0.705   7.415   0.123  0.00  0.00    +0.020 A 
ATOM     16  C   LIG    1       -0.801   8.322  -0.917  0.00  0.00    +0.020 A 
ATOM     17  C   LIG    1       -0.673   7.895  -2.223  0.00  0.00    +0.030 A 
ENDBRANCH   5  12
ENDBRANCH   1   3
BRANCH   1  18
ATOM     18  C   LIG    1        3.599   5.243  -1.767  0.00  0.00    +0.300 C 
BRANCH  18  19
ATOM     19  C   LIG    1        4.068   6.532  -1.144  0.00  0.00    -0.100 A 
ATOM     20  C   LIG    1        3.167   7.355  -0.495  0.00  0.00    +0.000 A 
ATOM     21  C   LIG    1        3.598   8.536   0.080  0.00  0.00    +0.000 A 
ATOM     22  C   LIG    1        4.930   8.898  -0.001  0.00  0.00    +0.010 A 
ATOM     23  C   LIG    1        5.830   8.078  -0.654  0.00  0.00    +0.010 A 
ATOM     24  C   LIG    1        5.400   6.895  -1.226  0.00  0.00    +0.030 A 
ENDBRANCH  18  19
BRANCH  18  25
ATOM     25  C   LIG    1        3.468   4.171  -0.684  0.00  0.00    +0.290 C 
BRANCH  25  32
ATOM     26  O   LIG    1        4.920   2.300  -1.958  0.00  0.00    -0.540 OA
ATOM     27  C   LIG    1        3.722   2.075  -1.888  0.00  0.00    +0.520 A 
ATOM     28  C   LIG    1        3.194   0.901  -2.453  0.00  0.00    -0.090 A 
ATOM     29  C   LIG    1        1.853   0.666  -2.371  0.00  0.00    +0.110 A 
ATOM     30  C   LIG    1        1.033   1.595  -1.716  0.00  0.00    -0.090 A 
ATOM     31  C   LIG    1        1.573   2.715  -1.182  0.00  0.00    +0.280 A 
ATOM     32  N   LIG    1        2.908   2.950  -1.270  0.00  0.00    -0.490 N 
ENDBRANCH  25  32
ENDBRANCH  18  25
ENDBRANCH   1  18
TORSDOF 6
