REMARK  Name = ZINCqH0000051CM7.1
REMARK                            x       y       z     vdW  Elec       q    Type
REMARK                         _______ _______ _______ _____ _____    ______ ____
ROOT
ATOM      1  O   LIG    1        7.153   4.899   0.984  0.00  0.00    -0.500 OA
ATOM      2  C   LIG    1        6.386   3.961   1.067  0.00  0.00    +0.570 C 
ATOM      3  N   LIG    1        6.784   2.729   0.689  0.00  0.00    -0.590 N 
ATOM      4  C   LIG    1        5.880   1.575   0.808  0.00  0.00    +0.240 C 
ATOM      5  C   LIG    1        5.843   0.846  -0.540  0.00  0.00    +0.220 C 
ATOM      6  N   LIG    1        7.214   0.522  -0.956  0.00  0.00    -0.680 NA
ATOM      7  H   LIG    1        7.661  -0.086  -0.286  0.00  0.00    +0.340 HD
ATOM      8  C   LIG    1        8.007   1.740  -1.173  0.00  0.00    +0.220 C 
ATOM      9  C   LIG    1        8.131   2.506   0.143  0.00  0.00    +0.230 C 
ENDROOT
BRANCH   9  10
ATOM     10  C   LIG    1        8.802   3.832  -0.107  0.00  0.00    -0.070 A 
ATOM     11  C   LIG    1        8.262   4.719  -1.019  0.00  0.00    +0.080 A 
ATOM     12  C   LIG    1        8.874   5.937  -1.245  0.00  0.00    -0.020 A 
ATOM     13  C   LIG    1       10.035   6.265  -0.565  0.00  0.00    +0.100 A 
ATOM     14  C   LIG    1       10.578   5.373   0.344  0.00  0.00    -0.020 A 
ATOM     15  F   LIG    1       10.637   7.453  -0.790  0.00  0.00    -0.140 F 
ATOM     16  C   LIG    1        9.961   4.158   0.573  0.00  0.00    +0.050 A 
ENDBRANCH   9  10
BRANCH   2  17
ATOM     17  C   LIG    1        5.012   4.170   1.581  0.00  0.00    +0.090 A 
ATOM     18  C   LIG    1        4.734   5.285   2.367  0.00  0.00    +0.040 A 
ATOM     19  C   LIG    1        3.444   5.475   2.846  0.00  0.00    +0.090 A 
ATOM     20  C   LIG    1        2.474   4.546   2.519  0.00  0.00    +0.000 A 
ATOM     21  C   LIG    1        2.820   3.444   1.729  0.00  0.00    +0.200 A 
ATOM     22  N   LIG    1        4.061   3.293   1.288  0.00  0.00    -0.440 NA
BRANCH  21  23
ATOM     23  C   LIG    1        1.792   2.443   1.378  0.00  0.00    -0.170 A 
ATOM     24  C   LIG    1        2.000   1.345   0.623  0.00  0.00    +0.060 A 
ATOM     25  C   LIG    1        0.884   0.558   0.432  0.00  0.00    +0.010 A 
ATOM     26  C   LIG    1       -0.230   1.001   1.023  0.00  0.00    -0.030 A 
ATOM     27  S   LIG    1        0.107   2.499   1.881  0.00  0.00    +0.140 S 
ENDBRANCH  21  23
ENDBRANCH   2  17
TORSDOF 3
