REMARK  Name = ZINCpe00000RaNKp.0
REMARK                            x       y       z     vdW  Elec       q    Type
REMARK                         _______ _______ _______ _____ _____    ______ ____
ROOT
ATOM      1  C   LIG    1       -0.729   1.996  -1.567  0.00  0.00    +0.230 C 
ATOM      2  C   LIG    1       -0.168   1.114  -0.450  0.00  0.00    +0.010 C 
ATOM      3  C   LIG    1       -0.926   1.391   0.850  0.00  0.00    +0.020 C 
ATOM      4  C   LIG    1       -0.731   2.857   1.248  0.00  0.00    +0.290 C 
ATOM      5  N   LIG    1       -1.133   3.710   0.121  0.00  0.00    -0.570 N 
ATOM      6  C   LIG    1       -0.531   3.469  -1.197  0.00  0.00    +0.300 C 
ENDROOT
BRANCH   5   7
ATOM      7  C   LIG    1       -2.064   4.725   0.299  0.00  0.00    +0.350 A 
ATOM      8  N   LIG    1       -2.525   5.396  -0.735  0.00  0.00    -0.500 NA
ATOM      9  C   LIG    1       -3.422   6.368  -0.572  0.00  0.00    +0.190 A 
ATOM     10  C   LIG    1       -3.885   6.710   0.650  0.00  0.00    +0.170 A 
ATOM     11  N   LIG    1       -3.450   6.063   1.768  0.00  0.00    -0.590 N 
ATOM     12  H   LIG    1       -3.786   6.313   2.643  0.00  0.00    +0.420 HD
ATOM     13  C   LIG    1       -2.543   5.068   1.643  0.00  0.00    +0.490 A 
ATOM     14  O   LIG    1       -2.133   4.470   2.623  0.00  0.00    -0.520 OA
ENDBRANCH   5   7
BRANCH   1  17
ATOM     15  O   LIG    1       -1.425   0.055  -3.308  0.00  0.00    -0.520 OA
ATOM     16  C   LIG    1       -0.426   0.685  -3.599  0.00  0.00    +0.570 C 
ATOM     17  N   LIG    1       -0.023   1.707  -2.819  0.00  0.00    -0.710 N 
ATOM     18  H   LIG    1        0.734   2.252  -3.085  0.00  0.00    +0.400 HD
BRANCH  16  19
ATOM     19  C   LIG    1        0.341   0.332  -4.803  0.00  0.00    +0.030 A 
ATOM     20  C   LIG    1        1.511   0.997  -5.090  0.00  0.00    +0.070 A 
ATOM     21  C   LIG    1        2.243   0.662  -6.235  0.00  0.00    +0.020 A 
ATOM     22  C   LIG    1        1.795  -0.322  -7.064  0.00  0.00    +0.120 A 
ATOM     23  C   LIG    1        0.596  -0.998  -6.765  0.00  0.00    +0.200 A 
ATOM     24  N   LIG    1       -0.055  -1.973  -7.384  0.00  0.00    -0.480 NA
ATOM     25  C   LIG    1       -1.156  -2.270  -6.694  0.00  0.00    +0.220 A 
ATOM     26  C   LIG    1       -1.212  -1.467  -5.605  0.00  0.00    +0.130 A 
ATOM     27  N   LIG    1       -0.111  -0.666  -5.638  0.00  0.00    -0.340 N 
ENDBRANCH  16  19
ENDBRANCH   1  17
TORSDOF 3
