REMARK  Name = ZINCvU0000000E73.0
REMARK                            x       y       z     vdW  Elec       q    Type
REMARK                         _______ _______ _______ _____ _____    ______ ____
ROOT
ATOM      1  O   LIG    1       -4.687   5.075   0.077  0.00  0.00    -0.470 OA
ATOM      2  C   LIG    1       -4.817   3.869   0.072  0.00  0.00    +0.520 C 
ATOM      3  N   LIG    1       -6.050   3.324   0.082  0.00  0.00    -0.620 N 
ATOM      4  H   LIG    1       -6.154   2.360   0.078  0.00  0.00    +0.430 HD
ENDROOT
BRANCH   3   5
ATOM      5  C   LIG    1       -7.172   4.144   0.098  0.00  0.00    +0.270 A 
ATOM      6  N   LIG    1       -8.401   3.732   0.108  0.00  0.00    -0.470 NA
ATOM      7  C   LIG    1       -9.347   4.660   0.123  0.00  0.00    +0.120 A 
ATOM      8  C   LIG    1       -8.908   5.931   0.125  0.00  0.00    -0.100 A 
ATOM      9  S   LIG    1       -7.146   5.905   0.114  0.00  0.00    +0.210 S 
BRANCH   7  10
ATOM     10  C   LIG    1      -10.791   4.320   0.136  0.00  0.00    -0.020 A 
ATOM     11  C   LIG    1      -11.748   5.333   0.158  0.00  0.00    +0.040 A 
ATOM     12  C   LIG    1      -13.090   5.011   0.165  0.00  0.00    +0.010 A 
ATOM     13  C   LIG    1      -13.487   3.686   0.162  0.00  0.00    +0.030 A 
ATOM     14  C   LIG    1      -12.542   2.675   0.147  0.00  0.00    +0.020 A 
ATOM     15  C   LIG    1      -11.196   2.985   0.134  0.00  0.00    -0.010 A 
ATOM     16 CL   LIG    1      -10.011   1.716   0.114  0.00  0.00    -0.040 Cl
ENDBRANCH   7  10
ENDBRANCH   3   5
BRANCH   2  17
ATOM     17  C   LIG    1       -3.600   2.981   0.055  0.00  0.00    +0.270 C 
BRANCH  17  18
ATOM     18  O   LIG    1       -2.421   3.788   0.047  0.00  0.00    -0.280 OA
BRANCH  18  19
ATOM     19  C   LIG    1       -1.230   3.137   0.032  0.00  0.00    +0.180 A 
ATOM     20  C   LIG    1       -1.203   1.744   0.017  0.00  0.00    -0.090 A 
ATOM     21  C   LIG    1       -0.013   1.076   0.008  0.00  0.00    +0.130 A 
ATOM     22  C   LIG    1        1.188   1.794   0.000  0.00  0.00    -0.170 A 
ATOM     23  C   LIG    1        1.167   3.201   0.007  0.00  0.00    +0.190 A 
ATOM     24  O   LIG    1        2.329   3.889  -0.002  0.00  0.00    -0.260 OA
ATOM     25  C   LIG    1        3.514   3.261  -0.019  0.00  0.00    +0.520 A 
ATOM     26  C   LIG    1        3.612   1.851  -0.026  0.00  0.00    -0.240 A 
ATOM     27  C   LIG    1        4.828   0.950  -0.044  0.00  0.00    +0.110 C 
ATOM     28  C   LIG    1        4.308  -0.436   0.393  0.00  0.00    +0.050 C 
ATOM     29  C   LIG    1        2.822  -0.368  -0.024  0.00  0.00    +0.100 C 
ATOM     30  O   LIG    1        4.535   3.925  -0.030  0.00  0.00    -0.460 OA
ATOM     31  C   LIG    1        2.480   1.103  -0.016  0.00  0.00    +0.010 A 
ATOM     32  C   LIG    1       -0.050   3.865   0.023  0.00  0.00    +0.000 A 
ENDBRANCH  18  19
ENDBRANCH  17  18
ENDBRANCH   2  17
TORSDOF 5
