REMARK  Name = ZINCpk000000nMO7.0
REMARK                            x       y       z     vdW  Elec       q    Type
REMARK                         _______ _______ _______ _____ _____    ______ ____
ROOT
ATOM      1  C   LIG    1        1.248   1.716  -0.001  0.00  0.00    +0.390 C 
ENDROOT
BRANCH   1   2
ATOM      2  C   LIG    1        2.332   0.870  -0.616  0.00  0.00    +0.180 A 
ATOM      3  N   LIG    1        3.214   1.259  -1.503  0.00  0.00    -0.450 NA
ATOM      4  C   LIG    1        3.977   0.172  -1.758  0.00  0.00    +0.210 A 
ATOM      5  N   LIG    1        3.518  -0.803  -1.019  0.00  0.00    -0.360 NA
ATOM      6  O   LIG    1        2.579  -0.418  -0.355  0.00  0.00    +0.090 OA
BRANCH   4   7
ATOM      7  C   LIG    1        5.121   0.101  -2.702  0.00  0.00    +0.020 A 
ATOM      8  C   LIG    1        5.511   1.219  -3.443  0.00  0.00    +0.020 A 
ATOM      9  C   LIG    1        6.584   1.111  -4.305  0.00  0.00    +0.270 A 
ATOM     10  N   LIG    1        7.229  -0.031  -4.441  0.00  0.00    -0.470 NA
ATOM     11  C   LIG    1        6.890  -1.111  -3.765  0.00  0.00    +0.270 A 
ATOM     12  C   LIG    1        5.833  -1.088  -2.877  0.00  0.00    +0.000 A 
ENDBRANCH   4   7
ENDBRANCH   1   2
BRANCH   1  13
ATOM     13  N   LIG    1       -0.011   0.966   0.007  0.00  0.00    -0.730 N 
ATOM     14  H   LIG    1        0.002  -0.004   0.002  0.00  0.00    +0.410 HD
ATOM     15  C   LIG    1       -1.187   1.624   0.017  0.00  0.00    +0.500 C 
ATOM     16  O   LIG    1       -1.204   2.837   0.023  0.00  0.00    -0.510 OA
BRANCH  15  17
ATOM     17  C   LIG    1       -2.482   0.853   0.018  0.00  0.00    +0.350 C 
BRANCH  17  18
ATOM     18  N   LIG    1       -3.608   1.789   0.029  0.00  0.00    -0.600 N 
ATOM     19  C   LIG    1       -4.197   2.281  -1.226  0.00  0.00    +0.380 C 
ATOM     20  S   LIG    1       -5.159   3.750  -0.687  0.00  0.00    -0.230 S 
ATOM     21  C   LIG    1       -5.286   3.193   1.060  0.00  0.00    +0.170 C 
ATOM     22  C   LIG    1       -4.133   2.216   1.171  0.00  0.00    +0.530 C 
ATOM     23  O   LIG    1       -3.709   1.848   2.247  0.00  0.00    -0.510 OA
ENDBRANCH  17  18
ENDBRANCH  15  17
ENDBRANCH   1  13
BRANCH   1  25
ATOM     24  C   LIG    1        1.931   0.798   2.220  0.00  0.00    +0.030 C 
ATOM     25  C   LIG    1        1.635   2.077   1.435  0.00  0.00    -0.010 C 
ATOM     26  C   LIG    1        2.881   2.965   1.418  0.00  0.00    +0.040 C 
ENDBRANCH   1  25
TORSDOF 6
