REMARK  Name = ZINCrg00000SjSAq.1
REMARK                            x       y       z     vdW  Elec       q    Type
REMARK                         _______ _______ _______ _____ _____    ______ ____
ROOT
ATOM      1  C   LIG    1       -1.255   3.412   0.128  0.00  0.00    +0.520 C 
ATOM      2  N   LIG    1       -1.237   2.069   0.019  0.00  0.00    -0.680 N 
ATOM      3  H   LIG    1       -2.070   1.577  -0.057  0.00  0.00    +0.410 HD
ATOM      4  O   LIG    1       -0.215   4.035   0.127  0.00  0.00    -0.480 OA
ENDROOT
BRANCH   2   5
ATOM      5  C   LIG    1       -0.017   1.384   0.015  0.00  0.00    +0.210 A 
ATOM      6  C   LIG    1        0.126   0.222  -0.732  0.00  0.00    -0.030 A 
ATOM      7  C   LIG    1        1.330  -0.455  -0.729  0.00  0.00    +0.160 A 
ATOM      8  C   LIG    1        2.392   0.023   0.017  0.00  0.00    -0.700 A 
ATOM      9  C   LIG    1        2.252   1.180   0.762  0.00  0.00    +0.150 A 
ATOM     10  C   LIG    1        1.051   1.861   0.763  0.00  0.00    +0.000 A 
BRANCH   8  11
ATOM     11  S   LIG    1        3.927  -0.843   0.017  0.00  0.00    +2.700 S 
ATOM     12  O   LIG    1        4.923   0.107   0.368  0.00  0.00    -0.960 OA
ATOM     13  O   LIG    1        3.962  -1.597  -1.187  0.00  0.00    -0.960 OA
BRANCH  11  14
ATOM     14  N   LIG    1        3.869  -1.941   1.256  0.00  0.00    -1.250 NA
ATOM     15  H   LIG    1        3.343  -1.751   2.048  0.00  0.00    +0.420 HD
ATOM     16  H   LIG    1        4.362  -2.774   1.188  0.00  0.00    +0.420 HD
ENDBRANCH  11  14
ENDBRANCH   8  11
ENDBRANCH   2   5
BRANCH   1  18
ATOM     17  C   LIG    1       -3.427   3.858  -0.983  0.00  0.00    +0.020 C 
ATOM     18  C   LIG    1       -2.569   4.140   0.252  0.00  0.00    +0.180 C 
BRANCH  18  19
ATOM     19  N   LIG    1       -2.321   5.585   0.356  0.00  0.00    -0.660 NA
ATOM     20  H   LIG    1       -2.161   5.990  -0.554  0.00  0.00    +0.350 HD
BRANCH  19  21
ATOM     21  C   LIG    1       -3.426   6.261   1.047  0.00  0.00    +0.220 C 
BRANCH  21  22
ATOM     22  C   LIG    1       -3.132   7.759   1.136  0.00  0.00    +0.130 C 
ATOM     23  C   LIG    1       -4.270   8.467   1.884  0.00  0.00    +0.230 C 
ATOM     24  O   LIG    1       -3.958   9.862   1.961  0.00  0.00    -0.310 OA
ATOM     25  C   LIG    1       -2.690  10.184   2.338  0.00  0.00    +0.040 A 
ATOM     26  C   LIG    1       -2.417  11.471   2.776  0.00  0.00    +0.020 A 
ATOM     27  C   LIG    1       -1.134  11.815   3.159  0.00  0.00    +0.010 A 
ATOM     28  C   LIG    1       -0.120  10.877   3.106  0.00  0.00    +0.020 A 
ATOM     29  C   LIG    1       -0.386   9.592   2.672  0.00  0.00    +0.030 A 
ATOM     30  C   LIG    1       -1.671   9.240   2.287  0.00  0.00    +0.050 A 
ATOM     31  O   LIG    1       -1.918   7.971   1.864  0.00  0.00    -0.280 OA
ENDBRANCH  21  22
ENDBRANCH  19  21
ENDBRANCH  18  19
ENDBRANCH   1  18
TORSDOF 7
