REMARK  Name = ZINCvU0000000Iqr.0
REMARK                            x       y       z     vdW  Elec       q    Type
REMARK                         _______ _______ _______ _____ _____    ______ ____
ROOT
ATOM      1  C   LIG    1       -0.222   0.803  -0.013  0.00  0.00    +0.110 C 
ENDROOT
BRANCH   1   2
ATOM      2  C   LIG    1       -0.981   1.218   1.222  0.00  0.00    +0.540 C 
ATOM      3  N   LIG    1       -0.611   0.747   2.429  0.00  0.00    -0.720 N 
ATOM      4  H   LIG    1        0.142   0.141   2.504  0.00  0.00    +0.410 HD
ATOM      5  O   LIG    1       -1.923   1.975   1.129  0.00  0.00    -0.510 OA
BRANCH   3   6
ATOM      6  C   LIG    1       -1.349   1.149   3.630  0.00  0.00    +0.390 C 
BRANCH   6   7
ATOM      7  C   LIG    1       -1.189   0.095   4.695  0.00  0.00    -0.090 A 
ATOM      8  C   LIG    1        0.033  -0.526   4.875  0.00  0.00    +0.010 A 
ATOM      9  C   LIG    1        0.180  -1.490   5.855  0.00  0.00    +0.020 A 
ATOM     10  C   LIG    1       -0.897  -1.839   6.648  0.00  0.00    +0.020 A 
ATOM     11  C   LIG    1       -2.120  -1.222   6.464  0.00  0.00    +0.020 A 
ATOM     12  C   LIG    1       -2.266  -0.255   5.487  0.00  0.00    +0.030 A 
ENDBRANCH   6   7
BRANCH   6  13
ATOM     13  C   LIG    1       -0.806   2.461   4.136  0.00  0.00    -0.190 A 
ATOM     14  C   LIG    1       -1.542   3.462   4.621  0.00  0.00    +0.020 A 
ATOM     15  C   LIG    1       -0.822   4.572   5.028  0.00  0.00    +0.010 A 
ATOM     16  C   LIG    1        0.499   4.473   4.872  0.00  0.00    -0.050 A 
ATOM     17  S   LIG    1        0.896   2.903   4.184  0.00  0.00    +0.110 S 
ENDBRANCH   6  13
ENDBRANCH   3   6
ENDBRANCH   1   2
BRANCH   1  18
ATOM     18  S   LIG    1       -0.954   1.597  -1.465  0.00  0.00    +0.090 S 
BRANCH  18  20
ATOM     19  N   LIG    1        0.012   1.221  -4.065  0.00  0.00    -0.450 N 
ATOM     20  C   LIG    1        0.096   0.955  -2.726  0.00  0.00    +0.140 A 
ATOM     21  N   LIG    1        1.110   0.138  -2.555  0.00  0.00    -0.290 NA
ATOM     22  N   LIG    1        1.656  -0.131  -3.686  0.00  0.00    -0.270 NA
ATOM     23  C   LIG    1        1.031   0.505  -4.649  0.00  0.00    +0.270 A 
BRANCH  23  24
ATOM     24  C   LIG    1        1.360   0.461  -6.090  0.00  0.00    -0.130 A 
ATOM     25  C   LIG    1        2.591   0.588  -6.656  0.00  0.00    +0.060 A 
ATOM     26  O   LIG    1        2.458   0.489  -7.987  0.00  0.00    -0.170 OA
ATOM     27  C   LIG    1        1.173   0.301  -8.324  0.00  0.00    +0.190 A 
ATOM     28  C   LIG    1        3.885   0.801  -5.913  0.00  0.00    +0.180 C 
ATOM     29  C   LIG    1        0.427   0.266  -7.207  0.00  0.00    -0.050 A 
ENDBRANCH  23  24
BRANCH  19  30
ATOM     30  C   LIG    1       -0.960   2.087  -4.736  0.00  0.00    +0.340 C 
BRANCH  30  32
ATOM     31  C   LIG    1       -0.326   4.087  -5.985  0.00  0.00    +0.060 C 
ATOM     32  C   LIG    1       -0.409   3.487  -4.824  0.00  0.00    -0.070 C 
ENDBRANCH  30  32
ENDBRANCH  19  30
ENDBRANCH  18  20
ENDBRANCH   1  18
TORSDOF 9
