REMARK  Name = ZINCkj00000a7LNt.0
REMARK                            x       y       z     vdW  Elec       q    Type
REMARK                         _______ _______ _______ _____ _____    ______ ____
ROOT
ATOM      1  C   LIG    1       -0.794   1.444   1.270  0.00  0.00    +0.180 C 
ATOM      2  C   LIG    1        0.011   1.092  -0.003  0.00  0.00    +0.320 C 
ATOM      3  N   LIG    1       -0.833   1.564  -1.127  0.00  0.00    -0.620 N 
ATOM      4  C   LIG    1       -1.407   2.845  -0.647  0.00  0.00    +0.300 C 
ATOM      5  C   LIG    1       -1.033   0.964  -2.317  0.00  0.00    +0.620 C 
ATOM      6  O   LIG    1       -0.494  -0.099  -2.560  0.00  0.00    -0.470 OA
ATOM      7  C   LIG    1       -1.716   2.593   0.835  0.00  0.00    -0.120 C 
ATOM      8  C   LIG    1       -3.194   2.424   1.182  0.00  0.00    +0.060 C 
ATOM      9  C   LIG    1       -3.211   3.937   1.466  0.00  0.00    +0.040 C 
ATOM     10  C   LIG    1       -1.698   3.829   1.733  0.00  0.00    +0.040 C 
ENDROOT
BRANCH   5  11
ATOM     11  C   LIG    1       -1.903   1.595  -3.322  0.00  0.00    +0.020 A 
ATOM     12  C   LIG    1       -2.335   1.039  -4.513  0.00  0.00    -0.220 A 
ATOM     13  C   LIG    1       -3.132   2.018  -5.111  0.00  0.00    +0.280 A 
ATOM     14  N   LIG    1       -3.148   3.061  -4.320  0.00  0.00    -0.250 NA
ATOM     15  N   LIG    1       -2.442   2.849  -3.268  0.00  0.00    -0.370 N 
ATOM     16  H   LIG    1       -2.311   3.484  -2.546  0.00  0.00    +0.450 HD
BRANCH  12  17
ATOM     17  C   LIG    1       -2.015  -0.332  -5.051  0.00  0.00    +0.550 C 
ATOM     18  F   LIG    1       -2.469  -1.303  -4.152  0.00  0.00    -0.170 F 
ATOM     19  F   LIG    1       -0.631  -0.458  -5.213  0.00  0.00    -0.160 F 
ATOM     20  F   LIG    1       -2.647  -0.508  -6.286  0.00  0.00    -0.170 F 
ENDBRANCH  12  17
ENDBRANCH   5  11
BRANCH   1  21
ATOM     21  N   LIG    1        0.109   1.886   2.341  0.00  0.00    -0.630 N 
ATOM     22  H   LIG    1        0.744   1.138   2.575  0.00  0.00    +0.440 HD
ATOM     23  H   LIG    1       -0.432   2.134   3.156  0.00  0.00    +0.440 HD
ATOM     24  H   LIG    1        0.634   2.688   2.029  0.00  0.00    +0.440 HD
ENDBRANCH   1  21
TORSDOF 3
