REMARK  Name = ZINCkj00000a7LNt.1
REMARK                            x       y       z     vdW  Elec       q    Type
REMARK                         _______ _______ _______ _____ _____    ______ ____
ROOT
ATOM      1  C   LIG    1       -2.214   1.869   0.746  0.00  0.00    +0.180 C 
ATOM      2  C   LIG    1       -2.197   1.476  -0.750  0.00  0.00    +0.300 C 
ATOM      3  N   LIG    1       -0.777   1.601  -1.155  0.00  0.00    -0.610 N 
ATOM      4  C   LIG    1       -0.013   1.086   0.008  0.00  0.00    +0.320 C 
ATOM      5  C   LIG    1       -0.289   2.075  -2.318  0.00  0.00    +0.630 C 
ATOM      6  O   LIG    1        0.912   2.115  -2.503  0.00  0.00    -0.480 OA
ATOM      7  C   LIG    1       -0.780   1.605   1.231  0.00  0.00    -0.120 C 
ATOM      8  C   LIG    1       -0.115   2.753   1.989  0.00  0.00    +0.050 C 
ATOM      9  C   LIG    1        0.525   1.676   2.884  0.00  0.00    +0.060 C 
ATOM     10  C   LIG    1       -0.652   0.761   2.498  0.00  0.00    +0.030 C 
ENDROOT
BRANCH   5  11
ATOM     11  C   LIG    1       -1.214   2.548  -3.369  0.00  0.00    +0.040 A 
ATOM     12  N   LIG    1       -2.531   2.558  -3.308  0.00  0.00    -0.260 NA
ATOM     13  N   LIG    1       -3.018   3.037  -4.396  0.00  0.00    -0.370 N 
ATOM     14  H   LIG    1       -3.965   3.144  -4.580  0.00  0.00    +0.460 HD
ATOM     15  C   LIG    1       -2.024   3.365  -5.248  0.00  0.00    +0.290 A 
ATOM     16  C   LIG    1       -0.855   3.070  -4.634  0.00  0.00    -0.250 A 
BRANCH  16  17
ATOM     17  C   LIG    1        0.536   3.257  -5.182  0.00  0.00    +0.550 C 
ATOM     18  F   LIG    1        1.186   2.019  -5.237  0.00  0.00    -0.160 F 
ATOM     19  F   LIG    1        1.253   4.123  -4.350  0.00  0.00    -0.170 F 
ATOM     20  F   LIG    1        0.462   3.801  -6.468  0.00  0.00    -0.180 F 
ENDBRANCH  16  17
ENDBRANCH   5  11
BRANCH   1  21
ATOM     21  N   LIG    1       -3.170   1.032   1.484  0.00  0.00    -0.630 N 
ATOM     22  H   LIG    1       -4.098   1.178   1.117  0.00  0.00    +0.440 HD
ATOM     23  H   LIG    1       -3.152   1.284   2.461  0.00  0.00    +0.440 HD
ATOM     24  H   LIG    1       -2.916   0.061   1.383  0.00  0.00    +0.440 HD
ENDBRANCH   1  21
TORSDOF 3
