REMARK  Name = ZINCpe00000MJIT3.1
REMARK                            x       y       z     vdW  Elec       q    Type
REMARK                         _______ _______ _______ _____ _____    ______ ____
ROOT
ATOM      1  C   LIG    1        2.467   3.087  -0.004  0.00  0.00    +0.270 C 
ATOM      2  C   LIG    1        1.744   1.939  -0.004  0.00  0.00    -0.260 A 
ATOM      3  S   LIG    1       -0.022   1.768   0.012  0.00  0.00    +0.200 S 
ATOM      4  C   LIG    1        0.002  -0.004   0.002  0.00  0.00    +0.160 A 
ATOM      5  N   LIG    1        1.316  -0.379  -0.013  0.00  0.00    -0.650 N 
ATOM      6  H   LIG    1        1.562  -1.318  -0.020  0.00  0.00    +0.430 HD
ATOM      7  C   LIG    1       -1.092  -0.842   0.007  0.00  0.00    -0.120 C 
ATOM      8  C   LIG    1        2.246   0.561  -0.016  0.00  0.00    +0.560 A 
ATOM      9  O   LIG    1        3.435   0.301  -0.029  0.00  0.00    -0.480 OA
ENDROOT
BRANCH   1  12
ATOM     10  C   LIG    1        1.370   6.563   0.026  0.00  0.00    -0.020 A 
ATOM     11  C   LIG    1        2.399   5.657   0.011  0.00  0.00    +0.080 A 
ATOM     12  C   LIG    1        1.782   4.387   0.010  0.00  0.00    +0.020 A 
ATOM     13  N   LIG    1        0.475   4.583   0.018  0.00  0.00    -0.220 NA
ATOM     14  N   LIG    1        0.209   5.840   0.033  0.00  0.00    -0.350 N 
ATOM     15  H   LIG    1       -0.684   6.220   0.044  0.00  0.00    +0.460 HD
BRANCH  10  16
ATOM     16  C   LIG    1        1.492   8.028   0.033  0.00  0.00    +0.540 C 
ATOM     17  O   LIG    1        2.591   8.547   0.025  0.00  0.00    -0.480 OA
BRANCH  16  18
ATOM     18  O   LIG    1        0.384   8.796   0.048  0.00  0.00    -0.360 OA
BRANCH  18  20
ATOM     19  C   LIG    1       -0.782  10.934   0.071  0.00  0.00    +0.070 C 
ATOM     20  C   LIG    1        0.579  10.235   0.054  0.00  0.00    +0.230 C 
ENDBRANCH  18  20
ENDBRANCH  16  18
ENDBRANCH  10  16
ENDBRANCH   1  12
BRANCH   7  21
ATOM     21  C   LIG    1       -2.389  -0.302   0.022  0.00  0.00    +0.470 C 
ATOM     22  O   LIG    1       -2.547   0.909   0.031  0.00  0.00    -0.450 OA
BRANCH  21  23
ATOM     23  C   LIG    1       -3.557  -1.196   0.028  0.00  0.00    -0.090 A 
ATOM     24  C   LIG    1       -4.864  -0.806   0.048  0.00  0.00    +0.030 A 
ATOM     25  C   LIG    1       -5.636  -1.980   0.043  0.00  0.00    -0.070 A 
ATOM     26  C   LIG    1       -4.776  -3.021   0.029  0.00  0.00    +0.210 A 
ATOM     27  O   LIG    1       -3.523  -2.544   0.020  0.00  0.00    -0.160 OA
ENDBRANCH  21  23
ENDBRANCH   7  21
TORSDOF 6
