REMARK  Name = ZINCpe00000MJIT3.0
REMARK                            x       y       z     vdW  Elec       q    Type
REMARK                         _______ _______ _______ _____ _____    ______ ____
ROOT
ATOM      1  C   LIG    1       -1.026   5.200   0.037  0.00  0.00    +0.280 C 
ATOM      2  C   LIG    1       -0.535   3.931   0.027  0.00  0.00    -0.280 A 
ATOM      3  S   LIG    1       -1.452   2.413   0.021  0.00  0.00    +0.090 S 
ATOM      4  C   LIG    1       -0.017   1.374   0.010  0.00  0.00    +0.190 A 
ATOM      5  N   LIG    1        1.069   2.205   0.004  0.00  0.00    -0.640 N 
ATOM      6  H   LIG    1        1.968   1.842  -0.007  0.00  0.00    +0.430 HD
ATOM      7  C   LIG    1        0.002  -0.004   0.002  0.00  0.00    -0.100 C 
ATOM      8  C   LIG    1        0.869   3.512   0.012  0.00  0.00    +0.560 A 
ATOM      9  O   LIG    1        1.787   4.311   0.007  0.00  0.00    -0.470 OA
ENDROOT
BRANCH   1  14
ATOM     10  C   LIG    1       -4.494   6.341   0.074  0.00  0.00    -0.010 A 
ATOM     11  N   LIG    1       -4.606   5.026   0.070  0.00  0.00    -0.190 NA
ATOM     12  N   LIG    1       -3.450   4.469   0.050  0.00  0.00    -0.350 N 
ATOM     13  H   LIG    1       -3.293   3.511   0.039  0.00  0.00    +0.440 HD
ATOM     14  C   LIG    1       -2.470   5.426   0.051  0.00  0.00    -0.000 A 
ATOM     15  C   LIG    1       -3.119   6.650   0.063  0.00  0.00    +0.080 A 
BRANCH  10  16
ATOM     16  C   LIG    1       -5.606   7.312   0.089  0.00  0.00    +0.560 C 
ATOM     17  O   LIG    1       -5.372   8.504   0.093  0.00  0.00    -0.490 OA
BRANCH  16  18
ATOM     18  O   LIG    1       -6.881   6.876   0.099  0.00  0.00    -0.340 OA
BRANCH  18  20
ATOM     19  C   LIG    1       -9.293   7.206   0.123  0.00  0.00    +0.070 C 
ATOM     20  C   LIG    1       -7.923   7.886   0.114  0.00  0.00    +0.200 C 
ENDBRANCH  18  20
ENDBRANCH  16  18
ENDBRANCH  10  16
ENDBRANCH   1  14
BRANCH   7  21
ATOM     21  C   LIG    1       -1.204  -0.723   0.010  0.00  0.00    +0.470 C 
ATOM     22  O   LIG    1       -2.270  -0.127   0.023  0.00  0.00    -0.450 OA
BRANCH  21  23
ATOM     23  C   LIG    1       -1.184  -2.193   0.002  0.00  0.00    -0.090 A 
ATOM     24  C   LIG    1       -2.277  -3.010   0.013  0.00  0.00    +0.040 A 
ATOM     25  C   LIG    1       -1.796  -4.330  -0.003  0.00  0.00    -0.070 A 
ATOM     26  C   LIG    1       -0.447  -4.260  -0.015  0.00  0.00    +0.210 A 
ATOM     27  O   LIG    1       -0.082  -2.970  -0.013  0.00  0.00    -0.160 OA
ENDBRANCH  21  23
ENDBRANCH   7  21
TORSDOF 6
