REMARK  Name = ZINCrD000000Atqo.0
REMARK                            x       y       z     vdW  Elec       q    Type
REMARK                         _______ _______ _______ _____ _____    ______ ____
ROOT
ATOM      1  C   LIG    1        1.699   2.197  -0.025  0.00  0.00    +0.140 A 
ATOM      2  N   LIG    1        2.613   1.254  -0.077  0.00  0.00    -0.280 NA
ATOM      3  N   LIG    1        3.787   1.774  -0.043  0.00  0.00    -0.260 NA
ATOM      4  C   LIG    1        3.695   3.082   0.033  0.00  0.00    +0.230 A 
ATOM      5  N   LIG    1        2.355   3.393   0.042  0.00  0.00    -0.430 N 
ENDROOT
BRANCH   4   6
ATOM      6  C   LIG    1        4.820   4.040   0.093  0.00  0.00    -0.070 A 
ATOM      7  C   LIG    1        6.081   3.629   0.541  0.00  0.00    +0.120 A 
ATOM      8  C   LIG    1        7.101   4.564   0.574  0.00  0.00    -0.020 A 
ATOM      9  C   LIG    1        6.842   5.863   0.176  0.00  0.00    +0.270 A 
ATOM     10  N   LIG    1        5.642   6.223  -0.237  0.00  0.00    -0.480 NA
ATOM     11  C   LIG    1        4.641   5.369  -0.291  0.00  0.00    +0.270 A 
ENDBRANCH   4   6
BRANCH   5  12
ATOM     12  C   LIG    1        1.756   4.728   0.110  0.00  0.00    +0.190 C 
ATOM     13  C   LIG    1        0.277   4.821   0.487  0.00  0.00    +0.080 C 
ATOM     14  C   LIG    1        0.718   5.092  -0.953  0.00  0.00    +0.060 C 
ENDBRANCH   5  12
BRANCH   1  15
ATOM     15  S   LIG    1       -0.047   1.962  -0.044  0.00  0.00    +0.100 S 
BRANCH  15  16
ATOM     16  C   LIG    1       -0.121   0.157  -0.150  0.00  0.00    +0.090 C 
BRANCH  16  18
ATOM     17  O   LIG    1       -2.450   0.538  -0.136  0.00  0.00    -0.500 OA
ATOM     18  C   LIG    1       -1.561  -0.286  -0.181  0.00  0.00    +0.550 C 
ATOM     19  N   LIG    1       -1.861  -1.598  -0.258  0.00  0.00    -0.550 N 
ATOM     20  C   LIG    1       -3.219  -2.148  -0.295  0.00  0.00    +0.290 C 
ATOM     21  C   LIG    1       -3.034  -3.672  -0.384  0.00  0.00    +0.090 C 
ATOM     22  C   LIG    1       -1.535  -3.874  -0.391  0.00  0.00    -0.130 A 
ATOM     23  C   LIG    1       -0.777  -5.026  -0.455  0.00  0.00    +0.060 A 
ATOM     24  C   LIG    1        0.604  -4.950  -0.462  0.00  0.00    -0.010 A 
ATOM     25  C   LIG    1        1.225  -3.716  -0.389  0.00  0.00    +0.050 A 
ATOM     26  C   LIG    1        0.472  -2.564  -0.319  0.00  0.00    -0.020 A 
ATOM     27  C   LIG    1       -0.923  -2.632  -0.321  0.00  0.00    +0.130 A 
ENDBRANCH  16  18
ENDBRANCH  15  16
ENDBRANCH   1  15
TORSDOF 5
