REMARK  Name = ZINCpe000000UkRQ.0
REMARK                            x       y       z     vdW  Elec       q    Type
REMARK                         _______ _______ _______ _____ _____    ______ ____
ROOT
ATOM      1  N   LIG    1        3.151   5.432   2.462  0.00  0.00    -0.720 N 
ATOM      2  H   LIG    1        3.148   4.770   3.171  0.00  0.00    +0.410 HD
ATOM      3  C   LIG    1        3.616   6.674   2.702  0.00  0.00    +0.570 C 
ATOM      4  O   LIG    1        3.619   7.503   1.813  0.00  0.00    -0.530 OA
ENDROOT
BRANCH   3   5
ATOM      5  C   LIG    1        4.122   7.027   4.045  0.00  0.00    -0.140 A 
ATOM      6  C   LIG    1        4.114   6.079   5.069  0.00  0.00    +0.050 A 
ATOM      7  C   LIG    1        4.592   6.413   6.319  0.00  0.00    +0.000 A 
ATOM      8  C   LIG    1        5.068   7.689   6.562  0.00  0.00    -0.040 A 
ATOM      9  C   LIG    1        5.074   8.636   5.553  0.00  0.00    +0.010 A 
ATOM     10  C   LIG    1        4.604   8.313   4.297  0.00  0.00    +0.090 A 
BRANCH   8  11
ATOM     11  C   LIG    1        5.583   8.050   7.932  0.00  0.00    -0.040 C 
ATOM     12  C   LIG    1        7.049   8.476   7.830  0.00  0.00    +0.040 C 
ATOM     13  C   LIG    1        5.467   6.836   8.856  0.00  0.00    +0.030 C 
ATOM     14  C   LIG    1        4.755   9.204   8.500  0.00  0.00    +0.040 C 
ENDBRANCH   8  11
ENDBRANCH   3   5
BRANCH   1  15
ATOM     15  C   LIG    1        2.650   5.082   1.131  0.00  0.00    +0.330 C 
BRANCH  15  18
ATOM     16  N   LIG    1        1.690   3.101   0.002  0.00  0.00    -0.490 N 
ATOM     17  H   LIG    1        1.622   3.633  -0.806  0.00  0.00    +0.430 HD
ATOM     18  C   LIG    1        2.192   3.646   1.128  0.00  0.00    +0.520 C 
ATOM     19  O   LIG    1        2.277   2.980   2.138  0.00  0.00    -0.510 OA
BRANCH  16  23
ATOM     20  N   LIG    1        0.002  -0.004   0.002  0.00  0.00    -0.440 N 
ATOM     21  N   LIG    1        1.346  -0.403  -0.013  0.00  0.00    -0.260 NA
ATOM     22  C   LIG    1        2.082   0.662  -0.014  0.00  0.00    +0.500 A 
ATOM     23  N   LIG    1        1.265   1.766  -0.001  0.00  0.00    -0.360 N 
ATOM     24  C   LIG    1       -0.016   1.345   0.009  0.00  0.00    +0.650 A 
ATOM     25  O   LIG    1       -1.008   2.053   0.018  0.00  0.00    -0.540 OA
BRANCH  20  27
ATOM     26  C   LIG    1       -1.586  -1.188  -1.432  0.00  0.00    +0.040 C 
ATOM     27  C   LIG    1       -1.166  -0.888   0.008  0.00  0.00    +0.360 C 
ENDBRANCH  20  27
ENDBRANCH  16  23
ENDBRANCH  15  18
ENDBRANCH   1  15
TORSDOF 6
