REMARK  Name = ZINCrD00000F5LFD.0
REMARK                            x       y       z     vdW  Elec       q    Type
REMARK                         _______ _______ _______ _____ _____    ______ ____
ROOT
ATOM      1  C   LIG    1        8.577   0.988  -3.409  0.00  0.00    +0.190 C 
ATOM      2  C   LIG    1        7.722   2.025  -2.728  0.00  0.00    +0.140 A 
ATOM      3  C   LIG    1        6.412   1.890  -2.365  0.00  0.00    -0.100 A 
ATOM      4  N   LIG    1        6.008   3.036  -1.790  0.00  0.00    -0.190 NA
ATOM      5  N   LIG    1        6.986   3.873  -1.764  0.00  0.00    -0.060 NA
ATOM      6  N   LIG    1        8.103   3.267  -2.358  0.00  0.00    -0.310 N 
ENDROOT
BRANCH   3   7
ATOM      7  C   LIG    1        5.578   0.691  -2.575  0.00  0.00    +0.620 C 
ATOM      8  N   LIG    1        4.293   0.684  -2.170  0.00  0.00    -0.610 N 
ATOM      9  C   LIG    1        3.586   1.805  -1.502  0.00  0.00    +0.280 C 
ATOM     10  C   LIG    1        2.146   1.335  -1.321  0.00  0.00    -0.030 C 
ATOM     11  C   LIG    1        1.420   1.802  -0.076  0.00  0.00    +0.040 C 
ATOM     12  C   LIG    1        0.021   1.164  -0.102  0.00  0.00    +0.000 C 
ATOM     13  C   LIG    1        0.098  -0.357  -0.176  0.00  0.00    +0.000 C 
ATOM     14  C   LIG    1        0.961  -0.825  -1.360  0.00  0.00    +0.040 C 
ATOM     15  C   LIG    1        2.334  -0.205  -1.182  0.00  0.00    -0.020 C 
ATOM     16  C   LIG    1        3.339  -0.448  -2.315  0.00  0.00    +0.270 C 
ATOM     17  O   LIG    1        6.051  -0.292  -3.114  0.00  0.00    -0.530 OA
ENDBRANCH   3   7
BRANCH   6  18
ATOM     18  C   LIG    1        9.368   3.839  -2.533  0.00  0.00    +0.120 A 
ATOM     19  C   LIG    1       10.000   3.773  -3.756  0.00  0.00    +0.070 A 
ATOM     20  C   LIG    1       11.258   4.339  -3.940  0.00  0.00    +0.030 A 
ATOM     21  C   LIG    1       11.902   4.973  -2.921  0.00  0.00    +0.090 A 
ATOM     22  C   LIG    1       11.293   5.062  -1.659  0.00  0.00    -0.110 A 
ATOM     23  C   LIG    1       11.915   5.705  -0.577  0.00  0.00    +0.320 A 
ATOM     24  N   LIG    1       11.308   5.764   0.585  0.00  0.00    -0.480 NA
ATOM     25  C   LIG    1       10.110   5.237   0.796  0.00  0.00    +0.250 A 
ATOM     26  C   LIG    1        9.424   4.593  -0.189  0.00  0.00    -0.010 A 
ATOM     27  C   LIG    1       10.008   4.494  -1.463  0.00  0.00    -0.010 A 
ENDBRANCH   6  18
TORSDOF 2
