REMARK  Name = ZINCrD000000C9Er.0
REMARK                            x       y       z     vdW  Elec       q    Type
REMARK                         _______ _______ _______ _____ _____    ______ ____
ROOT
ATOM      1  C   LIG    1        1.259   7.302  -0.084  0.00  0.00    +0.220 A 
ATOM      2  C   LIG    1        0.055   7.992  -0.047  0.00  0.00    +0.000 A 
ATOM      3  C   LIG    1        0.046   9.371  -0.099  0.00  0.00    +0.070 A 
ATOM      4  C   LIG    1        1.235  10.077  -0.189  0.00  0.00    -0.020 A 
ATOM      5  C   LIG    1        2.440   9.409  -0.227  0.00  0.00    +0.070 A 
ATOM      6  C   LIG    1        2.466   8.014  -0.169  0.00  0.00    -0.180 A 
ENDROOT
BRANCH   1   9
ATOM      7  O   LIG    1       -0.631   5.868   1.115  0.00  0.00    -0.510 OA
ATOM      8  C   LIG    1        0.248   5.250   0.547  0.00  0.00    +0.570 C 
ATOM      9  N   LIG    1        1.270   5.911  -0.031  0.00  0.00    -0.640 N 
ATOM     10  H   LIG    1        2.013   5.417  -0.412  0.00  0.00    +0.440 HD
BRANCH   8  11
ATOM     11  C   LIG    1        0.196   3.771   0.493  0.00  0.00    +0.070 A 
ATOM     12  C   LIG    1       -0.863   3.094   1.093  0.00  0.00    +0.040 A 
ATOM     13  C   LIG    1       -0.901   1.710   1.027  0.00  0.00    +0.070 A 
ATOM     14  C   LIG    1        0.129   1.050   0.374  0.00  0.00    +0.000 A 
ATOM     15  C   LIG    1        1.152   1.788  -0.200  0.00  0.00    +0.270 A 
ATOM     16  N   LIG    1        1.160   3.101  -0.129  0.00  0.00    -0.450 NA
ENDBRANCH   8  11
ENDBRANCH   1   9
BRANCH   6  17
ATOM     17  C   LIG    1        3.752   7.293  -0.202  0.00  0.00    +0.570 C 
ATOM     18  N   LIG    1        4.910   7.981  -0.184  0.00  0.00    -0.660 N 
ATOM     19  H   LIG    1        4.900   8.950  -0.231  0.00  0.00    +0.410 HD
ATOM     20  O   LIG    1        3.767   6.078  -0.247  0.00  0.00    -0.520 OA
BRANCH  18  21
ATOM     21  C   LIG    1        6.129   7.297  -0.096  0.00  0.00    +0.160 A 
ATOM     22  C   LIG    1        6.181   6.043   0.497  0.00  0.00    +0.040 A 
ATOM     23  C   LIG    1        7.382   5.365   0.581  0.00  0.00    +0.060 A 
ATOM     24  C   LIG    1        8.540   5.939   0.082  0.00  0.00    +0.020 A 
ATOM     25  O   LIG    1        9.829   5.489   0.046  0.00  0.00    -0.310 OA
ATOM     26  C   LIG    1       10.637   6.655  -0.202  0.00  0.00    +0.430 C 
ATOM     27  O   LIG    1        9.751   7.539  -0.914  0.00  0.00    -0.310 OA
ATOM     28  C   LIG    1        8.493   7.200  -0.508  0.00  0.00    +0.050 A 
ATOM     29  C   LIG    1        7.288   7.876  -0.596  0.00  0.00    +0.010 A 
ENDBRANCH  18  21
ENDBRANCH   6  17
TORSDOF 4
