REMARK  Name = ZINCqH0000004RKA.0
REMARK                            x       y       z     vdW  Elec       q    Type
REMARK                         _______ _______ _______ _____ _____    ______ ____
ROOT
ATOM      1  N   LIG    1        3.355   3.114   2.688  0.00  0.00    -0.650 N 
ATOM      2  H   LIG    1        3.855   2.359   3.034  0.00  0.00    +0.410 HD
ATOM      3  C   LIG    1        2.029   3.001   2.471  0.00  0.00    +0.510 C 
ATOM      4  O   LIG    1        1.403   3.945   2.037  0.00  0.00    -0.450 OA
ENDROOT
BRANCH   1  13
ATOM      5  N   LIG    1        5.335   4.536   2.600  0.00  0.00    -0.510 N 
ATOM      6  C   LIG    1        5.585   5.840   2.209  0.00  0.00    +0.050 A 
ATOM      7  C   LIG    1        6.725   6.629   2.166  0.00  0.00    +0.010 A 
ATOM      8  C   LIG    1        6.641   7.932   1.718  0.00  0.00    +0.020 A 
ATOM      9  C   LIG    1        5.425   8.458   1.310  0.00  0.00    +0.010 A 
ATOM     10  C   LIG    1        4.283   7.689   1.346  0.00  0.00    +0.060 A 
ATOM     11  C   LIG    1        4.350   6.368   1.797  0.00  0.00    +0.060 A 
ATOM     12  N   LIG    1        3.425   5.384   1.947  0.00  0.00    -0.470 NA
ATOM     13  C   LIG    1        4.002   4.307   2.415  0.00  0.00    +0.500 A 
BRANCH   5  15
ATOM     14  C   LIG    1        6.924   2.795   1.948  0.00  0.00    +0.040 C 
ATOM     15  C   LIG    1        6.318   3.579   3.114  0.00  0.00    +0.290 C 
ENDBRANCH   5  15
ENDBRANCH   1  13
BRANCH   3  16
ATOM     16  C   LIG    1        1.325   1.702   2.768  0.00  0.00    +0.160 C 
BRANCH  16  17
ATOM     17  C   LIG    1       -0.140   1.839   2.442  0.00  0.00    -0.230 A 
ATOM     18  C   LIG    1       -0.718   1.572   1.248  0.00  0.00    +0.110 A 
ATOM     19  N   LIG    1       -2.039   1.824   1.365  0.00  0.00    -0.360 N 
ATOM     20  N   LIG    1       -2.281   2.253   2.676  0.00  0.00    -0.290 NA
ATOM     21  C   LIG    1       -0.013   1.086   0.008  0.00  0.00    +0.130 C 
ATOM     22  C   LIG    1       -1.142   2.264   3.320  0.00  0.00    +0.090 A 
ATOM     23  C   LIG    1       -0.944   2.666   4.759  0.00  0.00    +0.140 C 
BRANCH  19  24
ATOM     24  C   LIG    1       -3.042   1.673   0.308  0.00  0.00    +0.330 C 
BRANCH  24  25
ATOM     25  C   LIG    1       -3.616   0.255   0.348  0.00  0.00    -0.030 C 
ATOM     26  C   LIG    1       -2.514  -0.750   0.007  0.00  0.00    +0.030 C 
ATOM     27  C   LIG    1       -4.750   0.135  -0.672  0.00  0.00    +0.030 C 
ENDBRANCH  24  25
ENDBRANCH  19  24
ENDBRANCH  16  17
ENDBRANCH   3  16
TORSDOF 6
