REMARK  Name = ZINCrH000004vF9V.0
REMARK                            x       y       z     vdW  Elec       q    Type
REMARK                         _______ _______ _______ _____ _____    ______ ____
ROOT
ATOM      1  O   LIG    1       -3.962   8.959   2.813  0.00  0.00    -0.530 OA
ATOM      2  C   LIG    1       -4.029   7.766   2.580  0.00  0.00    +0.610 C 
ATOM      3  N   LIG    1       -3.551   6.877   3.473  0.00  0.00    -0.610 N 
ATOM      4  C   LIG    1       -2.864   7.333   4.688  0.00  0.00    +0.280 C 
ATOM      5  C   LIG    1       -1.497   6.645   4.769  0.00  0.00    +0.010 C 
ATOM      6  C   LIG    1       -1.688   5.129   4.686  0.00  0.00    +0.030 C 
ATOM      7  C   LIG    1       -2.333   4.767   3.345  0.00  0.00    +0.030 C 
ATOM      8  C   LIG    1       -3.709   5.434   3.249  0.00  0.00    +0.280 C 
ENDROOT
BRANCH   2   9
ATOM      9  C   LIG    1       -4.630   7.297   1.327  0.00  0.00    -0.290 A 
ATOM     10  C   LIG    1       -4.330   7.757   0.030  0.00  0.00    +0.310 A 
ATOM     11  N   LIG    1       -3.483   8.680  -0.424  0.00  0.00    -0.460 NA
ATOM     12  C   LIG    1       -3.386   8.931  -1.712  0.00  0.00    +0.380 A 
ATOM     13  C   LIG    1       -4.177   8.226  -2.626  0.00  0.00    -0.050 A 
ATOM     14  C   LIG    1       -5.036   7.279  -2.170  0.00  0.00    +0.360 A 
ATOM     15  N   LIG    1       -5.117   7.045  -0.830  0.00  0.00    -0.310 N 
ATOM     16  N   LIG    1       -5.900   6.164  -0.076  0.00  0.00    -0.300 NA
ATOM     17  C   LIG    1       -5.619   6.307   1.193  0.00  0.00    +0.330 A 
ENDBRANCH   2   9
BRANCH   7  18
ATOM     18  C   LIG    1       -2.491   3.271   3.251  0.00  0.00    -0.080 A 
ATOM     19  C   LIG    1       -3.257   2.597   4.183  0.00  0.00    +0.050 A 
ATOM     20  C   LIG    1       -3.402   1.225   4.096  0.00  0.00    +0.030 A 
ATOM     21  C   LIG    1       -2.780   0.527   3.078  0.00  0.00    +0.070 A 
ATOM     22  C   LIG    1       -2.014   1.202   2.145  0.00  0.00    -0.180 A 
ATOM     23  C   LIG    1       -1.865   2.573   2.235  0.00  0.00    +0.070 A 
BRANCH  22  24
ATOM     24  C   LIG    1       -1.335   0.441   1.035  0.00  0.00    +0.510 C 
ATOM     25  F   LIG    1       -1.798   0.907  -0.200  0.00  0.00    -0.180 F 
ATOM     26  F   LIG    1        0.048   0.631   1.117  0.00  0.00    -0.180 F 
ATOM     27  F   LIG    1       -1.627  -0.922   1.158  0.00  0.00    -0.180 F 
ENDBRANCH  22  24
ENDBRANCH   7  18
TORSDOF 3
