REMARK  Name = ZINCrH00000No4zo.0
REMARK                            x       y       z     vdW  Elec       q    Type
REMARK                         _______ _______ _______ _____ _____    ______ ____
ROOT
ATOM      1  C   LIG    1        2.450   0.085  -0.112  0.00  0.00    -0.090 A 
ATOM      2  C   LIG    1        2.428   1.486  -0.039  0.00  0.00    +0.180 A 
ATOM      3  C   LIG    1        3.602   2.185  -0.044  0.00  0.00    +0.030 A 
ATOM      4  C   LIG    1        4.816   1.512  -0.133  0.00  0.00    +0.180 A 
ATOM      5  C   LIG    1        4.843   0.123  -0.210  0.00  0.00    -0.070 A 
ATOM      6  C   LIG    1        3.677  -0.588  -0.201  0.00  0.00    +0.160 A 
ENDROOT
BRANCH   5   7
ATOM      7  N   LIG    1        6.140  -0.586  -0.304  0.00  0.00    +0.030 N 
ATOM      8  O   LIG    1        7.180   0.046  -0.313  0.00  0.00    -0.130 OA
ATOM      9  O   LIG    1        6.165  -1.802  -0.373  0.00  0.00    -0.160 OA
ENDBRANCH   5   7
BRANCH   1  11
ATOM     10  C   LIG    1        0.202  -0.344   0.795  0.00  0.00    -0.110 C 
ATOM     11  C   LIG    1        1.196  -0.671  -0.102  0.00  0.00    +0.230 C 
BRANCH  10  12
ATOM     12  C   LIG    1        0.475   0.612   1.879  0.00  0.00    +0.570 C 
ATOM     13  N   LIG    1       -0.531   1.045   2.665  0.00  0.00    -0.690 N 
ATOM     14  H   LIG    1       -1.435   0.726   2.515  0.00  0.00    +0.400 HD
ATOM     15  O   LIG    1        1.608   1.016   2.064  0.00  0.00    -0.520 OA
BRANCH  13  16
ATOM     16  C   LIG    1       -0.259   1.998   3.744  0.00  0.00    +0.210 C 
ATOM     17  C   LIG    1       -0.927   1.741   5.097  0.00  0.00    +0.020 C 
ATOM     18  C   LIG    1       -1.414   2.888   4.208  0.00  0.00    +0.020 C 
ENDBRANCH  13  16
ENDBRANCH  10  12
BRANCH  10  20
ATOM     19  N   LIG    1       -2.126  -1.406   0.575  0.00  0.00    -0.380 NA
ATOM     20  C   LIG    1       -1.096  -0.936   0.672  0.00  0.00    +0.240 C 
ENDBRANCH  10  20
ENDBRANCH   1  11
BRANCH   4  21
ATOM     21  O   LIG    1        5.978   2.212  -0.142  0.00  0.00    -0.240 OA
BRANCH  21  22
ATOM     22  C   LIG    1        6.513   2.543  -1.347  0.00  0.00    +0.120 A 
ATOM     23  C   LIG    1        5.821   2.261  -2.516  0.00  0.00    -0.050 A 
ATOM     24  C   LIG    1        6.365   2.601  -3.739  0.00  0.00    +0.030 A 
ATOM     25  C   LIG    1        7.605   3.214  -3.800  0.00  0.00    +0.070 A 
ATOM     26  C   LIG    1        8.299   3.492  -2.634  0.00  0.00    +0.040 A 
ATOM     27  F   LIG    1        8.138   3.541  -4.997  0.00  0.00    -0.140 F 
ATOM     28  C   LIG    1        7.756   3.157  -1.409  0.00  0.00    +0.050 A 
ENDBRANCH  21  22
ENDBRANCH   4  21
TORSDOF 7
