REMARK  Name = ZINCrg000000sfm1.0
REMARK                            x       y       z     vdW  Elec       q    Type
REMARK                         _______ _______ _______ _____ _____    ______ ____
ROOT
ATOM      1  N   LIG    1        3.284  -5.357   2.586  0.00  0.00    -0.520 NA
ATOM      2  C   LIG    1        1.944  -5.961   2.606  0.00  0.00    +0.170 C 
ATOM      3  C   LIG    1        0.920  -4.941   2.096  0.00  0.00    +0.300 C 
ATOM      4  N   LIG    1        1.058  -3.707   2.884  0.00  0.00    -0.600 N 
ATOM      5  C   LIG    1        2.397  -3.113   3.019  0.00  0.00    +0.300 C 
ATOM      6  C   LIG    1       -0.015  -3.132   3.463  0.00  0.00    +0.580 C 
ATOM      7  O   LIG    1        0.115  -2.101   4.094  0.00  0.00    -0.540 OA
ATOM      8  C   LIG    1        3.364  -4.208   3.497  0.00  0.00    +0.170 C 
ENDROOT
BRANCH   6   9
ATOM      9  C   LIG    1       -1.349  -3.755   3.330  0.00  0.00    -0.050 A 
ATOM     10  C   LIG    1       -2.385  -3.371   4.179  0.00  0.00    +0.360 A 
ATOM     11  N   LIG    1       -3.578  -3.924   4.057  0.00  0.00    -0.510 NA
ATOM     12  C   LIG    1       -3.787  -4.852   3.131  0.00  0.00    +0.380 A 
ATOM     13  C   LIG    1       -2.747  -5.237   2.278  0.00  0.00    +0.160 A 
ATOM     14  N   LIG    1       -1.561  -4.683   2.397  0.00  0.00    -0.370 NA
BRANCH  12  15
ATOM     15  N   LIG    1       -5.036  -5.435   3.005  0.00  0.00    -0.830 N 
ATOM     16  H   LIG    1       -5.756  -5.172   3.599  0.00  0.00    +0.410 HD
ATOM     17  H   LIG    1       -5.190  -6.111   2.326  0.00  0.00    +0.420 HD
ENDBRANCH  12  15
ENDBRANCH   6   9
BRANCH   1  18
ATOM     18  C   LIG    1        4.315  -6.354   2.903  0.00  0.00    +0.220 C 
BRANCH  18  21
ATOM     19  N   LIG    1        6.783  -6.508   2.855  0.00  0.00    -0.680 N 
ATOM     20  H   LIG    1        6.701  -7.441   3.107  0.00  0.00    +0.410 HD
ATOM     21  C   LIG    1        5.678  -5.769   2.635  0.00  0.00    +0.510 C 
ATOM     22  O   LIG    1        5.780  -4.634   2.220  0.00  0.00    -0.500 OA
BRANCH  19  30
ATOM     23  C   LIG    1        7.446  -5.281   0.375  0.00  0.00    +0.100 C 
ATOM     24  C   LIG    1        8.414  -5.319   1.529  0.00  0.00    -0.070 A 
ATOM     25  C   LIG    1        9.663  -4.743   1.402  0.00  0.00    +0.010 A 
ATOM     26  C   LIG    1       10.555  -4.783   2.458  0.00  0.00    +0.010 A 
ATOM     27  C   LIG    1       10.197  -5.394   3.646  0.00  0.00    +0.010 A 
ATOM     28  C   LIG    1        8.948  -5.967   3.781  0.00  0.00    -0.090 A 
ATOM     29  C   LIG    1        8.559  -6.632   5.076  0.00  0.00    +0.090 C 
ATOM     30  C   LIG    1        8.050  -5.928   2.722  0.00  0.00    +0.130 A 
ENDBRANCH  19  30
ENDBRANCH  18  21
ENDBRANCH   1  18
TORSDOF 5
