REMARK  Name = ZINCrH00000asj1c.0
REMARK                            x       y       z     vdW  Elec       q    Type
REMARK                         _______ _______ _______ _____ _____    ______ ____
ROOT
ATOM      1  N   LIG    1       -0.698   1.558   1.213  0.00  0.00    -0.350 N 
ATOM      2  N   LIG    1       -0.923   2.893   1.586  0.00  0.00    -0.290 NA
ATOM      3  C   LIG    1       -1.567   2.869   2.724  0.00  0.00    +0.230 A 
ATOM      4  N   LIG    1       -1.760   1.605   3.091  0.00  0.00    -0.510 NA
ATOM      5  C   LIG    1       -1.247   0.796   2.187  0.00  0.00    +0.350 A 
ENDROOT
BRANCH   5   6
ATOM      6  C   LIG    1       -1.264  -0.683   2.230  0.00  0.00    +0.140 A 
ATOM      7  N   LIG    1       -0.752  -1.491   1.325  0.00  0.00    -0.250 NA
ATOM      8  N   LIG    1       -0.977  -2.814   1.742  0.00  0.00    -0.380 N 
ATOM      9  C   LIG    1       -0.736  -4.204   1.320  0.00  0.00    +0.320 C 
ATOM     10  C   LIG    1       -0.944  -5.063   2.585  0.00  0.00    +0.210 C 
ATOM     11  C   LIG    1       -1.907  -4.180   3.411  0.00  0.00    +0.130 C 
ATOM     12  F   LIG    1       -1.539  -6.289   2.266  0.00  0.00    -0.180 F 
ATOM     13  C   LIG    1       -1.639  -2.774   2.916  0.00  0.00    +0.060 A 
ATOM     14  C   LIG    1       -1.835  -1.476   3.245  0.00  0.00    -0.030 A 
ENDBRANCH   5   6
BRANCH   1  16
ATOM     15  C   LIG    1        1.423   1.615  -0.003  0.00  0.00    +0.050 C 
ATOM     16  C   LIG    1       -0.013   1.086   0.008  0.00  0.00    +0.310 C 
BRANCH  16  17
ATOM     17  C   LIG    1       -0.753   1.593  -1.232  0.00  0.00    -0.050 C 
ATOM     18  C   LIG    1       -1.482   0.558  -2.091  0.00  0.00    +0.020 C 
ATOM     19  C   LIG    1       -0.190   1.202  -2.599  0.00  0.00    +0.040 C 
ENDBRANCH  16  17
ENDBRANCH   1  16
BRANCH   3  20
ATOM     20  C   LIG    1       -2.017   4.081   3.499  0.00  0.00    +0.220 C 
BRANCH  20  21
ATOM     21  C   LIG    1       -3.404   4.472   3.058  0.00  0.00    -0.060 A 
ATOM     22  C   LIG    1       -4.508   3.939   3.697  0.00  0.00    +0.020 A 
ATOM     23  C   LIG    1       -5.781   4.297   3.294  0.00  0.00    +0.040 A 
ATOM     24  C   LIG    1       -5.952   5.188   2.251  0.00  0.00    -0.020 A 
ATOM     25  C   LIG    1       -4.846   5.722   1.610  0.00  0.00    +0.100 A 
ATOM     26  F   LIG    1       -5.012   6.592   0.590  0.00  0.00    -0.140 F 
ATOM     27  C   LIG    1       -3.572   5.367   2.018  0.00  0.00    +0.000 A 
ENDBRANCH  20  21
ENDBRANCH   3  20
TORSDOF 5
