REMARK  Name = ZINCrH000004nxt0.0
REMARK                            x       y       z     vdW  Elec       q    Type
REMARK                         _______ _______ _______ _____ _____    ______ ____
ROOT
ATOM      1  C   LIG    1       -0.391   0.636   0.549  0.00  0.00    +0.240 A 
ATOM      2  N   LIG    1        0.824   0.141   0.490  0.00  0.00    -0.250 NA
ATOM      3  N   LIG    1        1.681   1.092   0.381  0.00  0.00    -0.290 NA
ATOM      4  C   LIG    1        1.067   2.253   0.362  0.00  0.00    +0.140 A 
ATOM      5  N   LIG    1       -0.273   2.004   0.469  0.00  0.00    -0.460 N 
ATOM      6  C   LIG    1       -1.357   2.989   0.487  0.00  0.00    +0.360 C 
ENDROOT
BRANCH   1  12
ATOM      7  C   LIG    1       -1.821  -1.321  -0.040  0.00  0.00    +0.170 A 
ATOM      8  C   LIG    1       -3.002  -2.034   0.087  0.00  0.00    -0.070 A 
ATOM      9  C   LIG    1       -4.004  -1.571   0.920  0.00  0.00    +0.070 A 
ATOM     10  C   LIG    1       -3.836  -0.396   1.631  0.00  0.00    -0.030 A 
ATOM     11  C   LIG    1       -2.663   0.323   1.519  0.00  0.00    +0.070 A 
ATOM     12  C   LIG    1       -1.647  -0.131   0.677  0.00  0.00    -0.060 A 
BRANCH   7  14
ATOM     13  C   LIG    1       -1.085  -2.995  -1.559  0.00  0.00    +0.240 C 
ATOM     14  O   LIG    1       -0.837  -1.775  -0.859  0.00  0.00    -0.290 OA
ENDBRANCH   7  14
ENDBRANCH   1  12
BRANCH   4  15
ATOM     15  S   LIG    1        1.828   3.836   0.225  0.00  0.00    +0.080 S 
BRANCH  15  16
ATOM     16  C   LIG    1        3.566   3.342   0.130  0.00  0.00    +0.020 C 
ATOM     17  C   LIG    1        3.983   2.686   1.448  0.00  0.00    +0.090 C 
BRANCH  16  18
ATOM     18  C   LIG    1        4.421   4.558  -0.118  0.00  0.00    +0.540 C 
ATOM     19  N   LIG    1        5.624   4.426  -0.713  0.00  0.00    -0.660 N 
ATOM     20  H   LIG    1        5.903   3.563  -1.057  0.00  0.00    +0.420 HD
ATOM     21  O   LIG    1        4.028   5.655   0.217  0.00  0.00    -0.500 OA
BRANCH  19  22
ATOM     22  C   LIG    1        6.470   5.535  -0.835  0.00  0.00    +0.120 A 
ATOM     23  C   LIG    1        6.355   6.599   0.049  0.00  0.00    +0.050 A 
ATOM     24  C   LIG    1        7.191   7.692  -0.074  0.00  0.00    +0.030 A 
ATOM     25  C   LIG    1        8.143   7.728  -1.076  0.00  0.00    +0.030 A 
ATOM     26  C   LIG    1        8.261   6.671  -1.960  0.00  0.00    +0.010 A 
ATOM     27  C   LIG    1        7.431   5.571  -1.840  0.00  0.00    +0.070 A 
ATOM     28  F   LIG    1        7.551   4.536  -2.700  0.00  0.00    -0.140 F 
ENDBRANCH  19  22
ENDBRANCH  16  18
ENDBRANCH  15  16
ENDBRANCH   4  15
TORSDOF 6
