REMARK  Name = ZINCqH0000000qPS.0
REMARK                            x       y       z     vdW  Elec       q    Type
REMARK                         _______ _______ _______ _____ _____    ______ ____
ROOT
ATOM      1  C   LIG    1       -0.463   4.063   0.852  0.00  0.00    +0.090 C 
ENDROOT
BRANCH   1   2
ATOM      2  C   LIG    1       -1.067   3.856   2.217  0.00  0.00    +0.510 C 
ATOM      3  N   LIG    1       -0.434   4.321   3.312  0.00  0.00    -0.660 N 
ATOM      4  H   LIG    1        0.440   4.735   3.228  0.00  0.00    +0.420 HD
ATOM      5  O   LIG    1       -2.123   3.270   2.330  0.00  0.00    -0.510 OA
BRANCH   3   6
ATOM      6  C   LIG    1       -1.036   4.209   4.567  0.00  0.00    +0.160 A 
ATOM      7  C   LIG    1       -1.816   3.114   4.867  0.00  0.00    +0.040 A 
ATOM      8  C   LIG    1       -2.418   2.988   6.116  0.00  0.00    +0.040 A 
ATOM      9  C   LIG    1       -2.260   3.946   7.071  0.00  0.00    +0.020 A 
ATOM     10  C   LIG    1       -1.476   5.079   6.801  0.00  0.00    -0.090 A 
ATOM     11  C   LIG    1       -1.293   6.088   7.767  0.00  0.00    +0.080 A 
ATOM     12  C   LIG    1       -0.518   7.163   7.436  0.00  0.00    -0.030 A 
ATOM     13  C   LIG    1        0.065   7.238   6.174  0.00  0.00    +0.290 A 
ATOM     14  N   LIG    1       -0.108   6.296   5.278  0.00  0.00    -0.480 NA
ATOM     15  C   LIG    1       -0.853   5.219   5.537  0.00  0.00    +0.110 A 
ENDBRANCH   3   6
ENDBRANCH   1   2
BRANCH   1  16
ATOM     16  C   LIG    1       -1.375   3.443  -0.209  0.00  0.00    +0.310 C 
BRANCH  16  17
ATOM     17  C   LIG    1       -0.835   3.756  -1.581  0.00  0.00    -0.100 A 
ATOM     18  C   LIG    1        0.153   2.961  -2.132  0.00  0.00    +0.020 A 
ATOM     19  C   LIG    1        0.645   3.245  -3.392  0.00  0.00    +0.000 A 
ATOM     20  C   LIG    1        0.157   4.330  -4.096  0.00  0.00    -0.080 A 
ATOM     21  C   LIG    1       -0.827   5.128  -3.543  0.00  0.00    +0.000 A 
ATOM     22  C   LIG    1        0.698   4.644  -5.468  0.00  0.00    +0.090 C 
ATOM     23  C   LIG    1       -1.322   4.841  -2.285  0.00  0.00    +0.020 A 
ENDBRANCH  16  17
BRANCH  16  26
ATOM     24  C   LIG    1       -2.439  -0.225  -0.445  0.00  0.00    +0.090 C 
ATOM     25  C   LIG    1       -2.443   1.279  -0.542  0.00  0.00    +0.520 C 
ATOM     26  N   LIG    1       -1.424   1.991  -0.023  0.00  0.00    -0.720 N 
ATOM     27  H   LIG    1       -0.722   1.542   0.474  0.00  0.00    +0.400 HD
ATOM     28  O   LIG    1       -3.367   1.849  -1.083  0.00  0.00    -0.540 OA
ENDBRANCH  16  26
ENDBRANCH   1  16
TORSDOF 5
