REMARK  Name = ZINCqH0000038lmY.0
REMARK                            x       y       z     vdW  Elec       q    Type
REMARK                         _______ _______ _______ _____ _____    ______ ____
ROOT
ATOM      1  N   LIG    1       -2.296   1.196  -0.154  0.00  0.00    -0.640 N 
ATOM      2  H   LIG    1       -2.970   1.870  -0.332  0.00  0.00    +0.410 HD
ATOM      3  C   LIG    1       -2.662  -0.081   0.071  0.00  0.00    +0.570 C 
ATOM      4  O   LIG    1       -1.817  -0.925   0.295  0.00  0.00    -0.490 OA
ENDROOT
BRANCH   3   5
ATOM      5  C   LIG    1       -4.092  -0.455   0.047  0.00  0.00    -0.140 A 
ATOM      6  C   LIG    1       -5.066   0.514  -0.204  0.00  0.00    +0.100 A 
ATOM      7  C   LIG    1       -6.398   0.158  -0.230  0.00  0.00    +0.040 A 
ATOM      8  C   LIG    1       -6.771  -1.154   0.001  0.00  0.00    +0.010 A 
ATOM      9  C   LIG    1       -5.811  -2.119   0.255  0.00  0.00    -0.050 A 
ATOM     10  C   LIG    1       -8.229  -1.535  -0.023  0.00  0.00    +0.140 C 
ATOM     11  C   LIG    1       -4.476  -1.777   0.279  0.00  0.00    +0.180 A 
BRANCH   9  12
ATOM     12  N   LIG    1       -6.220  -3.520   0.502  0.00  0.00    +0.020 N 
ATOM     13  O   LIG    1       -5.536  -4.436   0.082  0.00  0.00    -0.140 OA
ATOM     14  O   LIG    1       -7.239  -3.756   1.125  0.00  0.00    -0.140 OA
ENDBRANCH   9  12
ENDBRANCH   3   5
BRANCH   1  19
ATOM     15  N   LIG    1       -0.438   2.791  -0.335  0.00  0.00    -0.380 N 
ATOM     16  N   LIG    1        0.956   2.705  -0.229  0.00  0.00    -0.280 NA
ATOM     17  C   LIG    1        1.275   1.464   0.033  0.00  0.00    +0.250 A 
ATOM     18  C   LIG    1        0.100   0.711   0.105  0.00  0.00    -0.100 A 
ATOM     19  C   LIG    1       -0.947   1.549  -0.130  0.00  0.00    +0.300 A 
BRANCH  15  20
ATOM     20  C   LIG    1       -1.209   4.003  -0.621  0.00  0.00    +0.370 C 
BRANCH  20  26
ATOM     21  C   LIG    1        0.408   5.739  -5.028  0.00  0.00    +0.090 C 
ATOM     22  C   LIG    1       -0.611   4.978  -4.219  0.00  0.00    -0.080 A 
ATOM     23  C   LIG    1       -1.706   4.412  -4.844  0.00  0.00    +0.020 A 
ATOM     24  C   LIG    1       -2.641   3.713  -4.102  0.00  0.00    +0.020 A 
ATOM     25  C   LIG    1       -2.480   3.582  -2.736  0.00  0.00    +0.000 A 
ATOM     26  C   LIG    1       -1.384   4.147  -2.111  0.00  0.00    -0.120 A 
ATOM     27  C   LIG    1       -0.452   4.850  -2.852  0.00  0.00    +0.040 A 
ENDBRANCH  20  26
ENDBRANCH  15  20
ENDBRANCH   1  19
TORSDOF 5
