REMARK  Name = ZINCtV000002ziA9.0
REMARK                            x       y       z     vdW  Elec       q    Type
REMARK                         _______ _______ _______ _____ _____    ______ ____
ROOT
ATOM      1  N   LIG    1        0.003  -0.005   0.000  0.00  0.00    -0.690 N 
ATOM      2  H   LIG    1        0.845  -0.479  -0.082  0.00  0.00    +0.400 HD
ATOM      3  C   LIG    1       -0.015   1.342   0.004  0.00  0.00    +0.710 C 
ATOM      4  N   LIG    1        1.142   2.032  -0.013  0.00  0.00    -0.610 N 
ATOM      5  O   LIG    1       -1.077   1.936   0.017  0.00  0.00    -0.560 OA
ENDROOT
BRANCH   1   9
ATOM      6  C   LIG    1       -3.565  -2.140   0.339  0.00  0.00    +0.200 A 
ATOM      7  C   LIG    1       -3.539  -0.936  -0.351  0.00  0.00    -0.010 A 
ATOM      8  C   LIG    1       -2.358  -0.229  -0.463  0.00  0.00    +0.080 A 
ATOM      9  C   LIG    1       -1.196  -0.723   0.114  0.00  0.00    +0.160 A 
ATOM     10  C   LIG    1       -1.220  -1.931   0.799  0.00  0.00    -0.160 A 
ATOM     11  C   LIG    1       -2.402  -2.635   0.916  0.00  0.00    +0.000 A 
BRANCH  10  12
ATOM     12  C   LIG    1        0.043  -2.469   1.420  0.00  0.00    +0.510 C 
ATOM     13  F   LIG    1        0.526  -1.555   2.363  0.00  0.00    -0.170 F 
ATOM     14  F   LIG    1        1.006  -2.665   0.424  0.00  0.00    -0.180 F 
ATOM     15  F   LIG    1       -0.231  -3.688   2.050  0.00  0.00    -0.170 F 
ENDBRANCH  10  12
BRANCH   6  17
ATOM     16  C   LIG    1       -5.961  -2.394  -0.249  0.00  0.00    +0.290 C 
ATOM     17  N   LIG    1       -4.761  -2.857   0.452  0.00  0.00    -0.640 N 
ATOM     18  C   LIG    1       -4.814  -4.070   1.272  0.00  0.00    +0.280 C 
ENDBRANCH   6  17
ENDBRANCH   1   9
BRANCH   4  19
ATOM     19  C   LIG    1        1.123   3.497  -0.009  0.00  0.00    +0.410 C 
BRANCH  19  20
ATOM     20  C   LIG    1        1.138   3.995   1.413  0.00  0.00    -0.210 A 
ATOM     21  C   LIG    1        2.236   4.265   2.122  0.00  0.00    +0.020 A 
ATOM     22  C   LIG    1        2.003   4.712   3.411  0.00  0.00    +0.000 A 
ATOM     23  C   LIG    1        0.716   4.807   3.749  0.00  0.00    -0.060 A 
ATOM     24  S   LIG    1       -0.288   4.319   2.390  0.00  0.00    +0.140 S 
ENDBRANCH  19  20
ENDBRANCH   4  19
BRANCH   4  25
ATOM     25  C   LIG    1        2.421   1.317  -0.035  0.00  0.00    +0.370 C 
BRANCH  25  26
ATOM     26  C   LIG    1        2.837   1.075  -1.463  0.00  0.00    -0.220 A 
ATOM     27  C   LIG    1        3.581   1.903  -2.197  0.00  0.00    +0.030 A 
ATOM     28  C   LIG    1        3.837   1.469  -3.487  0.00  0.00    +0.000 A 
ATOM     29  C   LIG    1        3.300   0.288  -3.799  0.00  0.00    -0.030 A 
ATOM     30  S   LIG    1        2.421  -0.345  -2.413  0.00  0.00    +0.100 S 
ENDBRANCH  25  26
ENDBRANCH   4  25
TORSDOF 7
