REMARK  Name = ZINCpe000000WoZz.0
REMARK                            x       y       z     vdW  Elec       q    Type
REMARK                         _______ _______ _______ _____ _____    ______ ____
ROOT
ATOM      1  N   LIG    1        5.253   2.334  -0.697  0.00  0.00    -0.530 NA
ATOM      2  C   LIG    1        5.620   1.090  -1.386  0.00  0.00    +0.160 C 
ATOM      3  C   LIG    1        5.305   1.225  -2.880  0.00  0.00    +0.300 C 
ATOM      4  N   LIG    1        5.967   2.436  -3.389  0.00  0.00    -0.590 N 
ATOM      5  C   LIG    1        5.756   3.700  -2.667  0.00  0.00    +0.300 C 
ATOM      6  C   LIG    1        6.746   2.388  -4.487  0.00  0.00    +0.590 C 
ATOM      7  O   LIG    1        7.258   3.405  -4.914  0.00  0.00    -0.520 OA
ATOM      8  C   LIG    1        6.053   3.467  -1.181  0.00  0.00    +0.170 C 
ENDROOT
BRANCH   6   9
ATOM      9  C   LIG    1        6.979   1.099  -5.174  0.00  0.00    +0.030 A 
ATOM     10  N   LIG    1        6.084   0.141  -5.087  0.00  0.00    -0.170 NA
ATOM     11  N   LIG    1        6.237  -0.994  -5.668  0.00  0.00    -0.440 N 
ATOM     12  H   LIG    1        5.545  -1.668  -5.577  0.00  0.00    +0.450 HD
ATOM     13  C   LIG    1        7.333  -1.276  -6.397  0.00  0.00    +0.480 A 
ATOM     14  C   LIG    1        8.346  -0.301  -6.537  0.00  0.00    -0.010 A 
ATOM     15  O   LIG    1        7.451  -2.365  -6.933  0.00  0.00    -0.520 OA
ATOM     16  C   LIG    1        8.166   0.900  -5.918  0.00  0.00    +0.120 A 
ENDBRANCH   6   9
BRANCH   1  17
ATOM     17  C   LIG    1        5.377   2.186   0.759  0.00  0.00    +0.240 C 
BRANCH  17  21
ATOM     18  C   LIG    1        2.504  -0.655   2.154  0.00  0.00    +0.100 A 
ATOM     19  C   LIG    1        2.174   0.690   2.084  0.00  0.00    -0.040 A 
ATOM     20  C   LIG    1        3.106   1.606   1.633  0.00  0.00    +0.070 A 
ATOM     21  C   LIG    1        4.365   1.184   1.251  0.00  0.00    -0.090 A 
ATOM     22  C   LIG    1        4.697  -0.157   1.318  0.00  0.00    +0.030 A 
ATOM     23  C   LIG    1        3.770  -1.078   1.769  0.00  0.00    +0.070 A 
ATOM     24  F   LIG    1        4.095  -2.388   1.835  0.00  0.00    -0.130 F 
BRANCH  18  26
ATOM     25  C   LIG    1        0.307  -1.051   2.975  0.00  0.00    +0.250 C 
ATOM     26  O   LIG    1        1.589  -1.558   2.597  0.00  0.00    -0.310 OA
ENDBRANCH  18  26
ENDBRANCH  17  21
ENDBRANCH   1  17
TORSDOF 4
