REMARK  Name = ZINCpe00000R9Joh.0
REMARK                            x       y       z     vdW  Elec       q    Type
REMARK                         _______ _______ _______ _____ _____    ______ ____
ROOT
ATOM      1  C   LIG    1        6.253  -0.559  -0.317  0.00  0.00    +0.160 C 
ATOM      2  C   LIG    1        5.388   0.669   0.036  0.00  0.00    +0.080 C 
ATOM      3  C   LIG    1        3.951   0.187  -0.298  0.00  0.00    +0.050 C 
ATOM      4  C   LIG    1        4.203  -0.700  -1.543  0.00  0.00    +0.250 C 
ATOM      5  N   LIG    1        5.488  -1.371  -1.275  0.00  0.00    -0.610 N 
ATOM      6  C   LIG    1        5.893  -2.538  -1.813  0.00  0.00    +0.570 C 
ATOM      7  O   LIG    1        6.906  -3.076  -1.409  0.00  0.00    -0.460 OA
ENDROOT
BRANCH   6   8
ATOM      8  C   LIG    1        5.106  -3.164  -2.893  0.00  0.00    +0.080 A 
ATOM      9  C   LIG    1        5.458  -4.398  -3.331  0.00  0.00    +0.060 A 
ATOM     10  C   LIG    1        4.685  -5.027  -4.402  0.00  0.00    -0.010 A 
ATOM     11  C   LIG    1        5.003  -6.295  -4.891  0.00  0.00    +0.030 A 
ATOM     12  C   LIG    1        4.242  -6.844  -5.901  0.00  0.00    +0.050 A 
ATOM     13  C   LIG    1        3.165  -6.150  -6.434  0.00  0.00    +0.000 A 
ATOM     14  C   LIG    1        2.830  -4.898  -5.963  0.00  0.00    +0.090 A 
ATOM     15  C   LIG    1        3.587  -4.321  -4.947  0.00  0.00    -0.140 A 
ATOM     16  C   LIG    1        3.276  -2.988  -4.411  0.00  0.00    +0.550 A 
ATOM     17  O   LIG    1        2.338  -2.351  -4.857  0.00  0.00    -0.520 OA
ATOM     18  N   LIG    1        4.037  -2.476  -3.424  0.00  0.00    -0.640 N 
ATOM     19  H   LIG    1        3.825  -1.596  -3.076  0.00  0.00    +0.420 HD
ENDBRANCH   6   8
BRANCH   1  23
ATOM     20  C   LIG    1        5.927  -3.100   2.521  0.00  0.00    +0.280 C 
ATOM     21  N   LIG    1        5.595  -2.184   1.427  0.00  0.00    -0.730 N 
ATOM     22  H   LIG    1        4.695  -2.170   1.063  0.00  0.00    +0.400 HD
ATOM     23  C   LIG    1        6.538  -1.363   0.925  0.00  0.00    +0.530 C 
ATOM     24  O   LIG    1        7.616  -1.272   1.473  0.00  0.00    -0.520 OA
ENDBRANCH   1  23
BRANCH   1  25
ATOM     25  C   LIG    1        7.566  -0.100  -0.956  0.00  0.00    +0.200 C 
BRANCH  25  26
ATOM     26  O   LIG    1        8.302  -1.240  -1.403  0.00  0.00    -0.350 OA
ATOM     27  C   LIG    1        9.551  -0.920  -2.018  0.00  0.00    +0.200 C 
ENDBRANCH  25  26
ENDBRANCH   1  25
TORSDOF 4
