REMARK  Name = ZINCqH0000008pF5.0
REMARK                            x       y       z     vdW  Elec       q    Type
REMARK                         _______ _______ _______ _____ _____    ______ ____
ROOT
ATOM      1  N   LIG    1        2.838   4.149  -0.002  0.00  0.00    -0.720 N 
ATOM      2  H   LIG    1        3.245   3.269  -0.011  0.00  0.00    +0.390 HD
ATOM      3  C   LIG    1        1.495   4.269   0.011  0.00  0.00    +0.600 C 
ATOM      4  O   LIG    1        0.984   5.373   0.023  0.00  0.00    -0.520 OA
ENDROOT
BRANCH   3   5
ATOM      5  C   LIG    1        0.648   3.065   0.012  0.00  0.00    -0.280 A 
ATOM      6  C   LIG    1        1.075   1.753   0.001  0.00  0.00    +0.300 A 
ATOM      7  N   LIG    1       -0.011   0.966   0.007  0.00  0.00    -0.460 N 
ATOM      8  H   LIG    1        0.002  -0.004   0.002  0.00  0.00    +0.450 HD
ATOM      9  N   LIG    1       -1.165   1.755   0.017  0.00  0.00    -0.270 NA
ATOM     10  C   LIG    1       -0.818   3.022   0.026  0.00  0.00    +0.180 A 
BRANCH  10  11
ATOM     11  C   LIG    1       -1.734   4.188   0.041  0.00  0.00    -0.020 A 
ATOM     12  C   LIG    1       -2.949   4.131  -0.639  0.00  0.00    +0.050 A 
ATOM     13  C   LIG    1       -3.799   5.218  -0.622  0.00  0.00    +0.020 A 
ATOM     14  C   LIG    1       -3.447   6.364   0.069  0.00  0.00    +0.040 A 
ATOM     15  C   LIG    1       -2.242   6.427   0.746  0.00  0.00    -0.040 A 
ATOM     16 CL   LIG    1       -1.808   7.868   1.611  0.00  0.00    -0.070 Cl
ATOM     17  C   LIG    1       -1.386   5.342   0.740  0.00  0.00    +0.110 A 
ENDBRANCH  10  11
ENDBRANCH   3   5
BRANCH   1  19
ATOM     18  C   LIG    1        3.858   5.845  -1.438  0.00  0.00    +0.040 C 
ATOM     19  C   LIG    1        3.681   5.347  -0.003  0.00  0.00    +0.220 C 
BRANCH  19  20
ATOM     20  C   LIG    1        5.049   5.008   0.592  0.00  0.00    +0.270 C 
BRANCH  20  21
ATOM     21  C   LIG    1        4.866   4.403   1.960  0.00  0.00    -0.150 A 
ATOM     22  C   LIG    1        4.829   3.030   2.109  0.00  0.00    +0.040 A 
ATOM     23  C   LIG    1        4.660   2.474   3.364  0.00  0.00    +0.010 A 
ATOM     24  C   LIG    1        4.529   3.292   4.471  0.00  0.00    +0.040 A 
ATOM     25  C   LIG    1        4.567   4.666   4.325  0.00  0.00    -0.010 A 
ATOM     26  C   LIG    1        4.741   5.223   3.069  0.00  0.00    +0.110 A 
ATOM     27  F   LIG    1        4.783   6.566   2.925  0.00  0.00    -0.130 F 
ENDBRANCH  20  21
BRANCH  20  28
ATOM     28  O   LIG    1        5.719   4.073  -0.256  0.00  0.00    -0.540 OA
ATOM     29  H   LIG    1        5.245   3.239  -0.374  0.00  0.00    +0.370 HD
ENDBRANCH  20  28
ENDBRANCH  19  20
ENDBRANCH   1  19
TORSDOF 6
