REMARK  Name = ZINCrH000004mHWx.0
REMARK                            x       y       z     vdW  Elec       q    Type
REMARK                         _______ _______ _______ _____ _____    ______ ____
ROOT
ATOM      1  C   LIG    1        2.797   5.553  -1.443  0.00  0.00    +0.520 C 
ATOM      2  N   LIG    1        2.543   4.296  -1.026  0.00  0.00    -0.640 N 
ATOM      3  H   LIG    1        1.649   3.930  -1.109  0.00  0.00    +0.420 HD
ATOM      4  O   LIG    1        3.916   6.011  -1.340  0.00  0.00    -0.500 OA
ENDROOT
BRANCH   2   5
ATOM      5  C   LIG    1        3.566   3.523  -0.478  0.00  0.00    +0.330 A 
ATOM      6  C   LIG    1        4.860   3.906  -0.303  0.00  0.00    -0.090 A 
ATOM      7  C   LIG    1        5.550   2.837   0.275  0.00  0.00    +0.110 A 
ATOM      8  N   LIG    1        4.711   1.848   0.451  0.00  0.00    -0.280 NA
ATOM      9  C   LIG    1        7.011   2.827   0.642  0.00  0.00    +0.170 C 
ATOM     10  N   LIG    1        3.453   2.246  -0.019  0.00  0.00    -0.340 N 
BRANCH  10  11
ATOM     11  C   LIG    1        2.288   1.474  -0.012  0.00  0.00    +0.370 A 
ATOM     12  C   LIG    1        2.382   0.087  -0.020  0.00  0.00    -0.010 A 
ATOM     13  C   LIG    1        1.221  -0.666  -0.013  0.00  0.00    -0.010 A 
ATOM     14  C   LIG    1        0.002  -0.004   0.002  0.00  0.00    -0.050 A 
ATOM     15  C   LIG    1       -0.017   1.377   0.010  0.00  0.00    +0.310 A 
ATOM     16  C   LIG    1        1.280  -2.172  -0.022  0.00  0.00    +0.120 C 
ATOM     17  N   LIG    1        1.106   2.069   0.003  0.00  0.00    -0.530 NA
ENDBRANCH  10  11
ENDBRANCH   2   5
BRANCH   1  18
ATOM     18  C   LIG    1        1.692   6.388  -2.036  0.00  0.00    +0.000 C 
ATOM     19  C   LIG    1        0.574   6.559  -1.006  0.00  0.00    +0.060 C 
BRANCH  18  20
ATOM     20  C   LIG    1        2.243   7.762  -2.423  0.00  0.00    +0.100 C 
BRANCH  20  24
ATOM     21  C   LIG    1       -0.797  10.006  -4.419  0.00  0.00    +0.130 A 
ATOM     22  C   LIG    1       -0.668  10.085  -3.040  0.00  0.00    -0.020 A 
ATOM     23  C   LIG    1        0.316   9.358  -2.397  0.00  0.00    +0.060 A 
ATOM     24  C   LIG    1        1.171   8.553  -3.127  0.00  0.00    -0.120 A 
ATOM     25  C   LIG    1        1.048   8.477  -4.502  0.00  0.00    +0.050 A 
ATOM     26  C   LIG    1        0.062   9.197  -5.149  0.00  0.00    -0.080 A 
BRANCH  21  28
ATOM     27  C   LIG    1       -1.839  10.589  -6.475  0.00  0.00    +0.250 C 
ATOM     28  O   LIG    1       -1.764  10.719  -5.054  0.00  0.00    -0.320 OA
ENDBRANCH  21  28
ENDBRANCH  20  24
ENDBRANCH  18  20
ENDBRANCH   1  18
TORSDOF 6
