REMARK  Name = ZINCqH0000000eih.0
REMARK                            x       y       z     vdW  Elec       q    Type
REMARK                         _______ _______ _______ _____ _____    ______ ____
ROOT
ATOM      1  N   LIG    1       -1.212   2.235   0.145  0.00  0.00    -0.500 N 
ATOM      2  C   LIG    1       -2.379   1.597  -0.073  0.00  0.00    +0.570 C 
ATOM      3  O   LIG    1       -2.384   0.501  -0.600  0.00  0.00    -0.490 OA
ENDROOT
BRANCH   1   4
ATOM      4  C   LIG    1       -0.017   1.655  -0.264  0.00  0.00    +0.240 A 
ATOM      5  N   LIG    1        1.153   2.182  -0.109  0.00  0.00    -0.500 NA
ATOM      6  C   LIG    1        2.200   1.502  -0.559  0.00  0.00    +0.090 A 
ATOM      7  C   LIG    1        1.867   0.330  -1.127  0.00  0.00    -0.270 A 
ATOM      8  C   LIG    1        2.841  -0.655  -1.728  0.00  0.00    +0.120 C 
ATOM      9  C   LIG    1        4.181   0.057  -1.951  0.00  0.00    +0.020 C 
ATOM     10  C   LIG    1        4.574   0.791  -0.666  0.00  0.00    +0.020 C 
ATOM     11  C   LIG    1        3.639   1.984  -0.455  0.00  0.00    +0.120 C 
ATOM     12  S   LIG    1        0.119   0.144  -1.050  0.00  0.00    +0.240 S 
ENDBRANCH   1   4
BRANCH   2  13
ATOM     13  C   LIG    1       -3.651   2.229   0.327  0.00  0.00    -0.170 A 
ATOM     14  C   LIG    1       -3.776   3.621   0.313  0.00  0.00    +0.150 A 
ATOM     15  C   LIG    1       -4.966   4.207   0.682  0.00  0.00    -0.060 A 
ATOM     16  C   LIG    1       -6.039   3.417   1.078  0.00  0.00    +0.230 A 
ATOM     17  C   LIG    1       -5.917   2.032   1.098  0.00  0.00    -0.090 A 
ATOM     18  C   LIG    1       -4.732   1.438   0.726  0.00  0.00    +0.220 A 
BRANCH  17  19
ATOM     19  N   LIG    1       -7.062   1.195   1.521  0.00  0.00    +0.030 N 
ATOM     20  O   LIG    1       -8.111   1.720   1.850  0.00  0.00    -0.130 OA
ATOM     21  O   LIG    1       -6.956  -0.018   1.538  0.00  0.00    -0.170 OA
ENDBRANCH  17  19
BRANCH  16  22
ATOM     22  O   LIG    1       -7.208   3.999   1.446  0.00  0.00    -0.270 OA
ATOM     23  C   LIG    1       -7.265   5.426   1.402  0.00  0.00    +0.270 C 
ENDBRANCH  16  22
ENDBRANCH   2  13
BRANCH   1  24
ATOM     24  C   LIG    1       -1.202   3.539   0.812  0.00  0.00    +0.320 C 
BRANCH  24  26
ATOM     25  C   LIG    1       -1.348   5.663  -0.382  0.00  0.00    +0.030 C 
ATOM     26  C   LIG    1       -0.655   4.581  -0.129  0.00  0.00    -0.030 C 
ENDBRANCH  24  26
ENDBRANCH   1  24
TORSDOF 6
