REMARK  Name = ZINCrg00000ahR5p.0
REMARK                            x       y       z     vdW  Elec       q    Type
REMARK                         _______ _______ _______ _____ _____    ______ ____
ROOT
ATOM      1  N   LIG    1       -3.026  -2.016   4.329  0.00  0.00    -0.540 NA
ATOM      2  C   LIG    1       -1.647  -1.791   4.781  0.00  0.00    +0.190 C 
ATOM      3  C   LIG    1       -1.662  -1.031   6.110  0.00  0.00    +0.070 C 
ATOM      4  C   LIG    1       -2.435  -1.846   7.149  0.00  0.00    +0.110 C 
ATOM      5  C   LIG    1       -2.508  -1.059   8.462  0.00  0.00    +0.270 C 
ATOM      6  N   LIG    1       -3.086  -1.933   9.496  0.00  0.00    -0.620 N 
ATOM      7  C   LIG    1       -2.507  -3.275   9.669  0.00  0.00    +0.240 C 
ATOM      8  C   LIG    1       -2.439  -3.954   8.297  0.00  0.00    +0.210 C 
ATOM      9  C   LIG    1       -4.115  -1.517  10.260  0.00  0.00    +0.520 C 
ATOM     10  O   LIG    1       -4.579  -0.408  10.101  0.00  0.00    -0.510 OA
ATOM     11  C   LIG    1       -3.851  -2.110   6.634  0.00  0.00    +0.020 C 
ATOM     12  O   LIG    1       -1.768  -3.088   7.377  0.00  0.00    -0.360 OA
ATOM     13  C   LIG    1       -3.773  -2.838   5.290  0.00  0.00    +0.190 C 
ENDROOT
BRANCH   1  14
ATOM     14  C   LIG    1       -3.050  -2.618   2.990  0.00  0.00    +0.360 C 
BRANCH  14  18
ATOM     15  C   LIG    1       -1.215  -0.527   0.721  0.00  0.00    +0.170 A 
ATOM     16  N   LIG    1       -2.433  -0.097   0.584  0.00  0.00    -0.350 NA
ATOM     17  O   LIG    1       -3.184  -0.726   1.299  0.00  0.00    +0.090 OA
ATOM     18  C   LIG    1       -2.493  -1.639   1.989  0.00  0.00    +0.190 A 
ATOM     19  N   LIG    1       -1.238  -1.520   1.628  0.00  0.00    -0.470 NA
BRANCH  15  20
ATOM     20  C   LIG    1        0.002  -0.004   0.002  0.00  0.00    +0.270 C 
ATOM     21  C   LIG    1       -0.005  -0.506  -1.443  0.00  0.00    +0.040 C 
BRANCH  20  22
ATOM     22  O   LIG    1       -0.017   1.425   0.010  0.00  0.00    -0.370 OA
BRANCH  22  24
ATOM     23  C   LIG    1        1.139   3.547   0.010  0.00  0.00    +0.040 C 
ATOM     24  C   LIG    1        1.280   2.024   0.001  0.00  0.00    +0.160 C 
ENDBRANCH  22  24
ENDBRANCH  20  22
ENDBRANCH  15  20
ENDBRANCH  14  18
ENDBRANCH   1  14
BRANCH   9  25
ATOM     25  C   LIG    1       -4.690  -2.431  11.312  0.00  0.00    +0.200 C 
BRANCH  25  26
ATOM     26  O   LIG    1       -5.763  -1.768  11.983  0.00  0.00    -0.370 OA
ATOM     27  C   LIG    1       -6.381  -2.551  13.006  0.00  0.00    +0.220 C 
ENDBRANCH  25  26
ENDBRANCH   9  25
TORSDOF 7
