REMARK  Name = ZINCtj00001yywz7.1
REMARK                            x       y       z     vdW  Elec       q    Type
REMARK                         _______ _______ _______ _____ _____    ______ ____
ROOT
ATOM      1  N   LIG    1       -1.462   2.207  -1.405  0.00  0.00    -0.380 N 
ATOM      2  C   LIG    1       -0.465   1.371  -0.688  0.00  0.00    +0.270 C 
ATOM      3  C   LIG    1       -0.841   1.560   0.805  0.00  0.00    +0.090 C 
ATOM      4  C   LIG    1       -1.274   3.038   0.860  0.00  0.00    +0.260 C 
ATOM      5  C   LIG    1       -2.454   3.209   1.774  0.00  0.00    -0.040 A 
ATOM      6  C   LIG    1       -2.385   3.855   2.961  0.00  0.00    +0.010 A 
ATOM      7  N   LIG    1       -3.629   3.811   3.511  0.00  0.00    -0.440 N 
ATOM      8  C   LIG    1       -4.424   3.141   2.644  0.00  0.00    +0.420 A 
ATOM      9  C   LIG    1       -4.033   4.380   4.799  0.00  0.00    +0.340 C 
ATOM     10  C   LIG    1       -1.138   4.490   3.517  0.00  0.00    +0.140 C 
ATOM     11  C   LIG    1        0.086   3.905   2.801  0.00  0.00    +0.320 C 
ATOM     12  N   LIG    1       -3.709   2.786   1.608  0.00  0.00    -0.480 NA
ATOM     13  N   LIG    1       -0.172   3.869   1.352  0.00  0.00    -0.590 N 
ATOM     14  C   LIG    1        0.587   4.585   0.499  0.00  0.00    +0.600 C 
ATOM     15  O   LIG    1        0.594   4.309  -0.685  0.00  0.00    -0.530 OA
ATOM     16  C   LIG    1       -1.640   3.423  -0.578  0.00  0.00    +0.290 C 
ATOM     17  H   LIG    1       -2.337   1.711  -1.487  0.00  0.00    +0.430 HD
ENDROOT
BRANCH  14  18
ATOM     18  C   LIG    1        1.413   5.707   1.003  0.00  0.00    +0.000 A 
ATOM     19  C   LIG    1        2.332   6.336   0.161  0.00  0.00    +0.110 A 
ATOM     20  C   LIG    1        3.077   7.386   0.682  0.00  0.00    +0.060 A 
ATOM     21  C   LIG    1        2.872   7.737   2.006  0.00  0.00    +0.260 A 
ATOM     22  N   LIG    1        1.984   7.083   2.735  0.00  0.00    -0.240 NA
ATOM     23  N   LIG    1        1.287   6.115   2.261  0.00  0.00    -0.210 NA
ENDBRANCH  14  18
BRANCH   1  24
ATOM     24  C   LIG    1       -0.956   2.569  -2.736  0.00  0.00    +0.420 C 
BRANCH  24  29
ATOM     25  C   LIG    1       -1.819  -1.302  -5.926  0.00  0.00    +0.180 C 
ATOM     26  C   LIG    1       -1.197  -0.336  -4.950  0.00  0.00    +0.020 A 
ATOM     27  N   LIG    1        0.005  -0.394  -4.455  0.00  0.00    -0.330 NA
ATOM     28  O   LIG    1        0.218   0.523  -3.696  0.00  0.00    +0.130 OA
ATOM     29  C   LIG    1       -0.847   1.330  -3.586  0.00  0.00    -0.110 A 
ATOM     30  C   LIG    1       -1.807   0.808  -4.386  0.00  0.00    +0.020 A 
ENDBRANCH  24  29
ENDBRANCH   1  24
TORSDOF 3
