REMARK  Name = ZINCtj00001yywz7.2
REMARK                            x       y       z     vdW  Elec       q    Type
REMARK                         _______ _______ _______ _____ _____    ______ ____
ROOT
ATOM      1  N   LIG    1        3.564   5.850   0.521  0.00  0.00    -0.390 N 
ATOM      2  C   LIG    1        3.120   5.786   1.931  0.00  0.00    +0.230 C 
ATOM      3  C   LIG    1        1.792   5.005   1.951  0.00  0.00    +0.100 C 
ATOM      4  C   LIG    1        1.545   4.603   0.486  0.00  0.00    +0.250 C 
ATOM      5  C   LIG    1        1.008   3.204   0.405  0.00  0.00    -0.030 A 
ATOM      6  C   LIG    1       -0.226   2.912  -0.066  0.00  0.00    +0.010 A 
ATOM      7  N   LIG    1       -0.371   1.560   0.018  0.00  0.00    -0.440 N 
ATOM      8  C   LIG    1        0.776   1.068   0.540  0.00  0.00    +0.420 A 
ATOM      9  C   LIG    1       -1.549   0.784  -0.380  0.00  0.00    +0.340 C 
ATOM     10  C   LIG    1       -1.209   3.922  -0.581  0.00  0.00    +0.120 C 
ATOM     11  C   LIG    1       -0.809   5.334  -0.178  0.00  0.00    +0.330 C 
ATOM     12  N   LIG    1        1.596   2.061   0.764  0.00  0.00    -0.470 NA
ATOM     13  N   LIG    1        0.632   5.531  -0.161  0.00  0.00    -0.570 N 
ATOM     14  C   LIG    1        1.143   6.619  -0.770  0.00  0.00    +0.600 C 
ATOM     15  O   LIG    1        2.313   6.639  -1.098  0.00  0.00    -0.550 OA
ATOM     16  C   LIG    1        2.946   4.679  -0.154  0.00  0.00    +0.320 C 
ATOM     17  H   LIG    1        3.245   6.706   0.094  0.00  0.00    +0.420 HD
ENDROOT
BRANCH  14  18
ATOM     18  C   LIG    1        0.278   7.792  -1.039  0.00  0.00    -0.010 A 
ATOM     19  C   LIG    1        0.761   8.862  -1.796  0.00  0.00    +0.110 A 
ATOM     20  C   LIG    1       -0.090   9.936  -2.019  0.00  0.00    +0.060 A 
ATOM     21  C   LIG    1       -1.364   9.882  -1.479  0.00  0.00    +0.270 A 
ATOM     22  N   LIG    1       -1.740   8.828  -0.774  0.00  0.00    -0.230 NA
ATOM     23  N   LIG    1       -0.963   7.829  -0.566  0.00  0.00    -0.200 NA
ENDBRANCH  14  18
BRANCH   1  24
ATOM     24  C   LIG    1        5.029   5.762   0.446  0.00  0.00    +0.400 C 
BRANCH  24  29
ATOM     25  C   LIG    1        7.042   9.291   3.512  0.00  0.00    +0.180 C 
ATOM     26  C   LIG    1        6.502   8.538   2.324  0.00  0.00    +0.020 A 
ATOM     27  N   LIG    1        6.417   8.972   1.099  0.00  0.00    -0.330 NA
ATOM     28  O   LIG    1        5.939   8.139   0.364  0.00  0.00    +0.130 OA
ATOM     29  C   LIG    1        5.638   7.013   1.025  0.00  0.00    -0.110 A 
ATOM     30  C   LIG    1        5.982   7.223   2.318  0.00  0.00    +0.000 A 
ENDBRANCH  24  29
ENDBRANCH   1  24
TORSDOF 3
