REMARK  Name = ZINCqH0000038VQD.0
REMARK                            x       y       z     vdW  Elec       q    Type
REMARK                         _______ _______ _______ _____ _____    ______ ____
ROOT
ATOM      1  C   LIG    1       -1.290   1.680  -0.005  0.00  0.00    +0.410 C 
ENDROOT
BRANCH   1   2
ATOM      2  C   LIG    1       -2.355   0.808  -0.619  0.00  0.00    -0.110 A 
ATOM      3  C   LIG    1       -2.381  -0.547  -0.346  0.00  0.00    +0.080 A 
ATOM      4  C   LIG    1       -3.360  -1.346  -0.904  0.00  0.00    -0.010 A 
ATOM      5  C   LIG    1       -4.309  -0.791  -1.746  0.00  0.00    +0.110 A 
ATOM      6  C   LIG    1       -4.280   0.565  -2.022  0.00  0.00    -0.010 A 
ATOM      7  F   LIG    1       -5.264  -1.573  -2.296  0.00  0.00    -0.140 F 
ATOM      8  C   LIG    1       -3.303   1.363  -1.458  0.00  0.00    +0.070 A 
ENDBRANCH   1   2
BRANCH   1  14
ATOM      9  C   LIG    1       -2.362   4.401   1.018  0.00  0.00    +0.330 C 
ATOM     10  N   LIG    1       -2.138   3.210   1.841  0.00  0.00    -0.450 N 
ATOM     11  C   LIG    1       -2.365   3.097   3.186  0.00  0.00    +0.130 A 
ATOM     12  C   LIG    1       -2.022   1.843   3.536  0.00  0.00    +0.140 A 
ATOM     13  N   LIG    1       -1.602   1.205   2.433  0.00  0.00    -0.470 NA
ATOM     14  C   LIG    1       -1.672   2.017   1.413  0.00  0.00    +0.190 A 
ENDBRANCH   1  14
BRANCH   1  15
ATOM     15  N   LIG    1       -0.011   0.965  -0.010  0.00  0.00    -0.720 N 
ATOM     16  H   LIG    1        0.002  -0.005  -0.021  0.00  0.00    +0.410 HD
ATOM     17  C   LIG    1        1.147   1.655  -0.004  0.00  0.00    +0.720 C 
ATOM     18  N   LIG    1        2.323   0.998  -0.015  0.00  0.00    -0.680 N 
ATOM     19  H   LIG    1        2.339   0.030   0.056  0.00  0.00    +0.410 HD
ATOM     20  O   LIG    1        1.130   2.871   0.010  0.00  0.00    -0.570 OA
BRANCH  18  21
ATOM     21  C   LIG    1        3.524   1.712  -0.128  0.00  0.00    +0.130 A 
ATOM     22  C   LIG    1        3.535   2.963  -0.727  0.00  0.00    +0.090 A 
ATOM     23  C   LIG    1        4.719   3.668  -0.833  0.00  0.00    +0.010 A 
ATOM     24  C   LIG    1        5.897   3.122  -0.353  0.00  0.00    +0.110 A 
ATOM     25  C   LIG    1        5.891   1.870   0.240  0.00  0.00    -0.020 A 
ATOM     26  F   LIG    1        7.053   3.811  -0.463  0.00  0.00    -0.130 F 
ATOM     27  C   LIG    1        4.708   1.164   0.354  0.00  0.00    +0.100 A 
ATOM     28  F   LIG    1        4.702  -0.057   0.933  0.00  0.00    -0.130 F 
ENDBRANCH  18  21
ENDBRANCH   1  15
TORSDOF 4
