REMARK  Name = ZINCrD0000073ekY.0
REMARK                            x       y       z     vdW  Elec       q    Type
REMARK                         _______ _______ _______ _____ _____    ______ ____
ROOT
ATOM      1  C   LIG    1       -0.666   0.793  -2.272  0.00  0.00    +0.520 C 
ATOM      2  O   LIG    1       -0.053  -0.256  -2.252  0.00  0.00    -0.500 OA
ENDROOT
BRANCH   1   5
ATOM      3  C   LIG    1       -2.704   2.825  -4.684  0.00  0.00    +0.130 A 
ATOM      4  C   LIG    1       -2.060   2.428  -3.529  0.00  0.00    +0.010 A 
ATOM      5  C   LIG    1       -1.354   1.222  -3.504  0.00  0.00    -0.090 A 
ATOM      6  C   LIG    1       -1.297   0.426  -4.651  0.00  0.00    +0.070 A 
ATOM      7  C   LIG    1       -1.948   0.827  -5.805  0.00  0.00    +0.070 A 
ATOM      8  O   LIG    1       -1.883   0.037  -6.912  0.00  0.00    -0.300 OA
ATOM      9  C   LIG    1       -2.852   0.285  -7.936  0.00  0.00    +0.230 C 
ATOM     10  C   LIG    1       -2.919   1.800  -8.178  0.00  0.00    +0.230 C 
ATOM     11  O   LIG    1       -3.299   2.433  -6.951  0.00  0.00    -0.290 OA
ATOM     12  C   LIG    1       -2.652   2.026  -5.826  0.00  0.00    +0.060 A 
BRANCH   3  14
ATOM     13  C   LIG    1       -3.403   4.769  -3.505  0.00  0.00    +0.250 C 
ATOM     14  O   LIG    1       -3.390   3.999  -4.709  0.00  0.00    -0.300 OA
ENDBRANCH   3  14
ENDBRANCH   1   5
BRANCH   1  15
ATOM     15  O   LIG    1       -0.717   1.565  -1.168  0.00  0.00    -0.320 OA
BRANCH  15  16
ATOM     16  C   LIG    1       -0.017   1.080   0.008  0.00  0.00    +0.190 C 
ATOM     17  C   LIG    1        1.422   1.600  -0.006  0.00  0.00    +0.070 C 
BRANCH  16  18
ATOM     18  C   LIG    1       -0.717   1.573   1.248  0.00  0.00    +0.520 C 
ATOM     19  N   LIG    1       -0.302   1.164   2.463  0.00  0.00    -0.670 N 
ATOM     20  H   LIG    1        0.402   0.502   2.538  0.00  0.00    +0.420 HD
ATOM     21  O   LIG    1       -1.654   2.338   1.152  0.00  0.00    -0.490 OA
BRANCH  19  22
ATOM     22  C   LIG    1       -0.888   1.696   3.618  0.00  0.00    +0.150 A 
ATOM     23  C   LIG    1       -0.121   1.898   4.758  0.00  0.00    +0.010 A 
ATOM     24  C   LIG    1       -0.700   2.426   5.894  0.00  0.00    +0.050 A 
ATOM     25  C   LIG    1       -2.047   2.745   5.902  0.00  0.00    -0.050 A 
ATOM     26  C   LIG    1       -2.815   2.540   4.769  0.00  0.00    +0.050 A 
ATOM     27 CL   LIG    1       -2.774   3.404   7.334  0.00  0.00    -0.070 Cl
ATOM     28  C   LIG    1       -2.239   2.016   3.628  0.00  0.00    +0.040 A 
ENDBRANCH  19  22
ENDBRANCH  16  18
ENDBRANCH  15  16
ENDBRANCH   1  15
TORSDOF 6
