REMARK  Name = ZINCAx0000000fRI.0
REMARK                            x       y       z     vdW  Elec       q    Type
REMARK                         _______ _______ _______ _____ _____    ______ ____
ROOT
ATOM      1  C   LIG    1        3.118  -4.814  -5.670  0.00  0.00    -0.260 A 
ATOM      2  C   LIG    1        2.826  -4.325  -6.943  0.00  0.00    +0.280 A 
ATOM      3  C   LIG    1        1.968  -3.230  -7.068  0.00  0.00    -0.340 A 
ATOM      4  C   LIG    1        1.401  -2.632  -5.916  0.00  0.00    +0.490 A 
ATOM      5  N   LIG    1        1.704  -3.124  -4.672  0.00  0.00    -0.450 N 
ATOM      6  N   LIG    1        0.597  -1.590  -6.059  0.00  0.00    -0.570 NA
ATOM      7  C   LIG    1        0.287  -1.087  -7.254  0.00  0.00    +0.450 A 
ATOM      8  C   LIG    1       -0.583   0.017  -7.315  0.00  0.00    +0.030 A 
ATOM      9  C   LIG    1       -0.913   0.549  -8.526  0.00  0.00    +0.160 A 
ATOM     10  C   LIG    1       -0.381  -0.010  -9.696  0.00  0.00    +0.010 A 
ATOM     11  C   LIG    1        0.452  -1.072  -9.620  0.00  0.00    +0.300 A 
ATOM     12  N   LIG    1        0.788  -1.610  -8.414  0.00  0.00    -0.440 N 
ATOM     13  C   LIG    1        1.626  -2.673  -8.378  0.00  0.00    +0.560 A 
ATOM     14  O   LIG    1        2.080  -3.150  -9.402  0.00  0.00    -0.480 OA
ATOM     15  C   LIG    1        2.543  -4.195  -4.532  0.00  0.00    +0.530 A 
ATOM     16  N   LIG    1        2.820  -4.661  -3.317  0.00  0.00    -0.650 NA
ENDROOT
BRANCH   1  17
ATOM     17  C   LIG    1        4.017  -5.964  -5.509  0.00  0.00    +0.530 C 
ATOM     18  O   LIG    1        5.143  -5.800  -5.079  0.00  0.00    -0.490 OA
BRANCH  17  19
ATOM     19  O   LIG    1        3.595  -7.201  -5.838  0.00  0.00    -0.330 OA
BRANCH  19  21
ATOM     20  C   LIG    1        3.939  -9.578  -6.242  0.00  0.00    +0.060 C 
ATOM     21  C   LIG    1        4.559  -8.280  -5.719  0.00  0.00    +0.210 C 
ENDBRANCH  19  21
ENDBRANCH  17  19
ENDBRANCH   1  17
BRANCH  16  22
ATOM     22  C   LIG    1        3.326  -5.890  -3.172  0.00  0.00    +0.550 C 
ATOM     23  O   LIG    1        2.746  -6.848  -3.654  0.00  0.00    -0.500 OA
BRANCH  22  24
ATOM     24  C   LIG    1        4.589  -6.087  -2.425  0.00  0.00    -0.170 A 
ATOM     25  C   LIG    1        5.121  -7.370  -2.254  0.00  0.00    +0.120 A 
ATOM     26  C   LIG    1        6.307  -7.500  -1.552  0.00  0.00    -0.040 A 
ATOM     27  C   LIG    1        6.917  -6.370  -1.039  0.00  0.00    +0.280 A 
ATOM     28  N   LIG    1        6.389  -5.174  -1.211  0.00  0.00    -0.490 NA
ATOM     29  C   LIG    1        5.266  -4.998  -1.876  0.00  0.00    +0.320 A 
ENDBRANCH  22  24
ENDBRANCH  16  22
BRANCH   5  30
ATOM     30  C   LIG    1        1.120  -2.499  -3.483  0.00  0.00    +0.330 C 
BRANCH  30  31
ATOM     31  C   LIG    1        2.045  -1.387  -2.984  0.00  0.00    +0.030 C 
BRANCH  31  32
ATOM     32  C   LIG    1        1.435  -0.735  -1.742  0.00  0.00    +0.170 C 
BRANCH  32  33
ATOM     33  O   LIG    1        2.299   0.303  -1.276  0.00  0.00    -0.380 OA
BRANCH  33  34
ATOM     34  C   LIG    1        1.819   0.981  -0.112  0.00  0.00    +0.140 C 
ATOM     35  C   LIG    1        2.338   0.272   1.141  0.00  0.00    +0.010 C 
ATOM     36  C   LIG    1        2.316   2.427  -0.123  0.00  0.00    +0.040 C 
ENDBRANCH  33  34
ENDBRANCH  32  33
ENDBRANCH  31  32
ENDBRANCH  30  31
ENDBRANCH   5  30
TORSDOF 10
