REMARK  Name = ZINCqH0000004JuX.0
REMARK                            x       y       z     vdW  Elec       q    Type
REMARK                         _______ _______ _______ _____ _____    ______ ____
ROOT
ATOM      1  N   LIG    1        6.027  -2.021  -2.674  0.00  0.00    -0.720 N 
ATOM      2  H   LIG    1        5.599  -1.774  -3.508  0.00  0.00    +0.410 HD
ATOM      3  C   LIG    1        5.445  -1.707  -1.499  0.00  0.00    +0.520 C 
ATOM      4  O   LIG    1        5.980  -2.016  -0.456  0.00  0.00    -0.540 OA
ENDROOT
BRANCH   1   5
ATOM      5  C   LIG    1        7.306  -2.736  -2.689  0.00  0.00    +0.310 C 
BRANCH   5   8
ATOM      6  N   LIG    1        8.892  -3.606  -4.376  0.00  0.00    -0.660 N 
ATOM      7  H   LIG    1        9.485  -3.852  -3.649  0.00  0.00    +0.410 HD
ATOM      8  C   LIG    1        7.737  -2.963  -4.116  0.00  0.00    +0.510 C 
ATOM      9  O   LIG    1        7.044  -2.567  -5.029  0.00  0.00    -0.510 OA
BRANCH   6  15
ATOM     10  C   LIG    1       10.570  -4.086  -6.047  0.00  0.00    -0.110 A 
ATOM     11  C   LIG    1       10.905  -4.402  -7.348  0.00  0.00    +0.030 A 
ATOM     12  C   LIG    1        9.916  -4.540  -8.305  0.00  0.00    -0.010 A 
ATOM     13  C   LIG    1        8.588  -4.368  -7.961  0.00  0.00    +0.030 A 
ATOM     14  C   LIG    1        8.245  -4.059  -6.659  0.00  0.00    +0.010 A 
ATOM     15  C   LIG    1        9.236  -3.920  -5.696  0.00  0.00    +0.150 A 
BRANCH  10  17
ATOM     16  C   LIG    1       11.832  -5.252  -4.259  0.00  0.00    +0.020 C 
ATOM     17  C   LIG    1       11.649  -3.929  -5.006  0.00  0.00    +0.060 C 
ENDBRANCH  10  17
ENDBRANCH   6  15
ENDBRANCH   5   8
ENDBRANCH   1   5
BRANCH   3  18
ATOM     18  C   LIG    1        4.130  -0.972  -1.483  0.00  0.00    +0.060 C 
BRANCH  18  19
ATOM     19  C   LIG    1        3.692  -0.741  -0.035  0.00  0.00    +0.100 C 
BRANCH  19  20
ATOM     20  C   LIG    1        2.377  -0.006  -0.019  0.00  0.00    -0.120 A 
ATOM     21  C   LIG    1        2.359   1.376  -0.002  0.00  0.00    +0.070 A 
ATOM     22  C   LIG    1        1.154   2.052   0.014  0.00  0.00    -0.060 A 
ATOM     23  C   LIG    1       -0.038   1.344   0.012  0.00  0.00    +0.150 A 
ATOM     24  C   LIG    1       -0.018  -0.044  -0.006  0.00  0.00    -0.120 A 
ATOM     25 BR   LIG    1       -1.641  -1.014  -0.009  0.00  0.00    -0.040 Br
ATOM     26  C   LIG    1        1.190  -0.716  -0.021  0.00  0.00    +0.090 A 
BRANCH  23  27
ATOM     27  O   LIG    1       -1.224   2.007   0.021  0.00  0.00    -0.300 OA
ATOM     28  C   LIG    1       -1.169   3.435   0.039  0.00  0.00    +0.240 C 
ENDBRANCH  23  27
ENDBRANCH  19  20
ENDBRANCH  18  19
ENDBRANCH   3  18
TORSDOF 8
