REMARK  Name = ZINCpe00000FUkdh.0
REMARK                            x       y       z     vdW  Elec       q    Type
REMARK                         _______ _______ _______ _____ _____    ______ ____
ROOT
ATOM      1  S   LIG    1        5.198   4.166  -0.025  0.00  0.00    +2.700 S 
ATOM      2  O   LIG    1        4.968   5.462  -0.561  0.00  0.00    -0.940 OA
ATOM      3  O   LIG    1        6.127   3.248  -0.584  0.00  0.00    -0.940 OA
ENDROOT
BRANCH   1   7
ATOM      4  C   LIG    1        1.186   2.059   0.002  0.00  0.00    +0.160 A 
ATOM      5  C   LIG    1        2.359   1.321  -0.008  0.00  0.00    -0.040 A 
ATOM      6  C   LIG    1        3.581   1.968  -0.022  0.00  0.00    +0.140 A 
ATOM      7  C   LIG    1        3.637   3.349  -0.015  0.00  0.00    -0.680 A 
ATOM      8  C   LIG    1        2.470   4.090   0.000  0.00  0.00    +0.070 A 
ATOM      9  C   LIG    1        1.242   3.449   0.009  0.00  0.00    +0.080 A 
BRANCH   4  11
ATOM     10  C   LIG    1        0.002  -0.004   0.002  0.00  0.00    +0.250 C 
ATOM     11  O   LIG    1       -0.017   1.425   0.010  0.00  0.00    -0.300 OA
ENDBRANCH   4  11
BRANCH   9  12
ATOM     12  O   LIG    1        0.093   4.177   0.024  0.00  0.00    -0.300 OA
ATOM     13  C   LIG    1        0.227   5.600   0.030  0.00  0.00    +0.250 C 
ENDBRANCH   9  12
ENDBRANCH   1   7
BRANCH   1  14
ATOM     14  N   LIG    1        5.647   4.385   1.553  0.00  0.00    -1.000 NA
ATOM     15  C   LIG    1        5.330   5.562   2.382  0.00  0.00    +0.270 C 
ATOM     16  C   LIG    1        5.394   5.045   3.843  0.00  0.00    +0.190 C 
ATOM     17  C   LIG    1        6.583   4.052   3.768  0.00  0.00    +0.100 C 
ATOM     18  C   LIG    1        6.434   3.439   2.359  0.00  0.00    +0.380 C 
BRANCH  18  19
ATOM     19  C   LIG    1        7.793   3.244   1.738  0.00  0.00    +0.160 A 
ATOM     20  N   LIG    1        8.414   2.103   1.562  0.00  0.00    -0.460 NA
ATOM     21  C   LIG    1        9.584   2.414   0.977  0.00  0.00    +0.170 A 
ATOM     22  N   LIG    1        9.617   3.705   0.836  0.00  0.00    -0.380 NA
ATOM     23  C   LIG    1       10.661   1.444   0.564  0.00  0.00    +0.210 C 
ATOM     24  O   LIG    1        8.598   4.201   1.267  0.00  0.00    +0.080 OA
ENDBRANCH  18  19
BRANCH  16  25
ATOM     25  O   LIG    1        4.187   4.372   4.206  0.00  0.00    -0.550 OA
ATOM     26  H   LIG    1        3.415   4.952   4.266  0.00  0.00    +0.380 HD
ENDBRANCH  16  25
ENDBRANCH   1  14
TORSDOF 6
