REMARK  Name = ZINCpk00000k2A4s.0
REMARK                            x       y       z     vdW  Elec       q    Type
REMARK                         _______ _______ _______ _____ _____    ______ ____
ROOT
ATOM      1  C   LIG    1        4.660  -2.893  -2.418  0.00  0.00    +0.280 C 
ATOM      2  C   LIG    1        4.398  -1.966  -3.607  0.00  0.00    +0.110 C 
ENDROOT
BRANCH   1   5
ATOM      3  C   LIG    1        4.760  -6.088  -4.051  0.00  0.00    -0.020 A 
ATOM      4  C   LIG    1        4.265  -4.831  -3.963  0.00  0.00    +0.200 A 
ATOM      5  N   LIG    1        4.879  -4.258  -2.902  0.00  0.00    -0.280 N 
ATOM      6  N   LIG    1        5.693  -5.117  -2.394  0.00  0.00    -0.080 NA
ATOM      7  N   LIG    1        5.641  -6.220  -3.054  0.00  0.00    -0.240 NA
BRANCH   3   8
ATOM      8  C   LIG    1        4.391  -7.133  -5.073  0.00  0.00    +0.040 C 
ATOM      9  C   LIG    1        3.012  -7.706  -4.741  0.00  0.00    +0.080 C 
ATOM     10  C   LIG    1        5.429  -8.256  -5.051  0.00  0.00    +0.080 C 
BRANCH   8  11
ATOM     11  C   LIG    1        4.358  -6.506  -6.443  0.00  0.00    +0.470 C 
ATOM     12  O   LIG    1        4.608  -5.331  -6.576  0.00  0.00    -0.500 OA
BRANCH  11  14
ATOM     13  C   LIG    1        4.037  -6.582  -8.803  0.00  0.00    +0.250 C 
ATOM     14  O   LIG    1        4.050  -7.252  -7.515  0.00  0.00    -0.350 OA
ENDBRANCH  11  14
ENDBRANCH   8  11
ENDBRANCH   3   8
ENDBRANCH   1   5
BRANCH   1  15
ATOM     15  C   LIG    1        3.471  -2.872  -1.493  0.00  0.00    +0.510 C 
ATOM     16  N   LIG    1        3.080  -1.715  -0.924  0.00  0.00    -0.720 N 
ATOM     17  H   LIG    1        3.564  -0.895  -1.110  0.00  0.00    +0.410 HD
ATOM     18  O   LIG    1        2.865  -3.897  -1.261  0.00  0.00    -0.510 OA
BRANCH  16  19
ATOM     19  C   LIG    1        1.923  -1.695  -0.025  0.00  0.00    +0.350 C 
ATOM     20  C   LIG    1        2.370  -2.069   1.389  0.00  0.00    +0.060 C 
BRANCH  19  21
ATOM     21  C   LIG    1        1.321  -0.314  -0.012  0.00  0.00    -0.050 A 
ATOM     22  C   LIG    1        0.002  -0.004   0.002  0.00  0.00    -0.030 A 
ATOM     23  C   LIG    1       -0.017   1.410   0.010  0.00  0.00    +0.020 A 
ATOM     24  N   LIG    1        1.227   1.794   0.000  0.00  0.00    -0.360 NA
ATOM     25  C   LIG    1       -1.236   2.296   0.021  0.00  0.00    +0.160 C 
ATOM     26  O   LIG    1        1.984   0.851  -0.012  0.00  0.00    +0.100 OA
ENDBRANCH  19  21
ENDBRANCH  16  19
ENDBRANCH   1  15
TORSDOF 7
