REMARK  Name = ZINCqH0000050xGQ.0
REMARK                            x       y       z     vdW  Elec       q    Type
REMARK                         _______ _______ _______ _____ _____    ______ ____
ROOT
ATOM      1  C   LIG    1        0.534   3.530   2.099  0.00  0.00    +0.540 C 
ATOM      2  N   LIG    1       -0.526   3.000   1.458  0.00  0.00    -0.560 N 
ATOM      3  C   LIG    1       -0.659   1.542   1.289  0.00  0.00    +0.300 C 
ATOM      4  C   LIG    1       -0.013   1.086   0.008  0.00  0.00    +0.030 C 
ATOM      5  C   LIG    1       -0.690   1.561  -1.268  0.00  0.00    +0.030 C 
ATOM      6  S   LIG    1       -0.417   3.341  -1.498  0.00  0.00    -0.150 S 
ATOM      7  C   LIG    1       -1.654   4.043  -0.431  0.00  0.00    -0.100 A 
ATOM      8  C   LIG    1       -2.693   4.788  -0.949  0.00  0.00    +0.080 A 
ATOM      9  C   LIG    1       -3.622   5.346  -0.085  0.00  0.00    +0.030 A 
ATOM     10  C   LIG    1       -3.492   5.159   1.279  0.00  0.00    +0.040 A 
ATOM     11  C   LIG    1       -2.456   4.403   1.794  0.00  0.00    +0.010 A 
ATOM     12  C   LIG    1       -0.111   0.800  -2.462  0.00  0.00    +0.080 C 
ATOM     13  C   LIG    1       -1.531   3.819   0.935  0.00  0.00    +0.140 A 
ATOM     14  O   LIG    1        1.397   2.805   2.547  0.00  0.00    -0.500 OA
ENDROOT
BRANCH   1  15
ATOM     15  C   LIG    1        0.647   5.024   2.260  0.00  0.00    +0.260 C 
BRANCH  15  16
ATOM     16  O   LIG    1        1.867   5.343   2.980  0.00  0.00    -0.330 OA
BRANCH  16  17
ATOM     17  C   LIG    1        2.120   6.647   3.209  0.00  0.00    +0.510 C 
ATOM     18  O   LIG    1        1.342   7.494   2.817  0.00  0.00    -0.490 OA
BRANCH  17  24
ATOM     19  C   LIG    1        5.051  10.217   5.119  0.00  0.00    +0.110 C 
ATOM     20  C   LIG    1        4.758   8.763   4.857  0.00  0.00    -0.130 A 
ATOM     21  C   LIG    1        5.636   7.793   5.298  0.00  0.00    +0.070 A 
ATOM     22  C   LIG    1        5.376   6.452   5.063  0.00  0.00    +0.000 A 
ATOM     23  C   LIG    1        4.235   6.073   4.390  0.00  0.00    +0.090 A 
ATOM     24  C   LIG    1        3.340   7.045   3.933  0.00  0.00    -0.150 A 
ATOM     25  C   LIG    1        3.607   8.400   4.174  0.00  0.00    +0.170 A 
BRANCH  25  26
ATOM     26  O   LIG    1        2.744   9.352   3.739  0.00  0.00    -0.480 OA
ATOM     27  H   LIG    1        2.054   9.579   4.378  0.00  0.00    +0.400 HD
ENDBRANCH  25  26
ENDBRANCH  17  24
ENDBRANCH  16  17
ENDBRANCH  15  16
ENDBRANCH   1  15
TORSDOF 5
