REMARK  Name = ZINCpe00000MHprx.1
REMARK                            x       y       z     vdW  Elec       q    Type
REMARK                         _______ _______ _______ _____ _____    ______ ____
ROOT
ATOM      1  C   LIG    1       -0.535   3.072   1.146  0.00  0.00    +0.530 C 
ATOM      2  N   LIG    1       -1.184   3.760   0.185  0.00  0.00    -0.610 N 
ATOM      3  C   LIG    1       -2.092   3.079  -0.752  0.00  0.00    +0.250 C 
ATOM      4  C   LIG    1       -3.425   3.836  -0.770  0.00  0.00    +0.240 C 
ATOM      5  O   LIG    1       -3.176   5.221  -1.021  0.00  0.00    -0.380 OA
ATOM      6  C   LIG    1       -2.393   5.866  -0.014  0.00  0.00    +0.140 C 
ATOM      7  C   LIG    1       -1.011   5.214   0.047  0.00  0.00    +0.290 C 
ATOM      8  O   LIG    1        0.208   3.651   1.909  0.00  0.00    -0.500 OA
ENDROOT
BRANCH   1  10
ATOM      9  C   LIG    1       -0.188   0.889   0.022  0.00  0.00    +0.060 C 
ATOM     10  C   LIG    1       -0.734   1.583   1.272  0.00  0.00    +0.170 C 
BRANCH  10  11
ATOM     11  O   LIG    1       -0.038   1.106   2.425  0.00  0.00    -0.280 OA
BRANCH  11  12
ATOM     12  C   LIG    1       -0.493  -0.044   2.987  0.00  0.00    +0.160 A 
ATOM     13  C   LIG    1        0.064  -0.506   4.171  0.00  0.00    -0.020 A 
ATOM     14  C   LIG    1       -0.400  -1.675   4.743  0.00  0.00    +0.090 A 
ATOM     15  C   LIG    1       -1.418  -2.386   4.137  0.00  0.00    -0.050 A 
ATOM     16  C   LIG    1       -1.976  -1.929   2.954  0.00  0.00    +0.140 A 
ATOM     17  F   LIG    1       -2.971  -2.625   2.363  0.00  0.00    -0.130 F 
ATOM     18  C   LIG    1       -1.518  -0.756   2.382  0.00  0.00    -0.110 A 
ENDBRANCH  11  12
ENDBRANCH  10  11
ENDBRANCH   1  10
BRANCH   6  19
ATOM     19  C   LIG    1       -2.246   7.351  -0.354  0.00  0.00    +0.280 C 
BRANCH  19  20
ATOM     20  N   LIG    1       -3.563   7.999  -0.296  0.00  0.00    -0.360 N 
ATOM     21  C   LIG    1       -4.066   7.965   1.084  0.00  0.00    +0.310 C 
ATOM     22  H   LIG    1       -4.205   7.510  -0.901  0.00  0.00    +0.430 HD
BRANCH  20  23
ATOM     23  C   LIG    1       -3.441   9.395  -0.738  0.00  0.00    +0.160 C 
BRANCH  23  24
ATOM     24  C   LIG    1       -4.809  10.024  -0.796  0.00  0.00    +0.490 C 
ATOM     25  O   LIG    1       -4.931  11.187  -1.143  0.00  0.00    -0.640 OA
ATOM     26  O   LIG    1       -5.794   9.370  -0.497  0.00  0.00    -0.670 OA
ENDBRANCH  23  24
ENDBRANCH  20  23
ENDBRANCH  19  20
ENDBRANCH   6  19
TORSDOF 7
