REMARK  Name = ZINCpe00000MHprx.0
REMARK                            x       y       z     vdW  Elec       q    Type
REMARK                         _______ _______ _______ _____ _____    ______ ____
ROOT
ATOM      1  C   LIG    1       -0.661   2.989   1.036  0.00  0.00    +0.530 C 
ATOM      2  N   LIG    1       -1.443   3.585   0.114  0.00  0.00    -0.610 N 
ATOM      3  C   LIG    1       -2.424   2.810  -0.662  0.00  0.00    +0.250 C 
ATOM      4  C   LIG    1       -3.780   3.527  -0.571  0.00  0.00    +0.240 C 
ATOM      5  O   LIG    1       -3.613   4.896  -0.947  0.00  0.00    -0.380 OA
ATOM      6  C   LIG    1       -2.742   5.636  -0.089  0.00  0.00    +0.140 C 
ATOM      7  C   LIG    1       -1.336   5.028  -0.150  0.00  0.00    +0.290 C 
ATOM      8  O   LIG    1        0.145   3.644   1.663  0.00  0.00    -0.500 OA
ENDROOT
BRANCH   1  10
ATOM      9  C   LIG    1       -0.368   0.739   0.037  0.00  0.00    +0.050 C 
ATOM     10  C   LIG    1       -0.788   1.509   1.290  0.00  0.00    +0.170 C 
BRANCH  10  11
ATOM     11  O   LIG    1        0.055   1.138   2.382  0.00  0.00    -0.280 OA
BRANCH  11  12
ATOM     12  C   LIG    1       -0.281   0.013   3.066  0.00  0.00    +0.160 A 
ATOM     13  C   LIG    1        0.448  -0.363   4.186  0.00  0.00    -0.020 A 
ATOM     14  C   LIG    1        0.105  -1.507   4.881  0.00  0.00    +0.090 A 
ATOM     15  C   LIG    1       -0.963  -2.278   4.462  0.00  0.00    -0.050 A 
ATOM     16  C   LIG    1       -1.692  -1.906   3.345  0.00  0.00    +0.140 A 
ATOM     17  F   LIG    1       -2.736  -2.661   2.938  0.00  0.00    -0.130 F 
ATOM     18  C   LIG    1       -1.356  -0.759   2.650  0.00  0.00    -0.110 A 
ENDBRANCH  11  12
ENDBRANCH  10  11
ENDBRANCH   1  10
BRANCH   6  19
ATOM     19  C   LIG    1       -2.689   7.095  -0.548  0.00  0.00    +0.280 C 
BRANCH  19  20
ATOM     20  N   LIG    1       -4.015   7.706  -0.391  0.00  0.00    -0.360 N 
ATOM     21  C   LIG    1       -4.005   9.055  -0.974  0.00  0.00    +0.320 C 
ATOM     22  H   LIG    1       -4.704   7.141  -0.865  0.00  0.00    +0.430 HD
BRANCH  20  23
ATOM     23  C   LIG    1       -4.349   7.792   1.037  0.00  0.00    +0.150 C 
BRANCH  23  24
ATOM     24  C   LIG    1       -5.758   8.305   1.193  0.00  0.00    +0.490 C 
ATOM     25  O   LIG    1       -6.234   8.451   2.306  0.00  0.00    -0.640 OA
ATOM     26  O   LIG    1       -6.422   8.574   0.206  0.00  0.00    -0.670 OA
ENDBRANCH  23  24
ENDBRANCH  20  23
ENDBRANCH  19  20
ENDBRANCH   6  19
TORSDOF 7
