REMARK  Name = ZINCrD00000F5Lqb.0
REMARK                            x       y       z     vdW  Elec       q    Type
REMARK                         _______ _______ _______ _____ _____    ______ ____
ROOT
ATOM      1  C   LIG    1       -7.624  -0.394   0.239  0.00  0.00    +0.510 C 
ATOM      2  O   LIG    1       -7.474  -1.595   0.117  0.00  0.00    -0.500 OA
ENDROOT
BRANCH   1   3
ATOM      3  C   LIG    1       -8.975   0.181   0.233  0.00  0.00    +0.070 C 
ATOM      4  C   LIG    1      -10.045  -0.607  -0.023  0.00  0.00    +0.140 C 
BRANCH   4   5
ATOM      5  C   LIG    1      -11.407  -0.076   0.146  0.00  0.00    -0.080 A 
ATOM      6  C   LIG    1      -11.629   1.048   0.949  0.00  0.00    +0.030 A 
ATOM      7  C   LIG    1      -12.907   1.543   1.097  0.00  0.00    +0.010 A 
ATOM      8  C   LIG    1      -13.970   0.924   0.464  0.00  0.00    +0.030 A 
ATOM      9  C   LIG    1      -13.760  -0.192  -0.327  0.00  0.00    +0.010 A 
ATOM     10  C   LIG    1      -12.487  -0.696  -0.491  0.00  0.00    +0.040 A 
ENDBRANCH   4   5
BRANCH   3  13
ATOM     11  C   LIG    1       -8.974   3.522   1.967  0.00  0.00    +0.110 C 
ATOM     12  C   LIG    1       -8.680   2.082   1.633  0.00  0.00    +0.510 C 
ATOM     13  N   LIG    1       -9.156   1.544   0.493  0.00  0.00    -0.670 N 
ATOM     14  H   LIG    1       -9.624   2.102  -0.148  0.00  0.00    +0.420 HD
ATOM     15  O   LIG    1       -8.015   1.407   2.391  0.00  0.00    -0.510 OA
ENDBRANCH   3  13
ENDBRANCH   1   3
BRANCH   1  16
ATOM     16  O   LIG    1       -6.550   0.409   0.380  0.00  0.00    -0.320 OA
BRANCH  16  17
ATOM     17  C   LIG    1       -5.245  -0.229   0.377  0.00  0.00    +0.250 C 
BRANCH  17  18
ATOM     18  C   LIG    1       -4.174   0.818   0.544  0.00  0.00    +0.440 C 
ATOM     19  O   LIG    1       -4.480   1.987   0.654  0.00  0.00    -0.400 OA
BRANCH  18  20
ATOM     20  C   LIG    1       -2.809   0.437   0.571  0.00  0.00    -0.070 A 
ATOM     21  C   LIG    1       -1.757   1.288   0.728  0.00  0.00    +0.090 A 
ATOM     22  C   LIG    1       -0.581   0.498   0.695  0.00  0.00    -0.150 A 
ATOM     23  C   LIG    1        0.784   0.790   0.789  0.00  0.00    +0.080 A 
ATOM     24  C   LIG    1        1.700  -0.221   0.721  0.00  0.00    +0.000 A 
ATOM     25  C   LIG    1        1.288  -1.536   0.559  0.00  0.00    +0.070 A 
ATOM     26  C   LIG    1       -0.052  -1.846   0.464  0.00  0.00    +0.030 A 
ATOM     27  C   LIG    1       -1.002  -0.835   0.525  0.00  0.00    +0.080 A 
ATOM     28  O   LIG    1       -2.349  -0.829   0.458  0.00  0.00    -0.170 OA
ENDBRANCH  18  20
ENDBRANCH  17  18
ENDBRANCH  16  17
ENDBRANCH   1  16
TORSDOF 7
