REMARK  Name = ZINCkj00000dDEPc.1
REMARK                            x       y       z     vdW  Elec       q    Type
REMARK                         _______ _______ _______ _____ _____    ______ ____
ROOT
ATOM      1  C   LIG    1       -4.162   2.035  -0.626  0.00  0.00    +0.120 C 
ATOM      2  C   LIG    1       -3.116   2.888  -1.347  0.00  0.00    +0.190 C 
ENDROOT
BRANCH   2   3
ATOM      3  C   LIG    1       -3.563   3.138  -2.765  0.00  0.00    +0.520 C 
ATOM      4  N   LIG    1       -4.725   3.778  -3.002  0.00  0.00    -0.670 N 
ATOM      5  H   LIG    1       -5.274   4.078  -2.261  0.00  0.00    +0.420 HD
ATOM      6  C   LIG    1       -5.125   4.002  -4.270  0.00  0.00    +0.700 C 
ATOM      7  N   LIG    1       -6.287   4.642  -4.507  0.00  0.00    -0.700 N 
ATOM      8  H   LIG    1       -6.835   4.942  -3.765  0.00  0.00    +0.400 HD
ATOM      9  O   LIG    1       -4.437   3.626  -5.199  0.00  0.00    -0.510 OA
ATOM     10  O   LIG    1       -2.877   2.763  -3.692  0.00  0.00    -0.450 OA
BRANCH   7  11
ATOM     11  C   LIG    1       -6.721   4.885  -5.885  0.00  0.00    +0.220 C 
ATOM     12  C   LIG    1       -7.286   6.268  -6.214  0.00  0.00    +0.020 C 
ATOM     13  C   LIG    1       -8.221   5.059  -6.133  0.00  0.00    +0.030 C 
ENDBRANCH   7  11
ENDBRANCH   2   3
BRANCH   2  14
ATOM     14  N   LIG    1       -1.830   2.179  -1.357  0.00  0.00    -0.500 N 
ATOM     15  H   LIG    1       -1.953   1.264  -1.764  0.00  0.00    +0.440 HD
ATOM     16  H   LIG    1       -1.162   2.703  -1.903  0.00  0.00    +0.440 HD
BRANCH  14  17
ATOM     17  C   LIG    1       -1.336   2.042   0.019  0.00  0.00    +0.360 C 
BRANCH  17  18
ATOM     18  C   LIG    1       -0.016   1.315   0.009  0.00  0.00    +0.060 A 
ATOM     19  C   LIG    1        1.161   2.038   0.002  0.00  0.00    +0.020 A 
ATOM     20  C   LIG    1        2.371   1.360  -0.014  0.00  0.00    +0.100 A 
ATOM     21  C   LIG    1        2.352  -0.026  -0.021  0.00  0.00    +0.060 A 
ATOM     22  C   LIG    1        1.134  -0.682  -0.012  0.00  0.00    +0.130 A 
ATOM     23 BR   LIG    1        1.091  -2.573  -0.022  0.00  0.00    +0.030 Br
ATOM     24  N   LIG    1        0.002  -0.004   0.002  0.00  0.00    -0.440 NA
ENDBRANCH  17  18
ENDBRANCH  14  17
ENDBRANCH   2  14
TORSDOF 5
