REMARK  Name = ZINCvU0000000Hcx.0
REMARK                            x       y       z     vdW  Elec       q    Type
REMARK                         _______ _______ _______ _____ _____    ______ ____
ROOT
ATOM      1  C   LIG    1        0.982  -1.875  -0.697  0.00  0.00    +0.140 C 
ATOM      2  C   LIG    1        1.112  -2.052   0.837  0.00  0.00    +0.100 C 
ATOM      3  C   LIG    1        2.430  -2.849   1.039  0.00  0.00    +0.180 C 
ATOM      4  C   LIG    1        2.607  -3.528  -0.329  0.00  0.00    +0.220 C 
ATOM      5  C   LIG    1        4.023  -3.906  -0.645  0.00  0.00    -0.030 C 
ATOM      6  C   LIG    1        4.339  -4.009  -1.948  0.00  0.00    +0.070 C 
ATOM      7  C   LIG    1        3.268  -3.745  -2.938  0.00  0.00    -0.100 A 
ATOM      8  C   LIG    1        3.314  -4.274  -4.221  0.00  0.00    +0.060 A 
ATOM      9  C   LIG    1        2.296  -3.996  -5.113  0.00  0.00    -0.020 A 
ATOM     10  C   LIG    1        1.233  -3.194  -4.736  0.00  0.00    +0.050 A 
ATOM     11  C   LIG    1        1.173  -2.662  -3.460  0.00  0.00    -0.050 A 
ATOM     12  C   LIG    1        2.179  -2.931  -2.553  0.00  0.00    +0.150 A 
ATOM     13  N   LIG    1        2.195  -2.451  -1.268  0.00  0.00    -0.470 N 
ENDROOT
BRANCH   2  14
ATOM     14  C   LIG    1        1.203  -0.708   1.513  0.00  0.00    -0.120 A 
ATOM     15  C   LIG    1        0.317  -0.381   2.523  0.00  0.00    +0.050 A 
ATOM     16  C   LIG    1        0.401   0.851   3.143  0.00  0.00    +0.030 A 
ATOM     17  C   LIG    1        1.371   1.757   2.754  0.00  0.00    -0.020 A 
ATOM     18  C   LIG    1        2.257   1.429   1.744  0.00  0.00    +0.050 A 
ATOM     19 CL   LIG    1        1.476   3.305   3.533  0.00  0.00    -0.060 Cl
ATOM     20  C   LIG    1        2.173   0.197   1.123  0.00  0.00    +0.050 A 
ENDBRANCH   2  14
BRANCH   3  21
ATOM     21  N   LIG    1        3.549  -1.947   1.324  0.00  0.00    -0.010 N 
ATOM     22  O   LIG    1        4.212  -1.492   0.409  0.00  0.00    -0.120 OA
ATOM     23  O   LIG    1        3.816  -1.652   2.475  0.00  0.00    -0.160 OA
ENDBRANCH   3  21
BRANCH   1  25
ATOM     24  O   LIG    1        1.854   0.170  -1.488  0.00  0.00    -0.400 OA
ATOM     25  C   LIG    1        0.887  -0.412  -1.046  0.00  0.00    +0.400 C 
BRANCH  25  26
ATOM     26  C   LIG    1       -0.380   0.310  -0.849  0.00  0.00    -0.160 A 
ATOM     27  C   LIG    1       -1.500  -0.359  -0.345  0.00  0.00    +0.040 A 
ATOM     28  C   LIG    1       -2.682   0.326  -0.159  0.00  0.00    +0.000 A 
ATOM     29  C   LIG    1       -2.765   1.670  -0.480  0.00  0.00    +0.040 A 
ATOM     30  C   LIG    1       -1.663   2.338  -0.985  0.00  0.00    +0.000 A 
ATOM     31  C   LIG    1       -0.472   1.668  -1.172  0.00  0.00    +0.070 A 
ENDBRANCH  25  26
ENDBRANCH   1  25
TORSDOF 4
