REMARK  Name = ZINCpe000000SUQ3.0
REMARK                            x       y       z     vdW  Elec       q    Type
REMARK                         _______ _______ _______ _____ _____    ______ ____
ROOT
ATOM      1  C   LIG    1        0.983  -2.552  -0.505  0.00  0.00    +0.520 C 
ATOM      2  N   LIG    1        2.294  -2.845  -0.401  0.00  0.00    -0.640 N 
ATOM      3  H   LIG    1        2.910  -2.570  -1.098  0.00  0.00    +0.410 HD
ATOM      4  O   LIG    1        0.213  -2.897   0.367  0.00  0.00    -0.510 OA
ENDROOT
BRANCH   1   7
ATOM      5  C   LIG    1        0.018   0.080  -0.134  0.00  0.00    +0.220 C 
ATOM      6  C   LIG    1        0.648  -0.289  -1.478  0.00  0.00    +0.060 C 
ATOM      7  C   LIG    1        0.473  -1.796  -1.705  0.00  0.00    +0.000 C 
ATOM      8  C   LIG    1       -1.017  -2.085  -1.901  0.00  0.00    +0.100 C 
ATOM      9  C   LIG    1       -1.814  -1.424  -0.814  0.00  0.00    +0.540 C 
ATOM     10  O   LIG    1       -2.950  -1.804  -0.623  0.00  0.00    -0.560 OA
ATOM     11  N   LIG    1       -1.340  -0.442  -0.051  0.00  0.00    -0.710 N 
ATOM     12  H   LIG    1       -1.938  -0.050   0.604  0.00  0.00    +0.400 HD
BRANCH   5  13
ATOM     13  C   LIG    1       -0.015   1.603   0.007  0.00  0.00    +0.010 C 
BRANCH  13  15
ATOM     14  C   LIG    1        1.383   3.674   0.028  0.00  0.00    +0.030 C 
ATOM     15  C   LIG    1        1.415   2.144   0.039  0.00  0.00    -0.020 C 
ATOM     16  C   LIG    1        2.116   1.658   1.309  0.00  0.00    +0.030 C 
ENDBRANCH  13  15
ENDBRANCH   5  13
ENDBRANCH   1   7
BRANCH   2  17
ATOM     17  C   LIG    1        2.770  -3.552   0.720  0.00  0.00    +0.000 A 
ATOM     18  C   LIG    1        4.059  -3.911   0.950  0.00  0.00    +0.200 A 
ATOM     19  N   LIG    1        4.095  -4.574   2.134  0.00  0.00    -0.360 N 
ATOM     20  N   LIG    1        2.789  -4.620   2.641  0.00  0.00    -0.280 NA
ATOM     21  C   LIG    1        1.999  -4.005   1.800  0.00  0.00    +0.270 A 
BRANCH  19  22
ATOM     22  C   LIG    1        5.287  -5.141   2.770  0.00  0.00    +0.280 C 
ATOM     23  C   LIG    1        5.574  -6.556   2.218  0.00  0.00    +0.060 C 
ATOM     24  C   LIG    1        7.118  -6.574   2.184  0.00  0.00    +0.270 C 
ATOM     25  N   LIG    1        7.523  -5.168   2.069  0.00  0.00    -0.720 N 
ATOM     26  H   LIG    1        8.405  -4.873   1.792  0.00  0.00    +0.420 HD
ATOM     27  C   LIG    1        6.516  -4.341   2.398  0.00  0.00    +0.510 C 
ATOM     28  O   LIG    1        6.582  -3.130   2.396  0.00  0.00    -0.510 OA
ENDBRANCH  19  22
ENDBRANCH   2  17
TORSDOF 5
