REMARK  Name = ZINCkj000005eWuc.0
REMARK                            x       y       z     vdW  Elec       q    Type
REMARK                         _______ _______ _______ _____ _____    ______ ____
ROOT
ATOM      1  N   LIG    1        1.961  -2.308  -1.413  0.00  0.00    -0.390 N 
ATOM      2  C   LIG    1        0.634  -2.375  -2.067  0.00  0.00    +0.260 C 
ATOM      3  C   LIG    1        0.659  -3.594  -3.014  0.00  0.00    +0.090 C 
ATOM      4  C   LIG    1        2.039  -4.220  -2.805  0.00  0.00    -0.100 C 
ATOM      5  C   LIG    1        3.015  -3.864  -3.927  0.00  0.00    +0.280 C 
ATOM      6  N   LIG    1        3.854  -5.060  -4.100  0.00  0.00    -0.740 N 
ATOM      7  H   LIG    1        4.696  -5.073  -4.581  0.00  0.00    +0.420 HD
ATOM      8  C   LIG    1        3.302  -6.135  -3.507  0.00  0.00    +0.510 C 
ATOM      9  O   LIG    1        3.782  -7.249  -3.502  0.00  0.00    -0.510 OA
ATOM     10  C   LIG    1        1.993  -5.750  -2.844  0.00  0.00    +0.110 C 
ATOM     11  C   LIG    1        2.506  -3.693  -1.443  0.00  0.00    +0.290 C 
ATOM     12  H   LIG    1        2.568  -1.684  -1.924  0.00  0.00    +0.420 HD
ENDROOT
BRANCH   1  13
ATOM     13  C   LIG    1        1.817  -1.851  -0.025  0.00  0.00    +0.360 C 
BRANCH  13  16
ATOM     14  N   LIG    1        1.309   1.760  -0.001  0.00  0.00    -0.340 N 
ATOM     15  C   LIG    1        2.119   0.681  -0.015  0.00  0.00    +0.280 A 
ATOM     16  C   LIG    1        1.337  -0.423  -0.013  0.00  0.00    -0.320 A 
ATOM     17  C   LIG    1        0.002  -0.004   0.002  0.00  0.00    +0.260 A 
ATOM     18  N   LIG    1       -0.016   1.304   0.009  0.00  0.00    -0.270 NA
BRANCH  14  20
ATOM     19  C   LIG    1        2.231   3.546  -1.394  0.00  0.00    +0.060 C 
ATOM     20  C   LIG    1        1.739   3.160   0.002  0.00  0.00    +0.170 C 
ATOM     21  C   LIG    1        2.873   3.343   1.012  0.00  0.00    +0.070 C 
ATOM     22  C   LIG    1        0.560   4.055   0.393  0.00  0.00    +0.070 C 
ENDBRANCH  14  20
ENDBRANCH  13  16
ENDBRANCH   1  13
TORSDOF 3
