REMARK  Name = ZINCkj000005eWuc.1
REMARK                            x       y       z     vdW  Elec       q    Type
REMARK                         _______ _______ _______ _____ _____    ______ ____
ROOT
ATOM      1  N   LIG    1        4.048   0.755  -1.418  0.00  0.00    -0.400 N 
ATOM      2  C   LIG    1        3.702   2.046  -2.069  0.00  0.00    +0.260 C 
ATOM      3  C   LIG    1        4.710   2.179  -3.235  0.00  0.00    +0.090 C 
ATOM      4  C   LIG    1        5.897   1.308  -2.818  0.00  0.00    -0.100 C 
ATOM      5  C   LIG    1        7.200   2.110  -2.759  0.00  0.00    +0.310 C 
ATOM      6  N   LIG    1        7.857   1.875  -4.054  0.00  0.00    -0.730 N 
ATOM      7  H   LIG    1        8.585   2.412  -4.404  0.00  0.00    +0.420 HD
ATOM      8  C   LIG    1        7.319   0.818  -4.690  0.00  0.00    +0.520 C 
ATOM      9  O   LIG    1        7.676   0.402  -5.771  0.00  0.00    -0.510 OA
ATOM     10  C   LIG    1        6.200   0.223  -3.857  0.00  0.00    +0.080 C 
ATOM     11  C   LIG    1        5.536   0.703  -1.458  0.00  0.00    +0.290 C 
ATOM     12  H   LIG    1        3.655  -0.017  -1.935  0.00  0.00    +0.430 HD
ENDROOT
BRANCH   1  13
ATOM     13  C   LIG    1        3.572   0.738  -0.028  0.00  0.00    +0.350 C 
BRANCH  13  16
ATOM     14  N   LIG    1        0.002  -0.004   0.002  0.00  0.00    -0.340 N 
ATOM     15  C   LIG    1        1.292  -0.402  -0.012  0.00  0.00    +0.280 A 
ATOM     16  C   LIG    1        2.066   0.708  -0.014  0.00  0.00    -0.320 A 
ATOM     17  C   LIG    1        1.220   1.822   0.000  0.00  0.00    +0.260 A 
ATOM     18  N   LIG    1       -0.017   1.397   0.010  0.00  0.00    -0.270 NA
BRANCH  14  20
ATOM     19  C   LIG    1       -1.342  -1.494   1.400  0.00  0.00    +0.060 C 
ATOM     20  C   LIG    1       -1.171  -0.882   0.008  0.00  0.00    +0.170 C 
ATOM     21  C   LIG    1       -0.978  -1.998  -1.020  0.00  0.00    +0.070 C 
ATOM     22  C   LIG    1       -2.417  -0.070  -0.349  0.00  0.00    +0.080 C 
ENDBRANCH  14  20
ENDBRANCH  13  16
ENDBRANCH   1  13
TORSDOF 3
