REMARK  Name = ZINCrg000015mbqw.0
REMARK                            x       y       z     vdW  Elec       q    Type
REMARK                         _______ _______ _______ _____ _____    ______ ____
ROOT
ATOM      1  C   LIG    1       -4.287  15.273   1.439  0.00  0.00    +0.140 C 
ATOM      2  C   LIG    1       -4.027  13.790   1.491  0.00  0.00    -0.000 A 
ATOM      3  C   LIG    1       -4.879  12.851   1.953  0.00  0.00    +0.130 A 
ATOM      4  N   LIG    1       -4.243  11.652   1.816  0.00  0.00    -0.450 N 
ATOM      5  C   LIG    1       -4.762  10.322   2.188  0.00  0.00    +0.300 C 
ATOM      6  C   LIG    1       -4.945   9.525   0.884  0.00  0.00    +0.320 C 
ATOM      7  N   LIG    1       -3.648   9.087   0.394  0.00  0.00    -0.620 N 
ATOM      8  C   LIG    1       -2.613   9.946  -0.162  0.00  0.00    +0.290 C 
ATOM      9  C   LIG    1       -2.011  10.816   0.949  0.00  0.00    +0.150 C 
ATOM     10  C   LIG    1       -3.378   7.768   0.467  0.00  0.00    +0.700 C 
ATOM     11  N   LIG    1       -2.154   7.312   0.137  0.00  0.00    -0.680 N 
ATOM     12  H   LIG    1       -1.445   7.938  -0.082  0.00  0.00    +0.410 HD
ATOM     13  O   LIG    1       -4.239   6.990   0.830  0.00  0.00    -0.560 OA
ATOM     14  C   LIG    1       -3.037  11.889   1.277  0.00  0.00    +0.200 A 
ATOM     15  N   LIG    1       -2.906  13.170   1.085  0.00  0.00    -0.480 NA
ENDROOT
BRANCH  11  16
ATOM     16  C   LIG    1       -1.903   5.934   0.109  0.00  0.00    +0.130 A 
ATOM     17  C   LIG    1       -1.036   5.401  -0.834  0.00  0.00    +0.080 A 
ATOM     18  C   LIG    1       -0.787   4.045  -0.862  0.00  0.00    +0.010 A 
ATOM     19  C   LIG    1       -1.403   3.198   0.057  0.00  0.00    +0.220 A 
ATOM     20  N   LIG    1       -1.131   1.834   0.018  0.00  0.00    -0.660 N 
ATOM     21  H   LIG    1       -0.307   1.565  -0.417  0.00  0.00    +0.420 HD
ATOM     22  C   LIG    1       -1.890   0.860   0.513  0.00  0.00    +0.540 C 
ATOM     23  C   LIG    1       -3.188   1.101   1.235  0.00  0.00    -0.280 C 
ATOM     24  S   LIG    1       -3.058   2.664   2.156  0.00  0.00    +2.510 S 
ATOM     25  O   LIG    1       -2.126   2.546   3.222  0.00  0.00    -0.910 OA
ATOM     26  O   LIG    1       -4.342   3.237   2.361  0.00  0.00    -0.900 OA
ATOM     27  O   LIG    1       -1.513  -0.285   0.379  0.00  0.00    -0.490 OA
ATOM     28  C   LIG    1       -2.273   3.739   0.996  0.00  0.00    -0.660 A 
ATOM     29  C   LIG    1       -2.523   5.093   1.027  0.00  0.00    +0.170 A 
ENDBRANCH  11  16
TORSDOF 1
