REMARK  Name = ZINCtV00001bB3Me.0
REMARK                            x       y       z     vdW  Elec       q    Type
REMARK                         _______ _______ _______ _____ _____    ______ ____
ROOT
ATOM      1  N   LIG    1        3.642  -4.865  -0.058  0.00  0.00    -0.510 NA
ATOM      2  C   LIG    1        2.476  -4.247   0.047  0.00  0.00    +0.280 A 
ATOM      3  C   LIG    1        2.397  -2.834   0.168  0.00  0.00    -0.070 A 
ATOM      4  C   LIG    1        1.181  -2.240   0.272  0.00  0.00    +0.200 A 
ATOM      5  O   LIG    1        0.032  -2.939   0.271  0.00  0.00    -0.230 OA
ATOM      6  C   LIG    1        0.003  -4.284   0.155  0.00  0.00    +0.140 A 
ATOM      7  C   LIG    1       -1.203  -4.972   0.153  0.00  0.00    +0.010 A 
ATOM      8  C   LIG    1       -1.211  -6.348   0.039  0.00  0.00    +0.080 A 
ATOM      9  C   LIG    1       -0.025  -7.054  -0.073  0.00  0.00    -0.110 A 
ATOM     10  C   LIG    1        1.184  -6.388  -0.072  0.00  0.00    +0.080 A 
ATOM     11  C   LIG    1       -0.053  -8.556  -0.196  0.00  0.00    +0.100 C 
ATOM     12  C   LIG    1        1.203  -5.001   0.042  0.00  0.00    -0.170 A 
ENDROOT
BRANCH   1  16
ATOM     13  C   LIG    1        3.821  -8.702  -1.592  0.00  0.00    +0.110 A 
ATOM     14  C   LIG    1        3.312  -7.670  -2.368  0.00  0.00    +0.000 A 
ATOM     15  C   LIG    1        3.250  -6.389  -1.862  0.00  0.00    +0.020 A 
ATOM     16  C   LIG    1        3.701  -6.131  -0.564  0.00  0.00    +0.080 A 
ATOM     17  C   LIG    1        4.218  -7.173   0.212  0.00  0.00    +0.030 A 
ATOM     18  C   LIG    1        4.271  -8.451  -0.303  0.00  0.00    -0.060 A 
BRANCH  13  19
ATOM     19  O   LIG    1        3.880  -9.964  -2.096  0.00  0.00    -0.310 OA
BRANCH  19  21
ATOM     20  C   LIG    1        4.400 -12.321  -1.979  0.00  0.00    +0.070 C 
ATOM     21  C   LIG    1        4.415 -10.979  -1.244  0.00  0.00    +0.170 C 
ENDBRANCH  19  21
ENDBRANCH  13  19
ENDBRANCH   1  16
BRANCH   4  22
ATOM     22  C   LIG    1        1.118  -0.772   0.397  0.00  0.00    -0.110 A 
ATOM     23  C   LIG    1       -0.119  -0.130   0.506  0.00  0.00    +0.100 A 
ATOM     24  C   LIG    1       -0.173   1.241   0.624  0.00  0.00    -0.020 A 
ATOM     25  C   LIG    1        0.999   1.987   0.633  0.00  0.00    +0.150 A 
ATOM     26  C   LIG    1        2.231   1.353   0.525  0.00  0.00    -0.070 A 
ATOM     27  C   LIG    1        2.295  -0.018   0.408  0.00  0.00    +0.100 A 
BRANCH  25  28
ATOM     28  O   LIG    1        0.941   3.338   0.749  0.00  0.00    -0.310 OA
ATOM     29  C   LIG    1        2.184   4.043   0.753  0.00  0.00    +0.240 C 
ENDBRANCH  25  28
ENDBRANCH   4  22
TORSDOF 5
