REMARK  Name = ZINCqH0000051xS9.0
REMARK                            x       y       z     vdW  Elec       q    Type
REMARK                         _______ _______ _______ _____ _____    ______ ____
ROOT
ATOM      1  O   LIG    1        1.798  -0.181   3.432  0.00  0.00    -0.520 OA
ATOM      2  C   LIG    1        1.984  -1.374   3.570  0.00  0.00    +0.530 C 
ENDROOT
BRANCH   2   3
ATOM      3  C   LIG    1        1.407  -2.326   2.605  0.00  0.00    -0.220 A 
ATOM      4  C   LIG    1        1.514  -3.702   2.824  0.00  0.00    +0.130 A 
ATOM      5  C   LIG    1        0.978  -4.586   1.914  0.00  0.00    -0.070 A 
ATOM      6  C   LIG    1        0.327  -4.120   0.784  0.00  0.00    +0.100 A 
ATOM      7  C   LIG    1        0.207  -2.764   0.556  0.00  0.00    -0.090 A 
ATOM      8  C   LIG    1        0.741  -1.856   1.461  0.00  0.00    +0.290 A 
BRANCH   8   9
ATOM      9  N   LIG    1        0.622  -0.491   1.234  0.00  0.00    -0.720 N 
ATOM     10  H   LIG    1        0.921   0.140   1.906  0.00  0.00    +0.420 HD
BRANCH   9  11
ATOM     11  C   LIG    1        0.044  -0.006  -0.022  0.00  0.00    +0.260 C 
BRANCH  11  12
ATOM     12  C   LIG    1        0.028   1.524  -0.018  0.00  0.00    +0.170 C 
BRANCH  12  13
ATOM     13  O   LIG    1        1.371   2.014  -0.005  0.00  0.00    -0.570 OA
ATOM     14  H   LIG    1        1.437   2.979  -0.002  0.00  0.00    +0.380 HD
ENDBRANCH  12  13
ENDBRANCH  11  12
ENDBRANCH   9  11
ENDBRANCH   8   9
ENDBRANCH   2   3
BRANCH   2  15
ATOM     15  O   LIG    1        2.717  -1.827   4.606  0.00  0.00    -0.350 OA
BRANCH  15  16
ATOM     16  C   LIG    1        3.254  -0.832   5.518  0.00  0.00    +0.360 C 
BRANCH  16  17
ATOM     17  C   LIG    1        4.039  -1.519   6.605  0.00  0.00    -0.040 A 
ATOM     18  C   LIG    1        5.358  -1.818   6.583  0.00  0.00    +0.000 A 
ATOM     19  C   LIG    1        5.587  -2.451   7.836  0.00  0.00    +0.050 A 
ATOM     20  N   LIG    1        4.432  -2.466   8.453  0.00  0.00    -0.340 NA
ATOM     21  O   LIG    1        3.568  -1.948   7.784  0.00  0.00    +0.120 OA
BRANCH  19  22
ATOM     22  C   LIG    1        6.876  -2.987   8.342  0.00  0.00    -0.020 A 
ATOM     23  C   LIG    1        8.024  -2.901   7.558  0.00  0.00    +0.060 A 
ATOM     24  C   LIG    1        9.221  -3.396   8.035  0.00  0.00    +0.030 A 
ATOM     25  C   LIG    1        9.279  -3.987   9.286  0.00  0.00    -0.020 A 
ATOM     26  C   LIG    1        8.139  -4.080  10.066  0.00  0.00    +0.030 A 
ATOM     27 CL   LIG    1       10.785  -4.615   9.877  0.00  0.00    -0.060 Cl
ATOM     28  C   LIG    1        6.939  -3.583   9.600  0.00  0.00    +0.060 A 
ENDBRANCH  19  22
ENDBRANCH  16  17
ENDBRANCH  15  16
ENDBRANCH   2  15
TORSDOF 9
