REMARK  Name = ZINCrH000004v8q6.0
REMARK                            x       y       z     vdW  Elec       q    Type
REMARK                         _______ _______ _______ _____ _____    ______ ____
ROOT
ATOM      1  O   LIG    1        4.568   2.003  -1.404  0.00  0.00    -0.480 OA
ATOM      2  C   LIG    1        3.662   2.394  -0.693  0.00  0.00    +0.560 C 
ATOM      3  N   LIG    1        3.796   3.542  -0.000  0.00  0.00    -0.670 N 
ATOM      4  H   LIG    1        3.100   3.823   0.614  0.00  0.00    +0.410 HD
ENDROOT
BRANCH   2   5
ATOM      5  C   LIG    1        2.415   1.612  -0.590  0.00  0.00    -0.120 A 
ATOM      6  C   LIG    1        1.938   1.213   0.660  0.00  0.00    +0.070 A 
ATOM      7  C   LIG    1        0.772   0.481   0.749  0.00  0.00    +0.030 A 
ATOM      8  C   LIG    1        0.072   0.140  -0.395  0.00  0.00    +0.080 A 
ATOM      9  C   LIG    1        0.532   0.529  -1.638  0.00  0.00    +0.010 A 
ATOM     10  C   LIG    1        1.703   1.265  -1.747  0.00  0.00    +0.180 A 
BRANCH  10  11
ATOM     11  N   LIG    1        2.171   1.659  -3.005  0.00  0.00    -0.340 N 
ATOM     12  C   LIG    1        1.671   1.312  -4.212  0.00  0.00    +0.470 A 
ATOM     13  N   LIG    1        2.406   1.900  -5.119  0.00  0.00    -0.330 NA
ATOM     14  N   LIG    1        3.335   2.595  -4.569  0.00  0.00    -0.030 NA
ATOM     15  N   LIG    1        3.258   2.505  -3.284  0.00  0.00    -0.040 NA
ENDBRANCH  10  11
ENDBRANCH   2   5
BRANCH   3  16
ATOM     16  C   LIG    1        4.942   4.330  -0.166  0.00  0.00    +0.150 A 
ATOM     17  C   LIG    1        6.174   3.728  -0.382  0.00  0.00    +0.050 A 
ATOM     18  C   LIG    1        7.303   4.506  -0.551  0.00  0.00    +0.040 A 
ATOM     19  C   LIG    1        7.207   5.889  -0.494  0.00  0.00    +0.070 A 
ATOM     20  C   LIG    1        5.977   6.491  -0.273  0.00  0.00    +0.020 A 
ATOM     21  C   LIG    1        4.847   5.715  -0.109  0.00  0.00    +0.000 A 
BRANCH  19  22
ATOM     22  O   LIG    1        8.319   6.654  -0.655  0.00  0.00    -0.260 OA
BRANCH  22  23
ATOM     23  C   LIG    1        8.863   7.230   0.449  0.00  0.00    +0.120 A 
ATOM     24  C   LIG    1        8.347   6.947   1.706  0.00  0.00    -0.060 A 
ATOM     25  C   LIG    1        8.905   7.530   2.827  0.00  0.00    +0.050 A 
ATOM     26  C   LIG    1        9.969   8.403   2.697  0.00  0.00    -0.020 A 
ATOM     27  C   LIG    1       10.482   8.691   1.445  0.00  0.00    +0.050 A 
ATOM     28  C   LIG    1        9.931   8.107   0.321  0.00  0.00    -0.020 A 
ENDBRANCH  22  23
ENDBRANCH  19  22
ENDBRANCH   3  16
TORSDOF 5
