REMARK  Name = ZINCqH0000033svI.0
REMARK                            x       y       z     vdW  Elec       q    Type
REMARK                         _______ _______ _______ _____ _____    ______ ____
ROOT
ATOM      1  C   LIG    1        3.392   1.246  -0.118  0.00  0.00    +0.250 C 
ATOM      2  C   LIG    1        3.645   2.696   0.303  0.00  0.00    +0.030 C 
ATOM      3  C   LIG    1        2.377   3.273   0.937  0.00  0.00    +0.030 C 
ATOM      4  C   LIG    1        1.244   3.261  -0.094  0.00  0.00    +0.260 C 
ATOM      5  N   LIG    1        1.091   1.894  -0.612  0.00  0.00    -0.620 N 
ATOM      6  C   LIG    1       -0.108   1.279  -0.582  0.00  0.00    +0.710 C 
ATOM      7  N   LIG    1       -1.159   1.879   0.011  0.00  0.00    -0.690 N 
ATOM      8  H   LIG    1       -1.073   2.784   0.350  0.00  0.00    +0.410 HD
ATOM      9  O   LIG    1       -0.242   0.185  -1.096  0.00  0.00    -0.560 OA
ATOM     10  C   LIG    1        2.271   1.209  -1.156  0.00  0.00    +0.290 C 
ENDROOT
BRANCH   7  11
ATOM     11  C   LIG    1       -2.374   1.197   0.138  0.00  0.00    +0.170 A 
ATOM     12  C   LIG    1       -2.383  -0.176   0.343  0.00  0.00    +0.060 A 
ATOM     13  C   LIG    1       -3.584  -0.846   0.473  0.00  0.00    -0.060 A 
ATOM     14  C   LIG    1       -4.777  -0.152   0.388  0.00  0.00    +0.050 A 
ATOM     15  C   LIG    1       -4.771   1.215   0.179  0.00  0.00    -0.160 A 
ATOM     16  C   LIG    1       -3.594  -2.335   0.702  0.00  0.00    +0.100 C 
ATOM     17  C   LIG    1       -3.574   1.891   0.053  0.00  0.00    +0.030 A 
BRANCH  15  18
ATOM     18  C   LIG    1       -6.074   1.968   0.087  0.00  0.00    +0.510 C 
ATOM     19  F   LIG    1       -6.788   1.810   1.280  0.00  0.00    -0.170 F 
ATOM     20  F   LIG    1       -6.829   1.465  -0.978  0.00  0.00    -0.170 F 
ATOM     21  F   LIG    1       -5.814   3.326  -0.125  0.00  0.00    -0.180 F 
ENDBRANCH  15  18
ENDBRANCH   7  11
BRANCH   1  23
ATOM     22  C   LIG    1        4.819  -0.648  -0.676  0.00  0.00    +0.650 C 
ATOM     23  N   LIG    1        4.615   0.684  -0.696  0.00  0.00    -0.700 N 
ATOM     24  H   LIG    1        5.278   1.270  -1.092  0.00  0.00    +0.410 HD
ATOM     25  O   LIG    1        3.988  -1.383  -0.179  0.00  0.00    -0.560 OA
BRANCH  22  26
ATOM     26  O   LIG    1        5.943  -1.165  -1.206  0.00  0.00    -0.370 OA
BRANCH  26  28
ATOM     27  C   LIG    1        7.425  -3.005  -1.797  0.00  0.00    +0.070 C 
ATOM     28  C   LIG    1        6.096  -2.608  -1.150  0.00  0.00    +0.220 C 
ENDBRANCH  26  28
ENDBRANCH  22  26
ENDBRANCH   1  23
TORSDOF 5
