REMARK  Name = ZINCc70000000hrS.0
REMARK                            x       y       z     vdW  Elec       q    Type
REMARK                         _______ _______ _______ _____ _____    ______ ____
ROOT
ATOM      1  C   LIG    1       -1.100   1.756   0.016  0.00  0.00    +0.290 A 
ATOM      2  N   LIG    1       -0.703   3.001   0.025  0.00  0.00    -0.500 NA
ATOM      3  C   LIG    1        0.636   3.050   0.012  0.00  0.00    +0.310 A 
ATOM      4  N   LIG    1        1.103   1.821   0.001  0.00  0.00    -0.270 NA
ATOM      5  N   LIG    1       -0.011   0.966   0.007  0.00  0.00    -0.470 N 
ATOM      6  H   LIG    1        0.002  -0.004   0.002  0.00  0.00    +0.450 HD
ENDROOT
BRANCH   3   7
ATOM      7  C   LIG    1        1.456   4.287   0.011  0.00  0.00    +0.310 A 
ATOM      8  N   LIG    1        2.770   4.336  -0.002  0.00  0.00    -0.270 NA
ATOM      9  N   LIG    1        3.124   5.695   0.001  0.00  0.00    -0.480 N 
ATOM     10  H   LIG    1        4.022   6.060  -0.006  0.00  0.00    +0.450 HD
ATOM     11  C   LIG    1        1.972   6.390   0.015  0.00  0.00    +0.500 A 
ATOM     12  N   LIG    1        0.980   5.540   0.015  0.00  0.00    -0.510 NA
ENDBRANCH   3   7
BRANCH   1  14
ATOM     13  C   LIG    1       -3.270   1.905   1.207  0.00  0.00    +0.050 C 
ATOM     14  C   LIG    1       -2.532   1.286   0.019  0.00  0.00    +0.150 C 
ENDBRANCH   1  14
TORSDOF 2
