REMARK  Name = ZINCpk00000Fbayb.0
REMARK                            x       y       z     vdW  Elec       q    Type
REMARK                         _______ _______ _______ _____ _____    ______ ____
ROOT
ATOM      1  C   LIG    1       -1.597   3.974   1.633  0.00  0.00    +0.580 C 
ATOM      2  N   LIG    1       -1.423   2.930   0.798  0.00  0.00    -0.600 N 
ATOM      3  C   LIG    1       -1.115   1.547   1.204  0.00  0.00    +0.230 C 
ATOM      4  C   LIG    1       -0.421   0.917  -0.030  0.00  0.00    +0.180 C 
ATOM      5  C   LIG    1       -1.213   1.564  -1.198  0.00  0.00    +0.080 C 
ATOM      6  C   LIG    1       -1.510   2.984  -0.669  0.00  0.00    +0.290 C 
ATOM      7  O   LIG    1       -1.742   5.094   1.185  0.00  0.00    -0.510 OA
ENDROOT
BRANCH   6   8
ATOM      8  C   LIG    1       -2.894   3.411  -1.085  0.00  0.00    -0.100 A 
ATOM      9  C   LIG    1       -3.945   3.310  -0.195  0.00  0.00    +0.030 A 
ATOM     10  C   LIG    1       -5.216   3.707  -0.576  0.00  0.00    +0.090 A 
ATOM     11  C   LIG    1       -5.434   4.196  -1.853  0.00  0.00    +0.030 A 
ATOM     12  C   LIG    1       -4.383   4.292  -2.745  0.00  0.00    +0.030 A 
ATOM     13  F   LIG    1       -6.243   3.613   0.296  0.00  0.00    -0.130 F 
ATOM     14  C   LIG    1       -3.112   3.899  -2.362  0.00  0.00    +0.100 A 
ATOM     15  F   LIG    1       -2.085   3.993  -3.235  0.00  0.00    -0.130 F 
ENDBRANCH   6   8
BRANCH   1  19
ATOM     16  C   LIG    1       -1.623   3.437   5.807  0.00  0.00    +0.100 A 
ATOM     17  C   LIG    1       -1.816   2.320   4.997  0.00  0.00    +0.040 A 
ATOM     18  C   LIG    1       -1.816   2.475   3.621  0.00  0.00    +0.090 A 
ATOM     19  C   LIG    1       -1.610   3.755   3.097  0.00  0.00    -0.160 A 
ATOM     20  C   LIG    1       -1.423   4.827   3.975  0.00  0.00    +0.340 A 
ATOM     21  N   LIG    1       -1.435   4.639   5.275  0.00  0.00    -0.460 NA
BRANCH  16  25
ATOM     22  N   LIG    1       -1.441   4.356   8.073  0.00  0.00    -0.830 N 
ATOM     23  H   LIG    1       -1.443   4.254   9.038  0.00  0.00    +0.410 HD
ATOM     24  H   LIG    1       -1.304   5.231   7.679  0.00  0.00    +0.410 HD
ATOM     25  C   LIG    1       -1.627   3.281   7.282  0.00  0.00    +0.580 C 
ATOM     26  O   LIG    1       -1.798   2.185   7.777  0.00  0.00    -0.530 OA
ENDBRANCH  16  25
ENDBRANCH   1  19
BRANCH   4  27
ATOM     27  O   LIG    1        0.959   1.283  -0.084  0.00  0.00    -0.550 OA
ATOM     28  H   LIG    1        1.485   0.942   0.653  0.00  0.00    +0.380 HD
ENDBRANCH   4  27
TORSDOF 4
