REMARK  Name = ZINCpk00000l5owN.1
REMARK                            x       y       z     vdW  Elec       q    Type
REMARK                         _______ _______ _______ _____ _____    ______ ____
ROOT
ATOM      1  O   LIG    1        0.638  -2.923   1.408  0.00  0.00    -0.530 OA
ATOM      2  C   LIG    1        1.584  -2.735   0.673  0.00  0.00    +0.550 C 
ATOM      3  N   LIG    1        1.954  -1.478   0.359  0.00  0.00    -0.730 N 
ATOM      4  H   LIG    1        2.711  -1.328  -0.229  0.00  0.00    +0.420 HD
ENDROOT
BRANCH   3   5
ATOM      5  C   LIG    1        1.212  -0.338   0.904  0.00  0.00    +0.250 C 
ATOM      6  C   LIG    1        0.002  -0.004   0.002  0.00  0.00    +0.060 C 
ATOM      7  C   LIG    1       -0.019   1.545   0.011  0.00  0.00    +0.260 C 
ATOM      8  N   LIG    1        1.422   1.905  -0.001  0.00  0.00    -0.390 N 
ATOM      9  H   LIG    1        1.791   1.832  -0.938  0.00  0.00    +0.430 HD
ATOM     10  C   LIG    1        2.089   0.928   0.887  0.00  0.00    +0.260 C 
BRANCH   8  11
ATOM     11  C   LIG    1        1.609   3.267   0.515  0.00  0.00    +0.330 C 
BRANCH  11  12
ATOM     12  C   LIG    1        0.983   4.255  -0.437  0.00  0.00    -0.160 A 
ATOM     13  C   LIG    1        1.734   4.795  -1.464  0.00  0.00    +0.040 A 
ATOM     14  C   LIG    1        1.159   5.697  -2.340  0.00  0.00    +0.020 A 
ATOM     15  C   LIG    1       -0.164   6.066  -2.182  0.00  0.00    +0.040 A 
ATOM     16  C   LIG    1       -0.913   5.530  -1.151  0.00  0.00    +0.010 A 
ATOM     17  C   LIG    1       -0.340   4.624  -0.279  0.00  0.00    +0.040 A 
ENDBRANCH  11  12
ENDBRANCH   8  11
ENDBRANCH   3   5
BRANCH   2  18
ATOM     18  C   LIG    1        2.347  -3.908   0.112  0.00  0.00    +0.040 C 
ATOM     19  C   LIG    1        2.245  -3.916  -1.423  0.00  0.00    +0.040 C 
ATOM     20  C   LIG    1        1.560  -5.244  -1.811  0.00  0.00    +0.010 C 
ATOM     21  C   LIG    1        0.768  -5.648  -0.543  0.00  0.00    +0.010 C 
ATOM     22  C   LIG    1        1.721  -5.229   0.604  0.00  0.00    +0.070 C 
BRANCH  18  23
ATOM     23  C   LIG    1        3.792  -3.832   0.533  0.00  0.00    +0.060 A 
ATOM     24  N   LIG    1        4.454  -4.733   1.237  0.00  0.00    -0.370 NA
ATOM     25  N   LIG    1        5.660  -4.304   1.386  0.00  0.00    -0.190 NA
ATOM     26  N   LIG    1        5.770  -3.160   0.804  0.00  0.00    -0.190 NA
ATOM     27  N   LIG    1        4.636  -2.850   0.274  0.00  0.00    -0.400 NA
ENDBRANCH  18  23
ENDBRANCH   2  18
TORSDOF 5
