REMARK  Name = ZINCpk00000l5owN.2
REMARK                            x       y       z     vdW  Elec       q    Type
REMARK                         _______ _______ _______ _____ _____    ______ ____
ROOT
ATOM      1  O   LIG    1        0.206  -1.240   2.002  0.00  0.00    -0.530 OA
ATOM      2  C   LIG    1        0.758  -0.516   1.201  0.00  0.00    +0.550 C 
ATOM      3  N   LIG    1        2.048  -0.171   1.382  0.00  0.00    -0.720 N 
ATOM      4  H   LIG    1        2.490   0.408   0.741  0.00  0.00    +0.420 HD
ENDROOT
BRANCH   3   5
ATOM      5  C   LIG    1        2.783  -0.668   2.548  0.00  0.00    +0.250 C 
ATOM      6  C   LIG    1        2.568   0.258   3.767  0.00  0.00    +0.060 C 
ATOM      7  C   LIG    1        3.942   0.337   4.458  0.00  0.00    +0.260 C 
ATOM      8  N   LIG    1        4.866  -0.522   3.687  0.00  0.00    -0.390 N 
ATOM      9  H   LIG    1        4.899  -1.447   4.090  0.00  0.00    +0.430 HD
ATOM     10  C   LIG    1        4.311  -0.580   2.311  0.00  0.00    +0.270 C 
BRANCH   8  11
ATOM     11  C   LIG    1        6.210   0.070   3.667  0.00  0.00    +0.330 C 
BRANCH  11  12
ATOM     12  C   LIG    1        6.785   0.059   5.060  0.00  0.00    -0.160 A 
ATOM     13  C   LIG    1        6.580   1.137   5.901  0.00  0.00    +0.040 A 
ATOM     14  C   LIG    1        7.104   1.125   7.181  0.00  0.00    +0.020 A 
ATOM     15  C   LIG    1        7.840   0.038   7.616  0.00  0.00    +0.040 A 
ATOM     16  C   LIG    1        8.049  -1.037   6.773  0.00  0.00    +0.010 A 
ATOM     17  C   LIG    1        7.522  -1.027   5.495  0.00  0.00    +0.040 A 
ENDBRANCH  11  12
ENDBRANCH   8  11
ENDBRANCH   3   5
BRANCH   2  18
ATOM     18  C   LIG    1        0.002  -0.004   0.002  0.00  0.00    +0.040 C 
ATOM     19  C   LIG    1        0.659  -0.516  -1.296  0.00  0.00    +0.040 C 
ATOM     20  C   LIG    1       -0.158  -1.781  -1.662  0.00  0.00    +0.000 C 
ATOM     21  C   LIG    1       -1.604  -1.376  -1.280  0.00  0.00    +0.020 C 
ATOM     22  C   LIG    1       -1.436  -0.551   0.013  0.00  0.00    +0.050 C 
BRANCH  18  23
ATOM     23  C   LIG    1       -0.018   1.503   0.010  0.00  0.00    +0.060 A 
ATOM     24  N   LIG    1       -1.090   2.275   0.019  0.00  0.00    -0.370 NA
ATOM     25  N   LIG    1       -0.689   3.500   0.027  0.00  0.00    -0.190 NA
ATOM     26  N   LIG    1        0.598   3.518   0.015  0.00  0.00    -0.190 NA
ATOM     27  N   LIG    1        1.032   2.304   0.005  0.00  0.00    -0.400 NA
ENDBRANCH  18  23
ENDBRANCH   2  18
TORSDOF 5
