REMARK  Name = ZINCpe000000T6qe.0
REMARK                            x       y       z     vdW  Elec       q    Type
REMARK                         _______ _______ _______ _____ _____    ______ ____
ROOT
ATOM      1  N   LIG    1        3.565  -0.135  -0.842  0.00  0.00    -0.340 N 
ATOM      2  N   LIG    1        2.490  -0.680  -0.405  0.00  0.00    -0.210 NA
ATOM      3  C   LIG    1        1.788  -0.172   0.576  0.00  0.00    +0.060 A 
ATOM      4  C   LIG    1        0.534  -0.882   1.018  0.00  0.00    +0.090 C 
ATOM      5  C   LIG    1        0.118  -0.386   2.403  0.00  0.00    +0.250 C 
ATOM      6  N   LIG    1        0.081   1.084   2.388  0.00  0.00    -0.500 NA
ATOM      7  C   LIG    1        1.442   1.629   2.334  0.00  0.00    +0.300 C 
ATOM      8  C   LIG    1        2.206   1.012   1.196  0.00  0.00    -0.060 A 
ATOM      9  C   LIG    1        3.347   1.618   0.749  0.00  0.00    -0.030 A 
ATOM     10  C   LIG    1        4.044   1.008  -0.316  0.00  0.00    +0.480 A 
ATOM     11  O   LIG    1        5.066   1.511  -0.755  0.00  0.00    -0.540 OA
ENDROOT
BRANCH   1  13
ATOM     12  C   LIG    1        4.721  -2.181  -1.522  0.00  0.00    +0.050 C 
ATOM     13  C   LIG    1        4.292  -0.774  -1.943  0.00  0.00    +0.250 C 
ATOM     14  C   LIG    1        3.383  -0.863  -3.170  0.00  0.00    +0.050 C 
ENDBRANCH   1  13
BRANCH   6  15
ATOM     15  C   LIG    1       -0.729   1.579   1.267  0.00  0.00    +0.130 C 
ATOM     16  C   LIG    1       -0.595   3.100   1.174  0.00  0.00    +0.070 C 
BRANCH  15  17
ATOM     17  C   LIG    1       -2.174   1.215   1.491  0.00  0.00    +0.520 C 
ATOM     18  N   LIG    1       -3.107   1.568   0.585  0.00  0.00    -0.730 N 
ATOM     19  H   LIG    1       -2.848   2.058  -0.212  0.00  0.00    +0.400 HD
ATOM     20  O   LIG    1       -2.497   0.603   2.487  0.00  0.00    -0.520 OA
BRANCH  18  21
ATOM     21  C   LIG    1       -4.511   1.214   0.803  0.00  0.00    +0.260 C 
BRANCH  21  22
ATOM     22  C   LIG    1       -5.354   1.729  -0.365  0.00  0.00    +0.160 C 
ATOM     23  C   LIG    1       -6.850   1.467  -0.087  0.00  0.00    +0.020 C 
ATOM     24  C   LIG    1       -7.376   1.049  -1.489  0.00  0.00    +0.010 C 
ATOM     25  C   LIG    1       -6.143   0.301  -2.056  0.00  0.00    +0.200 C 
ATOM     26  O   LIG    1       -5.005   1.027  -1.564  0.00  0.00    -0.380 OA
ENDBRANCH  21  22
ENDBRANCH  18  21
ENDBRANCH  15  17
ENDBRANCH   6  15
TORSDOF 5
