REMARK  Name = ZINCrH000004mUws.0
REMARK                            x       y       z     vdW  Elec       q    Type
REMARK                         _______ _______ _______ _____ _____    ______ ____
ROOT
ATOM      1  C   LIG    1       -5.736   2.670   3.644  0.00  0.00    +0.160 C 
ATOM      2  C   LIG    1       -5.780   4.090   3.072  0.00  0.00    +0.060 C 
ATOM      3  C   LIG    1       -5.367   4.055   1.599  0.00  0.00    +0.210 C 
ATOM      4  N   LIG    1       -4.012   3.502   1.482  0.00  0.00    -0.560 NA
ATOM      5  C   LIG    1       -3.956   2.122   1.981  0.00  0.00    +0.170 C 
ATOM      6  C   LIG    1       -4.327   2.100   3.466  0.00  0.00    +0.030 C 
ENDROOT
BRANCH   1   7
ATOM      7  O   LIG    1       -6.066   2.705   5.034  0.00  0.00    -0.310 OA
BRANCH   7  11
ATOM      8  C   LIG    1       -7.607  -0.753   6.681  0.00  0.00    +0.090 A 
ATOM      9  C   LIG    1       -7.163  -0.749   5.367  0.00  0.00    +0.020 A 
ATOM     10  C   LIG    1       -6.647   0.408   4.816  0.00  0.00    -0.040 A 
ATOM     11  C   LIG    1       -6.574   1.566   5.576  0.00  0.00    +0.100 A 
ATOM     12  C   LIG    1       -7.013   1.560   6.892  0.00  0.00    +0.020 A 
ATOM     13  C   LIG    1       -7.534   0.405   7.441  0.00  0.00    -0.030 A 
BRANCH   8  15
ATOM     14  C   LIG    1       -8.554  -1.824   8.582  0.00  0.00    +0.250 C 
ATOM     15  O   LIG    1       -8.115  -1.892   7.223  0.00  0.00    -0.320 OA
ENDBRANCH   8  15
ENDBRANCH   7  11
ENDBRANCH   1   7
BRANCH   4  16
ATOM     16  C   LIG    1       -3.529   3.581   0.097  0.00  0.00    +0.490 C 
BRANCH  16  17
ATOM     17  N   LIG    1       -2.064   3.605   0.092  0.00  0.00    -0.540 N 
ATOM     18  C   LIG    1       -1.284   4.703   0.143  0.00  0.00    +0.640 A 
ATOM     19  O   LIG    1        0.007   4.337   0.118  0.00  0.00    -0.230 OA
ATOM     20  C   LIG    1        0.085   2.985   0.049  0.00  0.00    +0.050 A 
ATOM     21  C   LIG    1        1.152   2.102  -0.002  0.00  0.00    +0.080 A 
ATOM     22  C   LIG    1        0.917   0.741  -0.070  0.00  0.00    -0.030 A 
ATOM     23  C   LIG    1       -0.380   0.256  -0.087  0.00  0.00    +0.070 A 
ATOM     24  C   LIG    1       -1.449   1.130  -0.043  0.00  0.00    +0.050 A 
ATOM     25 CL   LIG    1        2.254  -0.364  -0.133  0.00  0.00    -0.040 Cl
ATOM     26  O   LIG    1       -1.688   5.848   0.204  0.00  0.00    -0.470 OA
ATOM     27  C   LIG    1       -1.221   2.495   0.031  0.00  0.00    +0.080 A 
ENDBRANCH  16  17
ENDBRANCH   4  16
TORSDOF 5
