REMARK  Name = ZINCpe00000ztkrd.0
REMARK                            x       y       z     vdW  Elec       q    Type
REMARK                         _______ _______ _______ _____ _____    ______ ____
ROOT
ATOM      1  C   UNK A  1       -0.013   1.086   0.008  0.00  0.00    +0.270 C 
ENDROOT
BRANCH   1   6
ATOM      2  O   PRO A  2       -3.863   0.348  -2.428  0.00  0.00    -0.520 OA
ATOM      3  C   PRO A  2       -2.749   0.826  -2.437  0.00  0.00    +0.520 C 
ATOM      4  N   UNK A  1       -2.086   0.994  -1.281  0.00  0.00    -0.720 N 
ATOM      5  H   UNK A  1       -2.505   0.710  -0.453  0.00  0.00    +0.410 HD
ATOM      6  C   UNK A  1       -0.753   1.593  -1.232  0.00  0.00    +0.250 C 
ATOM      7  C   UNK A  1        0.024   1.213  -2.470  0.00  0.00    +0.530 C 
ATOM      8  N   PRO A  2       -0.657   1.052  -3.623  0.00  0.00    -0.610 N 
ATOM      9  CD  PRO A  2       -0.131   0.676  -4.935  0.00  0.00    +0.270 C 
ATOM     10  CG  PRO A  2       -1.306   0.122  -5.761  0.00  0.00    +0.050 C 
ATOM     11  CB  PRO A  2       -2.542   0.231  -4.845  0.00  0.00    +0.080 C 
ATOM     12  O   UNK A  1        1.226   1.057  -2.429  0.00  0.00    -0.510 OA
ATOM     13  CA  PRO A  2       -2.117   1.226  -3.747  0.00  0.00    +0.230 C 
ENDBRANCH   1   6
BRANCH   1  14
ATOM     14  O   UNK A  1       -0.692   1.554   1.203  0.00  0.00    -0.360 OA
BRANCH  14  15
ATOM     15  C   UNK A  1       -0.166   1.194   2.384  0.00  0.00    +0.470 C 
ATOM     16  O   UNK A  1        0.829   0.510   2.418  0.00  0.00    -0.490 OA
BRANCH  15  17
ATOM     17  C   UNK A  1       -0.817   1.643   3.667  0.00  0.00    +0.040 C 
ATOM     18  C   UNK A  1       -2.251   1.112   3.724  0.00  0.00    +0.050 C 
ATOM     19  C   UNK A  1       -2.912   1.568   5.027  0.00  0.00    +0.020 C 
ATOM     20  C   UNK A  1       -2.119   1.025   6.217  0.00  0.00    +0.150 C 
ATOM     21  C   UNK A  1       -0.685   1.555   6.160  0.00  0.00    +0.050 C 
ATOM     22  C   UNK A  1       -0.025   1.100   4.858  0.00  0.00    +0.060 C 
BRANCH  20  23
ATOM     23  O   UNK A  1       -2.737   1.450   7.434  0.00  0.00    -0.380 OA
BRANCH  23  24
ATOM     24  C   UNK A  1       -3.727   0.547   7.930  0.00  0.00    +0.570 C 
ATOM     25  F   UNK A  1       -3.140  -0.698   8.178  0.00  0.00    -0.210 F 
ATOM     26  F   UNK A  1       -4.744   0.402   6.980  0.00  0.00    -0.210 F 
ENDBRANCH  23  24
ENDBRANCH  20  23
ENDBRANCH  15  17
ENDBRANCH  14  15
ENDBRANCH   1  14
TORSDOF 6
