REMARK  Name = ZINCpk00000xI6Ac.0
REMARK                            x       y       z     vdW  Elec       q    Type
REMARK                         _______ _______ _______ _____ _____    ______ ____
ROOT
ATOM      1  N   LIG    1        4.786   1.932   0.508  0.00  0.00    -0.600 N 
ATOM      2  C   LIG    1        3.471   2.045   0.777  0.00  0.00    +0.520 C 
ATOM      3  O   LIG    1        3.026   3.092   1.198  0.00  0.00    -0.520 OA
ENDROOT
BRANCH   1   4
ATOM      4  C   LIG    1        5.702   3.021   0.856  0.00  0.00    +0.270 C 
ATOM      5  C   LIG    1        5.267   4.312   0.140  0.00  0.00    +0.070 C 
ATOM      6  C   LIG    1        6.056   5.472   0.797  0.00  0.00    -0.300 C 
ATOM      7  S   LIG    1        5.957   5.059   2.580  0.00  0.00    +2.400 S 
ATOM      8  O   LIG    1        7.227   5.262   3.185  0.00  0.00    -0.940 OA
ATOM      9  O   LIG    1        4.801   5.667   3.140  0.00  0.00    -0.920 OA
ATOM     10  C   LIG    1        5.661   3.266   2.378  0.00  0.00    -0.330 C 
ENDBRANCH   1   4
BRANCH   1  11
ATOM     11  C   LIG    1        5.301   0.719  -0.134  0.00  0.00    +0.270 C 
BRANCH  11  13
ATOM     12  C   LIG    1        5.829  -0.353  -2.328  0.00  0.00    +0.030 C 
ATOM     13  C   LIG    1        5.432   0.955  -1.640  0.00  0.00    +0.000 C 
ENDBRANCH  11  13
ENDBRANCH   1  11
BRANCH   2  14
ATOM     14  C   LIG    1        2.552   0.871   0.554  0.00  0.00    +0.250 C 
BRANCH  14  15
ATOM     15  N   LIG    1        1.241   1.159   1.139  0.00  0.00    -0.700 N 
ATOM     16  H   LIG    1        0.951   2.078   1.252  0.00  0.00    +0.420 HD
ATOM     17  C   LIG    1        0.436   0.148   1.522  0.00  0.00    +0.610 C 
ATOM     18  O   LIG    1        0.799  -1.005   1.380  0.00  0.00    -0.510 OA
BRANCH  17  19
ATOM     19  C   LIG    1       -0.880   0.436   2.102  0.00  0.00    -0.090 A 
ATOM     20  C   LIG    1       -1.793  -0.489   2.519  0.00  0.00    +0.050 A 
ATOM     21  C   LIG    1       -2.899   0.226   3.004  0.00  0.00    -0.070 A 
ATOM     22  C   LIG    1       -2.619   1.540   2.856  0.00  0.00    +0.210 A 
ATOM     23  O   LIG    1       -1.402   1.662   2.312  0.00  0.00    -0.160 OA
ENDBRANCH  17  19
ENDBRANCH  14  15
BRANCH  14  24
ATOM     24  C   LIG    1        2.397   0.622  -0.947  0.00  0.00    -0.020 C 
ATOM     25  C   LIG    1        1.895   1.897  -1.627  0.00  0.00    +0.020 C 
ATOM     26  C   LIG    1        1.391  -0.508  -1.176  0.00  0.00    +0.040 C 
ENDBRANCH  14  24
ENDBRANCH   2  14
TORSDOF 7
