REMARK  Name = ZINCpk00000ebf7g.0
REMARK                            x       y       z     vdW  Elec       q    Type
REMARK                         _______ _______ _______ _____ _____    ______ ____
ROOT
ATOM      1  C   LIG    1       -0.261   1.123  -1.167  0.00  0.00    +0.520 C 
ATOM      2  N   LIG    1       -1.295   1.824  -0.661  0.00  0.00    -0.610 N 
ATOM      3  C   LIG    1       -1.276   3.293  -0.665  0.00  0.00    +0.250 C 
ATOM      4  C   LIG    1       -1.533   3.798   0.754  0.00  0.00    +0.010 C 
ATOM      5  C   LIG    1       -2.832   3.186   1.283  0.00  0.00    +0.020 C 
ATOM      6  C   LIG    1       -2.700   1.662   1.327  0.00  0.00    +0.020 C 
ATOM      7  C   LIG    1       -2.459   1.133  -0.090  0.00  0.00    +0.310 C 
ATOM      8  O   LIG    1       -0.255  -0.088  -1.092  0.00  0.00    -0.480 OA
ENDROOT
BRANCH   7   9
ATOM      9  C   LIG    1       -2.192  -0.349  -0.038  0.00  0.00    -0.210 A 
ATOM     10  C   LIG    1       -2.740  -1.285  -0.847  0.00  0.00    +0.220 A 
ATOM     11  N   LIG    1       -2.244  -2.486  -0.480  0.00  0.00    -0.370 N 
ATOM     12  N   LIG    1       -1.370  -2.281   0.595  0.00  0.00    -0.290 NA
ATOM     13  C   LIG    1       -2.567  -3.776  -1.095  0.00  0.00    +0.350 C 
ATOM     14  C   LIG    1       -1.340  -1.000   0.859  0.00  0.00    +0.260 A 
ENDBRANCH   7   9
BRANCH   1  18
ATOM     15  C   LIG    1        3.125   2.476  -1.287  0.00  0.00    +0.170 C 
ATOM     16  N   LIG    1        3.144   1.494  -2.126  0.00  0.00    -0.300 NA
ATOM     17  O   LIG    1        1.871   0.908  -2.315  0.00  0.00    -0.170 OA
ATOM     18  C   LIG    1        0.885   1.843  -1.831  0.00  0.00    +0.130 C 
ATOM     19  C   LIG    1        1.701   2.656  -0.797  0.00  0.00    +0.080 C 
BRANCH  15  23
ATOM     20  C   LIG    1        7.775   4.263  -0.872  0.00  0.00    +0.360 C 
ATOM     21  N   LIG    1        6.334   4.065  -0.698  0.00  0.00    -0.360 N 
ATOM     22  C   LIG    1        5.588   3.127  -1.310  0.00  0.00    +0.300 A 
ATOM     23  C   LIG    1        4.289   3.284  -0.876  0.00  0.00    -0.210 A 
ATOM     24  C   LIG    1        4.281   4.359   0.039  0.00  0.00    +0.280 A 
ATOM     25  N   LIG    1        5.500   4.816   0.139  0.00  0.00    -0.290 NA
ENDBRANCH  15  23
ENDBRANCH   1  18
TORSDOF 3
