REMARK  Name = ZINCrH000004qZku.0
REMARK                            x       y       z     vdW  Elec       q    Type
REMARK                         _______ _______ _______ _____ _____    ______ ____
ROOT
ATOM      1  C   LIG    1        3.476   0.980  -0.044  0.00  0.00    +0.380 C 
ENDROOT
BRANCH   1   8
ATOM      2  C   LIG    1        1.103   1.860   0.072  0.00  0.00    +0.340 A 
ATOM      3  N   LIG    1       -0.097   1.350   0.055  0.00  0.00    -0.260 NA
ATOM      4  N   LIG    1        0.025  -0.042  -0.058  0.00  0.00    -0.470 N 
ATOM      5  H   LIG    1       -0.704  -0.680  -0.095  0.00  0.00    +0.470 HD
ATOM      6  C   LIG    1        1.342  -0.331  -0.106  0.00  0.00    +0.480 A 
ATOM      7  S   LIG    1        2.030  -1.893  -0.243  0.00  0.00    -0.560 S 
ATOM      8  N   LIG    1        2.019   0.832  -0.027  0.00  0.00    -0.480 N 
BRANCH   2  13
ATOM      9  C   LIG    1        2.366   7.460   0.488  0.00  0.00    +0.100 C 
ATOM     10  C   LIG    1        2.035   5.994   0.379  0.00  0.00    -0.050 A 
ATOM     11  C   LIG    1        2.939   5.126  -0.206  0.00  0.00    +0.020 A 
ATOM     12  C   LIG    1        2.642   3.782  -0.308  0.00  0.00    +0.030 A 
ATOM     13  C   LIG    1        1.427   3.300   0.179  0.00  0.00    -0.050 A 
ATOM     14  C   LIG    1        0.518   4.182   0.763  0.00  0.00    +0.080 A 
ATOM     15  C   LIG    1        0.829   5.522   0.865  0.00  0.00    +0.020 A 
ENDBRANCH   2  13
ENDBRANCH   1   8
BRANCH   1  16
ATOM     16  C   LIG    1        3.961   1.018  -1.470  0.00  0.00    +0.500 C 
ATOM     17  N   LIG    1        5.277   1.149  -1.732  0.00  0.00    -0.660 N 
ATOM     18  H   LIG    1        5.917   1.163  -1.003  0.00  0.00    +0.420 HD
ATOM     19  O   LIG    1        3.167   0.930  -2.383  0.00  0.00    -0.490 OA
BRANCH  17  20
ATOM     20  C   LIG    1        5.718   1.265  -3.051  0.00  0.00    +0.140 A 
ATOM     21  C   LIG    1        4.970   0.743  -4.085  0.00  0.00    +0.050 A 
ATOM     22  C   LIG    1        5.399   0.861  -5.405  0.00  0.00    +0.030 A 
ATOM     23  C   LIG    1        6.572   1.481  -5.713  0.00  0.00    +0.040 A 
ATOM     24  C   LIG    1        7.366   2.021  -4.688  0.00  0.00    -0.100 A 
ATOM     25  C   LIG    1        8.582   2.670  -4.954  0.00  0.00    +0.320 A 
ATOM     26  N   LIG    1        9.292   3.159  -3.964  0.00  0.00    -0.490 NA
ATOM     27  C   LIG    1        8.913   3.072  -2.697  0.00  0.00    +0.240 A 
ATOM     28  C   LIG    1        7.749   2.462  -2.336  0.00  0.00    -0.030 A 
ATOM     29  C   LIG    1        6.935   1.913  -3.341  0.00  0.00    -0.030 A 
ENDBRANCH  17  20
ENDBRANCH   1  16
TORSDOF 4
