REMARK  Name = ZINCpe00000gMM2m.1
REMARK                            x       y       z     vdW  Elec       q    Type
REMARK                         _______ _______ _______ _____ _____    ______ ____
ROOT
ATOM      1  C   LIG    1        2.667   3.937  -0.189  0.00  0.00    +0.520 C 
ATOM      2  O   LIG    1        3.671   3.270  -0.040  0.00  0.00    -0.510 OA
ENDROOT
BRANCH   1   3
ATOM      3  C   LIG    1        1.351   3.280  -0.275  0.00  0.00    -0.160 A 
ATOM      4  C   LIG    1        0.194   4.044  -0.447  0.00  0.00    +0.120 A 
ATOM      5  C   LIG    1       -1.034   3.423  -0.527  0.00  0.00    -0.010 A 
ATOM      6  C   LIG    1       -1.127   2.043  -0.443  0.00  0.00    +0.100 A 
ATOM      7  C   LIG    1        0.006   1.275  -0.268  0.00  0.00    -0.020 A 
ATOM      8  C   LIG    1        1.253   1.882  -0.185  0.00  0.00    +0.230 A 
BRANCH   8   9
ATOM      9  N   LIG    1        2.395   1.111  -0.015  0.00  0.00    -1.050 N 
ATOM     10  H   LIG    1        3.126   1.442   0.529  0.00  0.00    +0.440 HD
BRANCH   9  11
ATOM     11  S   LIG    1        2.508  -0.373  -0.741  0.00  0.00    +2.600 S 
ATOM     12  O   LIG    1        1.373  -1.083  -0.266  0.00  0.00    -0.950 OA
ATOM     13  O   LIG    1        3.825  -0.811  -0.439  0.00  0.00    -0.940 OA
ATOM     14  C   LIG    1        2.344  -0.023  -2.513  0.00  0.00    -0.270 C 
ENDBRANCH   9  11
ENDBRANCH   8   9
ENDBRANCH   1   3
BRANCH   1  15
ATOM     15  O   LIG    1        2.756   5.279  -0.276  0.00  0.00    -0.320 OA
BRANCH  15  16
ATOM     16  C   LIG    1        4.085   5.858  -0.183  0.00  0.00    +0.270 C 
BRANCH  16  24
ATOM     17  C   LIG    1        5.928  11.702   0.619  0.00  0.00    +0.080 C 
ATOM     18  C   LIG    1        5.818  10.188   0.814  0.00  0.00    +0.130 C 
ATOM     19  C   LIG    1        5.035   9.577  -0.353  0.00  0.00    +0.270 C 
ATOM     20  N   LIG    1        5.104   8.111  -0.241  0.00  0.00    -0.610 N 
ATOM     21  C   LIG    1        6.427   7.494  -0.058  0.00  0.00    +0.250 C 
ATOM     22  C   LIG    1        7.143   8.206   1.090  0.00  0.00    +0.130 C 
ATOM     23  C   LIG    1        8.590   7.717   1.173  0.00  0.00    +0.070 C 
ATOM     24  C   LIG    1        3.988   7.358  -0.300  0.00  0.00    +0.520 C 
ATOM     25  O   LIG    1        2.907   7.886  -0.447  0.00  0.00    -0.510 OA
ATOM     26  O   LIG    1        7.128   9.616   0.854  0.00  0.00    -0.370 OA
ENDBRANCH  16  24
ENDBRANCH  15  16
ENDBRANCH   1  15
TORSDOF 6
