REMARK  Name = ZINCtj00001n1kp8.0
REMARK                            x       y       z     vdW  Elec       q    Type
REMARK                         _______ _______ _______ _____ _____    ______ ____
ROOT
ATOM      1  O   LIG    1        5.022   7.801   0.940  0.00  0.00    -0.510 OA
ATOM      2  C   LIG    1        5.016   6.669   1.382  0.00  0.00    +0.580 C 
ATOM      3  N   LIG    1        3.980   5.848   1.118  0.00  0.00    -0.600 N 
ATOM      4  C   LIG    1        4.004   4.469   1.614  0.00  0.00    +0.290 C 
ATOM      5  C   LIG    1        3.594   3.474   0.511  0.00  0.00    +0.040 C 
ATOM      6  C   LIG    1        2.299   3.986  -0.085  0.00  0.00    +0.200 C 
ATOM      7  C   LIG    1        2.636   5.338  -0.786  0.00  0.00    +0.190 C 
ATOM      8  N   LIG    1        1.477   5.472  -1.655  0.00  0.00    -0.730 N 
ATOM      9  H   LIG    1        1.059   6.296  -1.949  0.00  0.00    +0.440 HD
ATOM     10  C   LIG    1        1.098   4.204  -1.970  0.00  0.00    +0.710 C 
ATOM     11  O   LIG    1        0.307   3.941  -2.855  0.00  0.00    -0.570 OA
ATOM     12  N   LIG    1        1.696   3.263  -1.192  0.00  0.00    -0.630 N 
ATOM     13  C   LIG    1        2.831   6.349   0.328  0.00  0.00    +0.310 C 
ENDROOT
BRANCH  12  14
ATOM     14  C   LIG    1        1.723   1.816  -1.420  0.00  0.00    +0.290 C 
ATOM     15  C   LIG    1        0.291   1.275  -1.442  0.00  0.00    +0.050 C 
ATOM     16  C   LIG    1        0.322  -0.222  -1.759  0.00  0.00    +0.260 C 
ATOM     17  N   LIG    1        0.946  -0.435  -3.070  0.00  0.00    -0.380 N 
ATOM     18  C   LIG    1        2.342   0.016  -3.036  0.00  0.00    +0.260 C 
ATOM     19  H   LIG    1        0.443   0.089  -3.770  0.00  0.00    +0.430 HD
ATOM     20  C   LIG    1        2.389   1.522  -2.768  0.00  0.00    +0.040 C 
BRANCH  17  21
ATOM     21  C   LIG    1        0.903  -1.865  -3.405  0.00  0.00    +0.260 C 
BRANCH  21  22
ATOM     22  C   LIG    1        1.610  -2.097  -4.742  0.00  0.00    -0.040 C 
ATOM     23  C   LIG    1        0.715  -1.839  -5.965  0.00  0.00    +0.020 C 
ATOM     24  C   LIG    1        1.366  -3.080  -6.603  0.00  0.00    +0.030 C 
ATOM     25  C   LIG    1        1.643  -3.573  -5.173  0.00  0.00    +0.040 C 
ENDBRANCH  21  22
ENDBRANCH  17  21
ENDBRANCH  12  14
BRANCH   2  26
ATOM     26  C   LIG    1        6.146   6.191   2.212  0.00  0.00    +0.020 A 
ATOM     27  C   LIG    1        7.328   6.929   2.274  0.00  0.00    +0.310 A 
ATOM     28  N   LIG    1        8.333   6.499   3.016  0.00  0.00    -0.430 NA
ATOM     29  C   LIG    1        8.219   5.373   3.698  0.00  0.00    +0.270 A 
ATOM     30  C   LIG    1        7.044   4.637   3.638  0.00  0.00    +0.230 A 
ATOM     31  N   LIG    1        6.035   5.061   2.905  0.00  0.00    -0.410 NA
ENDBRANCH   2  26
TORSDOF 4
