REMARK  Name = ZINCrH000004omu2.0
REMARK                            x       y       z     vdW  Elec       q    Type
REMARK                         _______ _______ _______ _____ _____    ______ ____
ROOT
ATOM      1  N   LIG    1       -2.310   5.179  -0.694  0.00  0.00    -0.720 N 
ATOM      2  H   LIG    1       -1.419   5.543  -0.814  0.00  0.00    +0.400 HD
ATOM      3  C   LIG    1       -3.376   5.826  -1.206  0.00  0.00    +0.560 C 
ATOM      4  O   LIG    1       -4.494   5.370  -1.056  0.00  0.00    -0.510 OA
ENDROOT
BRANCH   3   5
ATOM      5  C   LIG    1       -3.188   7.085  -1.948  0.00  0.00    -0.130 A 
ATOM      6  C   LIG    1       -1.906   7.612  -2.123  0.00  0.00    +0.070 A 
ATOM      7  C   LIG    1       -1.736   8.790  -2.818  0.00  0.00    +0.000 A 
ATOM      8  C   LIG    1       -2.831   9.456  -3.346  0.00  0.00    +0.060 A 
ATOM      9  C   LIG    1       -4.103   8.949  -3.182  0.00  0.00    -0.020 A 
ATOM     10  C   LIG    1       -4.295   7.760  -2.489  0.00  0.00    -0.050 A 
BRANCH  10  11
ATOM     11  S   LIG    1       -5.918   7.105  -2.283  0.00  0.00    +0.050 S 
BRANCH  11  12
ATOM     12  C   LIG    1       -6.973   8.407  -2.977  0.00  0.00    -0.030 C 
ATOM     13  C   LIG    1       -8.425   7.907  -3.084  0.00  0.00    +0.110 C 
ATOM     14  C   LIG    1       -9.346   9.116  -3.345  0.00  0.00    -0.300 C 
ATOM     15  S   LIG    1       -8.487  10.542  -2.587  0.00  0.00    +2.390 S 
ATOM     16  O   LIG    1       -9.220  10.984  -1.453  0.00  0.00    -0.930 OA
ATOM     17  O   LIG    1       -8.123  11.467  -3.602  0.00  0.00    -0.930 OA
ATOM     18  C   LIG    1       -6.995   9.634  -2.029  0.00  0.00    -0.300 C 
ENDBRANCH  11  12
ENDBRANCH  10  11
ENDBRANCH   3   5
BRANCH   1  20
ATOM     19  C   LIG    1       -2.825   4.241   1.505  0.00  0.00    +0.040 C 
ATOM     20  C   LIG    1       -2.498   3.927   0.044  0.00  0.00    +0.300 C 
BRANCH  20  21
ATOM     21  C   LIG    1       -1.234   3.110  -0.024  0.00  0.00    -0.140 A 
ATOM     22  C   LIG    1       -0.018   3.734  -0.229  0.00  0.00    +0.080 A 
ATOM     23  C   LIG    1        1.143   2.986  -0.291  0.00  0.00    -0.010 A 
ATOM     24  C   LIG    1        1.089   1.610  -0.146  0.00  0.00    +0.130 A 
ATOM     25  C   LIG    1       -0.129   0.984   0.060  0.00  0.00    -0.040 A 
ATOM     26  F   LIG    1        2.223   0.879  -0.206  0.00  0.00    -0.130 F 
ATOM     27  C   LIG    1       -1.291   1.733   0.115  0.00  0.00    +0.140 A 
ATOM     28  F   LIG    1       -2.480   1.123   0.311  0.00  0.00    -0.120 F 
ENDBRANCH  20  21
ENDBRANCH   1  20
TORSDOF 5
