REMARK  Name = ZINCpk00000FboPZ.0
REMARK                            x       y       z     vdW  Elec       q    Type
REMARK                         _______ _______ _______ _____ _____    ______ ____
ROOT
ATOM      1  C   LIG    1       -0.756   1.594   1.262  0.00  0.00    +0.250 C 
ATOM      2  C   LIG    1       -1.545   2.819   0.722  0.00  0.00    +0.080 C 
ATOM      3  C   LIG    1       -1.915   2.349  -0.707  0.00  0.00    +0.280 C 
ATOM      4  N   LIG    1       -0.743   1.582  -1.167  0.00  0.00    -0.590 N 
ATOM      5  C   LIG    1       -0.013   1.086   0.008  0.00  0.00    +0.300 C 
ENDROOT
BRANCH   4   6
ATOM      6  C   LIG    1       -0.388   1.365  -2.494  0.00  0.00    +0.440 A 
ATOM      7  N   LIG    1        0.688   0.665  -2.771  0.00  0.00    -0.340 NA
ATOM      8  N   LIG    1        1.060   0.431  -4.096  0.00  0.00    -0.270 N 
ATOM      9  C   LIG    1        2.080  -0.235  -4.678  0.00  0.00    +0.210 A 
ATOM     10  N   LIG    1        1.938  -0.126  -5.976  0.00  0.00    -0.260 NA
ATOM     11  N   LIG    1        0.890   0.570  -6.250  0.00  0.00    -0.240 NA
ATOM     12  C   LIG    1        3.182  -0.973  -3.963  0.00  0.00    +0.210 C 
ATOM     13  C   LIG    1        0.305   0.942  -5.123  0.00  0.00    +0.110 A 
ATOM     14  C   LIG    1       -0.845   1.697  -4.825  0.00  0.00    +0.190 A 
ATOM     15  C   LIG    1       -1.183   1.903  -3.525  0.00  0.00    -0.020 A 
ENDBRANCH   4   6
BRANCH   1  16
ATOM     16  C   LIG    1        0.223   2.013   2.328  0.00  0.00    +0.030 A 
ATOM     17  N   LIG    1       -0.099   2.393   3.518  0.00  0.00    -0.400 NA
ATOM     18  C   LIG    1        0.884   2.727   4.330  0.00  0.00    +0.060 A 
ATOM     19  C   LIG    1        2.104   2.622   3.794  0.00  0.00    -0.080 A 
ATOM     20  C   LIG    1        0.652   3.187   5.745  0.00  0.00    +0.140 C 
ATOM     21  S   LIG    1        1.922   2.048   2.138  0.00  0.00    +0.120 S 
ENDBRANCH   1  16
BRANCH   1  24
ATOM     22  C   LIG    1       -3.361  -0.233   3.389  0.00  0.00    +0.080 C 
ATOM     23  C   LIG    1       -2.418   0.819   2.865  0.00  0.00    +0.500 C 
ATOM     24  N   LIG    1       -1.672   0.571   1.771  0.00  0.00    -0.720 N 
ATOM     25  H   LIG    1       -1.742  -0.285   1.320  0.00  0.00    +0.400 HD
ATOM     26  O   LIG    1       -2.331   1.890   3.429  0.00  0.00    -0.480 OA
ENDBRANCH   1  24
TORSDOF 3
