REMARK  Name = ZINCrD00000F5LDc.0
REMARK                            x       y       z     vdW  Elec       q    Type
REMARK                         _______ _______ _______ _____ _____    ______ ____
ROOT
ATOM      1  C   LIG    1       -1.710   2.926   0.503  0.00  0.00    +0.270 C 
ATOM      2  O   LIG    1       -1.444   3.184  -0.886  0.00  0.00    -0.360 OA
ATOM      3  C   LIG    1       -1.053   1.928  -1.481  0.00  0.00    +0.210 C 
ATOM      4  C   LIG    1       -0.156   1.278  -0.397  0.00  0.00    +0.030 C 
ATOM      5  C   LIG    1       -0.868   1.701   0.911  0.00  0.00    -0.030 C 
ENDROOT
BRANCH   1  12
ATOM      6  C   LIG    1        0.955   4.609   0.184  0.00  0.00    +0.160 C 
ATOM      7  C   LIG    1       -0.136   4.864   1.192  0.00  0.00    +0.110 A 
ATOM      8  N   LIG    1       -0.148   5.821   2.084  0.00  0.00    -0.290 NA
ATOM      9  N   LIG    1       -1.329   5.711   2.829  0.00  0.00    -0.330 N 
ATOM     10  C   LIG    1       -2.028   4.658   2.347  0.00  0.00    +0.110 A 
ATOM     11  C   LIG    1       -3.362   4.171   2.850  0.00  0.00    +0.150 C 
ATOM     12  C   LIG    1       -1.313   4.120   1.332  0.00  0.00    -0.240 A 
BRANCH   9  13
ATOM     13  C   LIG    1       -1.719   6.544   3.887  0.00  0.00    +0.150 A 
ATOM     14  C   LIG    1       -1.532   7.917   3.796  0.00  0.00    +0.020 A 
ATOM     15  C   LIG    1       -1.921   8.736   4.838  0.00  0.00    +0.030 A 
ATOM     16  C   LIG    1       -2.487   8.189   5.975  0.00  0.00    +0.010 A 
ATOM     17  C   LIG    1       -2.670   6.822   6.071  0.00  0.00    +0.030 A 
ATOM     18  C   LIG    1       -2.287   5.998   5.030  0.00  0.00    +0.000 A 
ENDBRANCH   9  13
ENDBRANCH   1  12
BRANCH   5  19
ATOM     19  C   LIG    1       -1.758   0.591   1.409  0.00  0.00    +0.530 C 
ATOM     20  N   LIG    1       -1.226  -0.600   1.745  0.00  0.00    -0.720 N 
ATOM     21  H   LIG    1       -0.270  -0.744   1.666  0.00  0.00    +0.400 HD
ATOM     22  O   LIG    1       -2.954   0.770   1.507  0.00  0.00    -0.530 OA
BRANCH  20  23
ATOM     23  C   LIG    1       -2.091  -1.679   2.229  0.00  0.00    +0.380 C 
BRANCH  23  24
ATOM     24  C   LIG    1       -1.255  -2.896   2.533  0.00  0.00    +0.040 A 
ATOM     25  C   LIG    1       -0.789  -3.166   3.756  0.00  0.00    -0.060 A 
ATOM     26  S   LIG    1        0.128  -4.668   3.667  0.00  0.00    +0.140 S 
ATOM     27  C   LIG    1       -0.198  -4.778   1.993  0.00  0.00    +0.220 A 
ATOM     28  N   LIG    1       -0.918  -3.777   1.613  0.00  0.00    -0.460 NA
ENDBRANCH  23  24
ENDBRANCH  20  23
ENDBRANCH   5  19
TORSDOF 5
