REMARK  Name = ZINCrD00000l7KUH.0
REMARK                            x       y       z     vdW  Elec       q    Type
REMARK                         _______ _______ _______ _____ _____    ______ ____
ROOT
ATOM      1  N   LIG    1       -2.253  -1.422  -0.045  0.00  0.00    -0.720 N 
ATOM      2  H   LIG    1       -2.186  -1.099  -0.957  0.00  0.00    +0.400 HD
ATOM      3  C   LIG    1       -3.418  -1.926   0.408  0.00  0.00    +0.560 C 
ATOM      4  O   LIG    1       -3.502  -2.330   1.551  0.00  0.00    -0.530 OA
ENDROOT
BRANCH   3   5
ATOM      5  C   LIG    1       -4.594  -1.987  -0.486  0.00  0.00    -0.100 A 
ATOM      6  C   LIG    1       -4.498  -1.518  -1.797  0.00  0.00    +0.020 A 
ATOM      7  C   LIG    1       -5.599  -1.583  -2.630  0.00  0.00    +0.070 A 
ATOM      8  C   LIG    1       -6.788  -2.100  -2.163  0.00  0.00    -0.120 A 
ATOM      9  C   LIG    1       -8.142  -2.298  -2.807  0.00  0.00    +0.140 C 
ATOM     10  C   LIG    1       -8.984  -2.917  -1.712  0.00  0.00    +0.530 C 
ATOM     11  N   LIG    1       -8.199  -3.037  -0.629  0.00  0.00    -0.660 N 
ATOM     12  H   LIG    1       -8.497  -3.409   0.217  0.00  0.00    +0.420 HD
ATOM     13  O   LIG    1      -10.149  -3.244  -1.797  0.00  0.00    -0.500 OA
ATOM     14  C   LIG    1       -6.905  -2.567  -0.859  0.00  0.00    +0.140 A 
ATOM     15  C   LIG    1       -5.798  -2.509  -0.018  0.00  0.00    +0.060 A 
ENDBRANCH   3   5
BRANCH   1  16
ATOM     16  C   LIG    1       -1.088  -1.361   0.841  0.00  0.00    +0.280 C 
BRANCH  16  20
ATOM     17  N   LIG    1        2.017   0.603   0.700  0.00  0.00    -0.470 N 
ATOM     18  C   LIG    1        1.258   1.306  -0.357  0.00  0.00    +0.190 C 
ATOM     19  C   LIG    1       -0.180   0.737  -0.255  0.00  0.00    +0.030 C 
ATOM     20  C   LIG    1        0.096  -0.751   0.087  0.00  0.00    -0.030 C 
ATOM     21  C   LIG    1        1.343  -0.675   0.992  0.00  0.00    +0.210 C 
BRANCH  17  29
ATOM     22  C   LIG    1        3.688  -0.949   2.400  0.00  0.00    +0.100 C 
ATOM     23  C   LIG    1        4.193  -0.359   1.108  0.00  0.00    -0.100 A 
ATOM     24  C   LIG    1        5.502  -0.565   0.719  0.00  0.00    +0.050 A 
ATOM     25  C   LIG    1        5.966  -0.024  -0.466  0.00  0.00    +0.000 A 
ATOM     26  C   LIG    1        5.121   0.727  -1.265  0.00  0.00    -0.010 A 
ATOM     27  C   LIG    1        3.808   0.932  -0.883  0.00  0.00    -0.020 A 
ATOM     28 CL   LIG    1        5.708   1.404  -2.752  0.00  0.00    -0.070 Cl
ATOM     29  C   LIG    1        3.341   0.394   0.308  0.00  0.00    +0.120 A 
ENDBRANCH  17  29
ENDBRANCH  16  20
ENDBRANCH   1  16
TORSDOF 4
