REMARK  Name = ZINCqH0000050KgT.0
REMARK                            x       y       z     vdW  Elec       q    Type
REMARK                         _______ _______ _______ _____ _____    ______ ____
ROOT
ATOM      1  C   LIG    1       -1.282   2.151  -0.457  0.00  0.00    -0.000 A 
ATOM      2  C   LIG    1       -1.343   3.511  -0.083  0.00  0.00    -0.190 A 
ATOM      3  C   LIG    1       -0.372   4.479   0.252  0.00  0.00    +0.120 A 
ATOM      4  N   LIG    1       -0.979   5.599   0.523  0.00  0.00    -0.240 NA
ATOM      5  N   LIG    1       -2.362   5.434   0.384  0.00  0.00    -0.390 N 
ATOM      6  C   LIG    1       -3.377   6.467   0.603  0.00  0.00    +0.360 C 
ATOM      7  C   LIG    1        1.117   4.254   0.290  0.00  0.00    +0.170 C 
ATOM      8  C   LIG    1       -2.603   4.138   0.007  0.00  0.00    +0.320 A 
ATOM      9  N   LIG    1       -3.707   3.456  -0.258  0.00  0.00    -0.480 NA
ATOM     10  C   LIG    1       -3.676   2.189  -0.608  0.00  0.00    +0.230 A 
ATOM     11  C   LIG    1       -2.482   1.496  -0.727  0.00  0.00    -0.030 A 
ENDROOT
BRANCH   1  14
ATOM     12  N   LIG    1        0.116   0.160  -0.175  0.00  0.00    -0.720 N 
ATOM     13  H   LIG    1       -0.659  -0.302   0.180  0.00  0.00    +0.400 HD
ATOM     14  C   LIG    1        0.014   1.446  -0.566  0.00  0.00    +0.560 C 
ATOM     15  O   LIG    1        0.985   2.025  -1.011  0.00  0.00    -0.510 OA
BRANCH  12  16
ATOM     16  C   LIG    1        1.399  -0.540  -0.288  0.00  0.00    +0.340 C 
ATOM     17  C   LIG    1        2.249  -0.249   0.950  0.00  0.00    +0.040 C 
BRANCH  16  22
ATOM     18  C   LIG    1       -0.086  -5.756   0.029  0.00  0.00    +0.180 C 
ATOM     19  C   LIG    1        0.477  -4.385  -0.244  0.00  0.00    +0.060 A 
ATOM     20  N   LIG    1        1.360  -4.114  -1.146  0.00  0.00    -0.470 NA
ATOM     21  C   LIG    1        1.745  -2.858  -1.252  0.00  0.00    +0.090 A 
ATOM     22  C   LIG    1        1.154  -2.023  -0.393  0.00  0.00    -0.250 A 
ATOM     23  C   LIG    1        2.767  -2.402  -2.261  0.00  0.00    +0.150 C 
ATOM     24  S   LIG    1        0.044  -2.963   0.601  0.00  0.00    +0.120 S 
ENDBRANCH  16  22
ENDBRANCH  12  16
ENDBRANCH   1  14
BRANCH  10  25
ATOM     25  C   LIG    1       -4.972   1.474  -0.894  0.00  0.00    +0.020 C 
ATOM     26  C   LIG    1       -4.894   0.148  -1.653  0.00  0.00    +0.040 C 
ATOM     27  C   LIG    1       -5.431   1.400  -2.352  0.00  0.00    +0.050 C 
ENDBRANCH  10  25
TORSDOF 4
