REMARK  Name = ZINCkj000005g9J3.1
REMARK                            x       y       z     vdW  Elec       q    Type
REMARK                         _______ _______ _______ _____ _____    ______ ____
ROOT
ATOM      1  C   LIG    1       -0.605   3.526   7.290  0.00  0.00    +0.660 C 
ATOM      2  N   LIG    1       -0.934   2.829   6.184  0.00  0.00    -0.620 N 
ATOM      3  C   LIG    1       -0.823   1.363   6.153  0.00  0.00    +0.340 C 
ATOM      4  C   LIG    1       -0.037   0.962   4.901  0.00  0.00    +0.270 C 
ATOM      5  N   LIG    1       -0.676   1.546   3.715  0.00  0.00    -0.380 N 
ATOM      6  C   LIG    1       -0.600   3.011   3.777  0.00  0.00    +0.260 C 
ATOM      7  H   LIG    1       -1.644   1.263   3.683  0.00  0.00    +0.430 HD
ATOM      8  C   LIG    1       -1.414   3.514   4.974  0.00  0.00    +0.330 C 
ATOM      9  O   LIG    1       -0.210   2.943   8.280  0.00  0.00    -0.550 OA
ENDROOT
BRANCH   1  10
ATOM     10  O   LIG    1       -0.714   4.868   7.297  0.00  0.00    -0.370 OA
BRANCH  10  12
ATOM     11  C   LIG    1       -0.532   7.061   8.342  0.00  0.00    +0.070 C 
ATOM     12  C   LIG    1       -0.343   5.553   8.523  0.00  0.00    +0.240 C 
ENDBRANCH  10  12
ENDBRANCH   1  10
BRANCH   5  13
ATOM     13  C   LIG    1        0.011   1.072   2.506  0.00  0.00    +0.270 C 
BRANCH  13  14
ATOM     14  C   LIG    1       -0.729   1.579   1.267  0.00  0.00    +0.030 C 
BRANCH  14  15
ATOM     15  C   LIG    1       -0.013   1.086   0.008  0.00  0.00    +0.310 C 
BRANCH  15  16
ATOM     16  N   LIG    1       -0.721   1.571  -1.179  0.00  0.00    -0.470 N 
ATOM     17  C   LIG    1       -1.672   0.892  -1.892  0.00  0.00    +0.120 A 
ATOM     18  C   LIG    1       -2.057   1.700  -2.897  0.00  0.00    +0.170 A 
ATOM     19  N   LIG    1       -1.361   2.843  -2.801  0.00  0.00    -0.480 NA
ATOM     20  C   LIG    1       -0.563   2.775  -1.770  0.00  0.00    +0.210 A 
ATOM     21  C   LIG    1        0.382   3.858  -1.318  0.00  0.00    +0.190 C 
ENDBRANCH  15  16
ENDBRANCH  14  15
ENDBRANCH  13  14
ENDBRANCH   5  13
TORSDOF 6
