REMARK  Name = ZINCrg000000rSZY.0
REMARK                            x       y       z     vdW  Elec       q    Type
REMARK                         _______ _______ _______ _____ _____    ______ ____
ROOT
ATOM      1  C   LIG    1       -5.232  10.975  -0.196  0.00  0.00    -0.080 A 
ATOM      2  C   LIG    1       -6.466  10.350  -0.185  0.00  0.00    +0.020 A 
ATOM      3  C   LIG    1       -6.546   8.973  -0.093  0.00  0.00    +0.040 A 
ATOM      4  C   LIG    1       -5.393   8.216  -0.018  0.00  0.00    +0.030 A 
ATOM      5  C   LIG    1       -4.153   8.841  -0.022  0.00  0.00    +0.150 A 
ATOM      6  C   LIG    1       -4.076  10.224  -0.115  0.00  0.00    +0.010 A 
ENDROOT
BRANCH   1   8
ATOM      7  C   LIG    1       -5.087  13.105   1.097  0.00  0.00    +0.100 C 
ATOM      8  C   LIG    1       -5.150  12.476  -0.297  0.00  0.00    +0.170 C 
ATOM      9  N   LIG    1       -3.984  12.878  -1.103  0.00  0.00    -0.720 N 
ATOM     10  H   LIG    1       -3.052  12.696  -0.906  0.00  0.00    +0.440 HD
ATOM     11  C   LIG    1       -4.465  13.548  -2.167  0.00  0.00    +0.710 C 
ATOM     12  N   LIG    1       -5.800  13.634  -2.156  0.00  0.00    -0.680 N 
ATOM     13  H   LIG    1       -6.323  14.080  -2.840  0.00  0.00    +0.440 HD
ATOM     14  O   LIG    1       -3.764  14.022  -3.039  0.00  0.00    -0.540 OA
ATOM     15  C   LIG    1       -6.328  13.024  -1.076  0.00  0.00    +0.540 C 
ATOM     16  O   LIG    1       -7.503  12.934  -0.788  0.00  0.00    -0.450 OA
ENDBRANCH   1   8
BRANCH   5  17
ATOM     17  N   LIG    1       -2.983   8.077   0.061  0.00  0.00    -0.670 N 
ATOM     18  H   LIG    1       -2.180   8.369  -0.399  0.00  0.00    +0.410 HD
ATOM     19  C   LIG    1       -2.972   6.937   0.779  0.00  0.00    +0.520 C 
ATOM     20  O   LIG    1       -3.945   6.622   1.431  0.00  0.00    -0.510 OA
BRANCH  19  21
ATOM     21  C   LIG    1       -1.751   6.054   0.772  0.00  0.00    +0.070 C 
BRANCH  21  22
ATOM     22  C   LIG    1       -1.998   4.834   1.662  0.00  0.00    +0.290 C 
BRANCH  22  23
ATOM     23  N   LIG    1       -0.811   3.976   1.655  0.00  0.00    -0.720 N 
ATOM     24  H   LIG    1       -0.034   4.228   1.134  0.00  0.00    +0.410 HD
ATOM     25  C   LIG    1       -0.800   2.836   2.374  0.00  0.00    +0.610 C 
ATOM     26  O   LIG    1       -1.776   2.519   3.028  0.00  0.00    -0.510 OA
BRANCH  25  27
ATOM     27  C   LIG    1        0.388   1.976   2.367  0.00  0.00    -0.090 A 
ATOM     28  C   LIG    1        0.532   0.801   3.047  0.00  0.00    +0.050 A 
ATOM     29  C   LIG    1        1.816   0.317   2.749  0.00  0.00    -0.060 A 
ATOM     30  C   LIG    1        2.392   1.207   1.912  0.00  0.00    +0.210 A 
ATOM     31  O   LIG    1        1.529   2.206   1.684  0.00  0.00    -0.170 OA
ENDBRANCH  25  27
ENDBRANCH  22  23
ENDBRANCH  21  22
ENDBRANCH  19  21
ENDBRANCH   5  17
TORSDOF 6
