REMARK  Name = ZINCvU00000006PE.0
REMARK                            x       y       z     vdW  Elec       q    Type
REMARK                         _______ _______ _______ _____ _____    ______ ____
ROOT
ATOM      1  C   LIG    1       -1.386   3.799   2.702  0.00  0.00    -0.120 A 
ATOM      2  C   LIG    1       -2.006   2.868   3.537  0.00  0.00    +0.050 A 
ATOM      3  C   LIG    1       -2.765   3.300   4.606  0.00  0.00    +0.030 A 
ATOM      4  C   LIG    1       -2.923   4.652   4.846  0.00  0.00    +0.060 A 
ATOM      5  C   LIG    1       -2.315   5.585   4.017  0.00  0.00    +0.070 A 
ATOM      6  C   LIG    1       -1.546   5.163   2.945  0.00  0.00    +0.090 A 
ENDROOT
BRANCH   1   8
ATOM      7  O   LIG    1       -0.032   4.152   0.830  0.00  0.00    -0.530 OA
ATOM      8  C   LIG    1       -0.567   3.340   1.559  0.00  0.00    +0.560 C 
ATOM      9  N   LIG    1       -0.413   2.021   1.327  0.00  0.00    -0.720 N 
ATOM     10  H   LIG    1       -0.840   1.373   1.909  0.00  0.00    +0.400 HD
BRANCH   9  11
ATOM     11  C   LIG    1        0.399   1.567   0.195  0.00  0.00    +0.320 C 
BRANCH  11  12
ATOM     12  C   LIG    1        0.409   0.060   0.157  0.00  0.00    -0.110 A 
ATOM     13  C   LIG    1        1.388  -0.641   0.836  0.00  0.00    +0.020 A 
ATOM     14  C   LIG    1        1.395  -2.023   0.805  0.00  0.00    +0.010 A 
ATOM     15  C   LIG    1        0.429  -2.703   0.088  0.00  0.00    +0.010 A 
ATOM     16  C   LIG    1       -0.547  -2.002  -0.596  0.00  0.00    +0.010 A 
ATOM     17  C   LIG    1       -0.557  -0.620  -0.561  0.00  0.00    +0.030 A 
ENDBRANCH  11  12
ENDBRANCH   9  11
ENDBRANCH   1   8
BRANCH   5  18
ATOM     18  O   LIG    1       -2.474   6.913   4.257  0.00  0.00    -0.220 OA
BRANCH  18  19
ATOM     19  C   LIG    1       -3.241   7.626   3.401  0.00  0.00    +0.410 A 
ATOM     20  N   LIG    1       -3.908   7.027   2.426  0.00  0.00    -0.550 NA
ATOM     21  C   LIG    1       -4.667   7.712   1.584  0.00  0.00    +0.280 A 
ATOM     22  N   LIG    1       -4.804   9.015   1.645  0.00  0.00    -0.470 NA
ATOM     23  C   LIG    1       -4.169   9.720   2.592  0.00  0.00    +0.180 A 
ATOM     24  C   LIG    1       -4.292  11.113   2.689  0.00  0.00    +0.050 A 
ATOM     25  C   LIG    1       -3.623  11.781   3.670  0.00  0.00    +0.070 A 
ATOM     26  C   LIG    1       -2.818  11.102   4.580  0.00  0.00    +0.030 A 
ATOM     27  C   LIG    1       -2.676   9.748   4.516  0.00  0.00    +0.090 A 
ATOM     28  C   LIG    1       -3.349   9.031   3.520  0.00  0.00    -0.140 A 
BRANCH  21  29
ATOM     29  C   LIG    1       -5.400   6.961   0.503  0.00  0.00    +0.550 C 
ATOM     30  F   LIG    1       -6.385   7.786  -0.052  0.00  0.00    -0.150 F 
ATOM     31  F   LIG    1       -6.001   5.822   1.051  0.00  0.00    -0.160 F 
ATOM     32  F   LIG    1       -4.497   6.577  -0.494  0.00  0.00    -0.160 F 
ENDBRANCH  21  29
ENDBRANCH  18  19
ENDBRANCH   5  18
TORSDOF 6
