REMARK  Name = ZINCrH000004lXK0.0
REMARK                            x       y       z     vdW  Elec       q    Type
REMARK                         _______ _______ _______ _____ _____    ______ ____
ROOT
ATOM      1  C   LIG    1        0.009   1.347   0.015  0.00  0.00    +0.560 C 
ATOM      2  N   LIG    1       -0.003   0.096   0.517  0.00  0.00    -0.600 N 
ATOM      3  C   LIG    1        1.238  -0.532   0.990  0.00  0.00    +0.270 C 
ATOM      4  C   LIG    1        1.019  -1.022   2.430  0.00  0.00    +0.000 C 
ATOM      5  C   LIG    1       -0.205  -1.940   2.469  0.00  0.00    +0.240 C 
ATOM      6  C   LIG    1       -1.446  -1.158   2.033  0.00  0.00    +0.010 C 
ATOM      7  C   LIG    1       -1.256  -0.667   0.594  0.00  0.00    +0.280 C 
ATOM      8  O   LIG    1       -1.019   1.844  -0.403  0.00  0.00    -0.530 OA
ENDROOT
BRANCH   1  11
ATOM      9  C   LIG    1        2.443   4.213   0.077  0.00  0.00    +0.160 A 
ATOM     10  C   LIG    1        1.256   3.500   0.121  0.00  0.00    -0.040 A 
ATOM     11  C   LIG    1        1.273   2.113  -0.031  0.00  0.00    -0.060 A 
ATOM     12  C   LIG    1        2.486   1.451  -0.223  0.00  0.00    -0.080 A 
ATOM     13  C   LIG    1        3.667   2.172  -0.270  0.00  0.00    +0.160 A 
ATOM     14  C   LIG    1        3.646   3.551  -0.119  0.00  0.00    -0.130 A 
ATOM     15  C   LIG    1        4.934   4.332  -0.166  0.00  0.00    +0.110 C 
BRANCH   9  17
ATOM     16  C   LIG    1        1.155   6.181   0.424  0.00  0.00    +0.250 C 
ATOM     17  O   LIG    1        2.428   5.564   0.226  0.00  0.00    -0.310 OA
ENDBRANCH   9  17
BRANCH  13  18
ATOM     18  O   LIG    1        4.848   1.528  -0.461  0.00  0.00    -0.300 OA
ATOM     19  C   LIG    1        4.796   0.108  -0.610  0.00  0.00    +0.250 C 
ENDBRANCH  13  18
ENDBRANCH   1  11
BRANCH   5  20
ATOM     20  N   LIG    1       -0.396  -2.439   3.833  0.00  0.00    -0.630 N 
ATOM     21  C   LIG    1       -0.740  -1.509   4.912  0.00  0.00    +0.280 C 
BRANCH  20  22
ATOM     22  C   LIG    1       -0.252  -3.801   4.106  0.00  0.00    +0.220 A 
ATOM     23  C   LIG    1       -0.319  -4.260   5.415  0.00  0.00    -0.080 A 
ATOM     24  C   LIG    1       -0.180  -5.608   5.681  0.00  0.00    +0.050 A 
ATOM     25  C   LIG    1        0.036  -6.500   4.646  0.00  0.00    -0.060 A 
ATOM     26  C   LIG    1        0.109  -6.045   3.342  0.00  0.00    +0.050 A 
ATOM     27  C   LIG    1       -0.034  -4.699   3.069  0.00  0.00    -0.080 A 
ENDBRANCH  20  22
ENDBRANCH   5  20
TORSDOF 5
