REMARK  Name = ZINCpk00000C5jrJ.0
REMARK                            x       y       z     vdW  Elec       q    Type
REMARK                         _______ _______ _______ _____ _____    ______ ____
ROOT
ATOM      1  C   LIG    1        0.427  -5.641   3.583  0.00  0.00    +0.160 A 
ATOM      2  C   LIG    1        0.577  -6.367   2.408  0.00  0.00    +0.030 A 
ATOM      3  C   LIG    1        0.890  -5.719   1.226  0.00  0.00    +0.060 A 
ATOM      4  C   LIG    1        1.053  -4.353   1.212  0.00  0.00    -0.090 A 
ATOM      5  C   LIG    1        1.382  -3.365   0.120  0.00  0.00    +0.350 C 
ATOM      6  N   LIG    1        1.414  -2.044   0.758  0.00  0.00    -0.600 N 
ATOM      7  C   LIG    1        1.135  -2.188   2.065  0.00  0.00    +0.570 C 
ATOM      8  O   LIG    1        1.081  -1.277   2.868  0.00  0.00    -0.510 OA
ATOM      9  C   LIG    1        0.904  -3.610   2.385  0.00  0.00    -0.130 A 
ATOM     10  C   LIG    1        0.589  -4.264   3.576  0.00  0.00    +0.100 A 
ENDROOT
BRANCH   6  11
ATOM     11  C   LIG    1        1.697  -0.776   0.081  0.00  0.00    +0.290 C 
ATOM     12  C   LIG    1        2.926  -0.119   0.718  0.00  0.00    +0.060 C 
ATOM     13  C   LIG    1        3.135   1.254   0.070  0.00  0.00    +0.100 C 
ATOM     14  C   LIG    1        1.875   2.065   0.213  0.00  0.00    +0.520 C 
ATOM     15  N   LIG    1        0.671   1.476   0.273  0.00  0.00    -0.670 N 
ATOM     16  H   LIG    1       -0.118   2.035   0.353  0.00  0.00    +0.420 HD
ATOM     17  O   LIG    1        1.949   3.274   0.274  0.00  0.00    -0.500 OA
ATOM     18  C   LIG    1        0.514   0.145   0.222  0.00  0.00    +0.510 C 
ATOM     19  O   LIG    1       -0.601  -0.326   0.291  0.00  0.00    -0.480 OA
ENDBRANCH   6  11
BRANCH   1  21
ATOM     20  C   LIG    1       -0.663  -5.694   5.698  0.00  0.00    +0.650 C 
ATOM     21  N   LIG    1        0.111  -6.301   4.776  0.00  0.00    -0.650 N 
ATOM     22  H   LIG    1        0.448  -7.196   4.940  0.00  0.00    +0.420 HD
ATOM     23  O   LIG    1       -1.165  -4.614   5.454  0.00  0.00    -0.550 OA
BRANCH  20  24
ATOM     24  O   LIG    1       -0.879  -6.283   6.889  0.00  0.00    -0.360 OA
BRANCH  24  25
ATOM     25  C   LIG    1       -1.722  -5.571   7.833  0.00  0.00    +0.220 C 
BRANCH  25  27
ATOM     26  C   LIG    1       -2.739  -5.639  10.114  0.00  0.00    +0.040 C 
ATOM     27  C   LIG    1       -1.851  -6.389   9.119  0.00  0.00    +0.040 C 
ENDBRANCH  25  27
ENDBRANCH  24  25
ENDBRANCH  20  24
ENDBRANCH   1  21
TORSDOF 5
