REMARK  Name = ZINCrD000000AzwE.0
REMARK                            x       y       z     vdW  Elec       q    Type
REMARK                         _______ _______ _______ _____ _____    ______ ____
ROOT
ATOM      1  C   LIG    1       -0.718   1.572   1.248  0.00  0.00    -0.010 A 
ATOM      2  C   LIG    1       -0.360   2.779   1.819  0.00  0.00    +0.000 A 
ATOM      3  C   LIG    1       -1.010   3.227   2.953  0.00  0.00    +0.120 A 
ATOM      4  C   LIG    1       -2.012   2.463   3.523  0.00  0.00    -0.670 A 
ATOM      5  C   LIG    1       -2.366   1.254   2.955  0.00  0.00    +0.120 A 
ATOM      6  C   LIG    1       -1.719   0.808   1.818  0.00  0.00    +0.000 A 
ENDROOT
BRANCH   4   7
ATOM      7  S   LIG    1       -2.837   3.032   4.972  0.00  0.00    +2.690 S 
ATOM      8  O   LIG    1       -4.102   2.385   4.994  0.00  0.00    -0.950 OA
ATOM      9  O   LIG    1       -2.687   4.445   4.991  0.00  0.00    -0.950 OA
BRANCH   7  10
ATOM     10  N   LIG    1       -1.994   2.454   6.275  0.00  0.00    -1.000 NA
ATOM     11  C   LIG    1       -2.333   1.153   6.869  0.00  0.00    +0.290 C 
ATOM     12  C   LIG    1       -1.060   0.295   6.925  0.00  0.00    +0.010 C 
ATOM     13  C   LIG    1        0.033   1.062   7.674  0.00  0.00    +0.010 C 
ATOM     14  C   LIG    1        0.357   2.356   6.923  0.00  0.00    +0.010 C 
ATOM     15  C   LIG    1       -0.897   3.235   6.863  0.00  0.00    +0.290 C 
ENDBRANCH   7  10
ENDBRANCH   4   7
BRANCH   1  16
ATOM     16  C   LIG    1       -0.013   1.086   0.008  0.00  0.00    +0.110 C 
BRANCH  16  18
ATOM     17  O   LIG    1       -1.736   2.268  -1.088  0.00  0.00    -0.520 OA
ATOM     18  C   LIG    1       -0.742   1.585  -1.213  0.00  0.00    +0.520 C 
ATOM     19  N   LIG    1       -0.288   1.272  -2.443  0.00  0.00    -0.730 N 
ATOM     20  H   LIG    1        0.507   0.726  -2.543  0.00  0.00    +0.400 HD
BRANCH  19  21
ATOM     21  C   LIG    1       -0.997   1.758  -3.630  0.00  0.00    +0.320 C 
BRANCH  21  22
ATOM     22  C   LIG    1       -0.292   1.272  -4.870  0.00  0.00    -0.110 A 
ATOM     23  C   LIG    1        0.706   2.038  -5.443  0.00  0.00    +0.040 A 
ATOM     24  C   LIG    1        1.356   1.591  -6.577  0.00  0.00    +0.030 A 
ATOM     25  C   LIG    1        1.002   0.381  -7.146  0.00  0.00    -0.030 A 
ATOM     26  C   LIG    1       -0.000  -0.384  -6.575  0.00  0.00    +0.030 A 
ATOM     27 CL   LIG    1        1.813  -0.178  -8.575  0.00  0.00    -0.060 Cl
ATOM     28  C   LIG    1       -0.646   0.062  -5.437  0.00  0.00    +0.040 A 
ENDBRANCH  21  22
ENDBRANCH  19  21
ENDBRANCH  16  18
ENDBRANCH   1  16
TORSDOF 6
