REMARK  Name = ZINCvU00000009YQ.0
REMARK                            x       y       z     vdW  Elec       q    Type
REMARK                         _______ _______ _______ _____ _____    ______ ____
ROOT
ATOM      1  C   LIG    1       -2.729   0.162   0.029  0.00  0.00    +0.090 C 
ENDROOT
BRANCH   1   2
ATOM      2  C   LIG    1       -4.064  -0.538   0.037  0.00  0.00    +0.450 C 
ATOM      3  O   LIG    1       -4.113  -1.750   0.031  0.00  0.00    -0.460 OA
BRANCH   2   7
ATOM      4  C   LIG    1       -7.347   3.358   0.091  0.00  0.00    +0.140 C 
ATOM      5  C   LIG    1       -6.739   1.979   0.077  0.00  0.00    +0.010 A 
ATOM      6  C   LIG    1       -5.423   1.709   0.062  0.00  0.00    +0.000 A 
ATOM      7  C   LIG    1       -5.301   0.245   0.053  0.00  0.00    -0.270 A 
ATOM      8  C   LIG    1       -6.595  -0.242   0.057  0.00  0.00    +0.130 A 
ATOM      9  C   LIG    1       -6.992  -1.696   0.045  0.00  0.00    +0.150 C 
ATOM     10  N   LIG    1       -7.437   0.806   0.077  0.00  0.00    -0.430 N 
BRANCH  10  11
ATOM     11  C   LIG    1       -8.899   0.704   0.091  0.00  0.00    +0.390 C 
BRANCH  11  12
ATOM     12  C   LIG    1       -9.413   0.677  -1.325  0.00  0.00    -0.220 A 
ATOM     13  C   LIG    1       -9.595  -0.424  -2.057  0.00  0.00    +0.030 A 
ATOM     14  C   LIG    1      -10.082  -0.202  -3.333  0.00  0.00    +0.000 A 
ATOM     15  C   LIG    1      -10.287   1.080  -3.642  0.00  0.00    -0.030 A 
ATOM     16  S   LIG    1       -9.860   2.092  -2.269  0.00  0.00    +0.120 S 
ENDBRANCH  11  12
ENDBRANCH  10  11
ENDBRANCH   2   7
ENDBRANCH   1   2
BRANCH   1  17
ATOM     17  S   LIG    1       -1.402  -1.068   0.009  0.00  0.00    +0.130 S 
BRANCH  17  18
ATOM     18  C   LIG    1        0.002  -0.004   0.002  0.00  0.00    +0.140 A 
ATOM     19  N   LIG    1       -0.016   1.307   0.009  0.00  0.00    -0.290 NA
ATOM     20  N   LIG    1        1.192   1.749   0.000  0.00  0.00    -0.240 NA
ATOM     21  C   LIG    1        2.022   0.748  -0.013  0.00  0.00    +0.150 A 
ATOM     22  O   LIG    1        1.293  -0.386  -0.012  0.00  0.00    -0.200 OA
BRANCH  21  23
ATOM     23  C   LIG    1        3.527   0.838  -0.027  0.00  0.00    +0.380 C 
BRANCH  23  24
ATOM     24  O   LIG    1        4.015   0.860   1.316  0.00  0.00    -0.310 OA
BRANCH  24  25
ATOM     25  C   LIG    1        5.362   0.940   1.481  0.00  0.00    +0.130 A 
ATOM     26  C   LIG    1        6.196   0.991   0.374  0.00  0.00    -0.060 A 
ATOM     27  C   LIG    1        7.564   1.076   0.545  0.00  0.00    +0.070 A 
ATOM     28  C   LIG    1        8.103   1.102   1.819  0.00  0.00    -0.070 A 
ATOM     29  C   LIG    1        7.273   1.046   2.924  0.00  0.00    +0.070 A 
ATOM     30 CL   LIG    1        9.823   1.203   2.030  0.00  0.00    -0.070 Cl
ATOM     31  C   LIG    1        5.904   0.965   2.758  0.00  0.00    +0.010 A 
ENDBRANCH  24  25
ENDBRANCH  23  24
ENDBRANCH  21  23
ENDBRANCH  17  18
ENDBRANCH   1  17
TORSDOF 9
