REMARK  Name = ZINCrD00000F5LxF.0
REMARK                            x       y       z     vdW  Elec       q    Type
REMARK                         _______ _______ _______ _____ _____    ______ ____
ROOT
ATOM      1  C   LIG    1        4.565   4.714   2.241  0.00  0.00    -0.080 C 
ATOM      2  C   LIG    1        3.360   4.106   2.266  0.00  0.00    +0.130 C 
ENDROOT
BRANCH   2   3
ATOM      3  C   LIG    1        2.890   3.356   1.092  0.00  0.00    -0.050 A 
ATOM      4  C   LIG    1        3.692   3.271  -0.052  0.00  0.00    +0.060 A 
ATOM      5  C   LIG    1        3.251   2.566  -1.153  0.00  0.00    -0.040 A 
ATOM      6  C   LIG    1        2.011   1.942  -1.125  0.00  0.00    +0.090 A 
ATOM      7  O   LIG    1        1.571   1.244  -2.211  0.00  0.00    -0.310 OA
ATOM      8  C   LIG    1        1.475  -0.172  -2.047  0.00  0.00    +0.230 C 
ATOM      9  C   LIG    1        0.149  -0.553  -1.408  0.00  0.00    +0.000 C 
ATOM     10  C   LIG    1        0.017  -0.024   0.011  0.00  0.00    +0.230 C 
ATOM     11  O   LIG    1       -0.008   1.405   0.019  0.00  0.00    -0.310 OA
ATOM     12  C   LIG    1        1.209   2.023   0.009  0.00  0.00    +0.080 A 
ATOM     13 CL   LIG    1        4.245   2.460  -2.572  0.00  0.00    -0.040 Cl
ATOM     14  C   LIG    1        1.640   2.725   1.116  0.00  0.00    +0.060 A 
ENDBRANCH   2   3
BRANCH   1  20
ATOM     15  C   LIG    1        9.079   6.042   3.799  0.00  0.00    +0.030 C 
ATOM     16  C   LIG    1        8.136   5.985   5.004  0.00  0.00    +0.050 C 
ATOM     17  C   LIG    1        6.799   6.633   4.631  0.00  0.00    +0.280 C 
ATOM     18  N   LIG    1        6.276   5.978   3.425  0.00  0.00    -0.610 N 
ATOM     19  C   LIG    1        7.138   5.891   2.238  0.00  0.00    +0.290 C 
ATOM     20  C   LIG    1        5.031   5.461   3.408  0.00  0.00    +0.550 C 
ATOM     21  O   LIG    1        4.296   5.616   4.366  0.00  0.00    -0.540 OA
ATOM     22  C   LIG    1        8.470   5.256   2.636  0.00  0.00    +0.040 C 
BRANCH  15  23
ATOM     23  C   LIG    1       10.407   5.436   4.173  0.00  0.00    +0.460 C 
ATOM     24  O   LIG    1       10.582   5.003   5.287  0.00  0.00    -0.500 OA
BRANCH  23  25
ATOM     25  O   LIG    1       11.396   5.376   3.267  0.00  0.00    -0.360 OA
BRANCH  25  27
ATOM     26  C   LIG    1       13.647   4.800   2.537  0.00  0.00    +0.070 C 
ATOM     27  C   LIG    1       12.648   4.779   3.696  0.00  0.00    +0.200 C 
ENDBRANCH  25  27
ENDBRANCH  23  25
ENDBRANCH  15  23
ENDBRANCH   1  20
TORSDOF 5
