REMARK  Name = ZINCvU0000000IPO.0
REMARK                            x       y       z     vdW  Elec       q    Type
REMARK                         _______ _______ _______ _____ _____    ______ ____
ROOT
ATOM      1  C   LIG    1        1.246  -2.161  -0.022  0.00  0.00    +0.240 A 
ATOM      2  N   LIG    1        0.202  -2.954  -0.011  0.00  0.00    -0.280 NA
ATOM      3  N   LIG    1        0.595  -4.179  -0.027  0.00  0.00    -0.280 NA
ATOM      4  C   LIG    1        1.907  -4.217  -0.039  0.00  0.00    +0.110 A 
ATOM      5  O   LIG    1        2.348  -2.944  -0.037  0.00  0.00    -0.200 OA
ENDROOT
BRANCH   1   9
ATOM      6  C   LIG    1        1.177   2.087   0.002  0.00  0.00    +0.250 A 
ATOM      7  C   LIG    1       -0.017   1.374   0.010  0.00  0.00    -0.070 A 
ATOM      8  C   LIG    1        0.002  -0.004   0.002  0.00  0.00    +0.130 A 
ATOM      9  C   LIG    1        1.222  -0.684  -0.013  0.00  0.00    -0.100 A 
ATOM     10  C   LIG    1        2.419   0.035  -0.021  0.00  0.00    +0.100 A 
ATOM     11  C   LIG    1        2.393   1.413  -0.013  0.00  0.00    -0.070 A 
BRANCH   6  12
ATOM     12  N   LIG    1        1.155   3.482   0.010  0.00  0.00    -0.620 N 
BRANCH  12  14
ATOM     13  C   LIG    1        2.835   4.505  -1.443  0.00  0.00    +0.020 C 
ATOM     14  C   LIG    1        2.411   4.235   0.002  0.00  0.00    +0.270 C 
ENDBRANCH  12  14
BRANCH  12  15
ATOM     15  C   LIG    1       -0.126   4.194   0.026  0.00  0.00    +0.270 C 
ATOM     16  C   LIG    1       -0.558   4.434   1.474  0.00  0.00    +0.020 C 
ENDBRANCH  12  15
ENDBRANCH   6  12
ENDBRANCH   1   9
BRANCH   4  17
ATOM     17  S   LIG    1        2.909  -5.666  -0.057  0.00  0.00    +0.140 S 
BRANCH  17  18
ATOM     18  C   LIG    1        1.621  -6.938  -0.051  0.00  0.00    +0.000 C 
ATOM     19  C   LIG    1        0.817  -6.856  -1.351  0.00  0.00    +0.090 C 
BRANCH  18  20
ATOM     20  C   LIG    1        2.259  -8.299   0.059  0.00  0.00    +0.540 C 
ATOM     21  N   LIG    1        1.532  -9.352   0.482  0.00  0.00    -0.720 N 
ATOM     22  H   LIG    1        0.598  -9.234   0.715  0.00  0.00    +0.400 HD
ATOM     23  O   LIG    1        3.427  -8.446  -0.232  0.00  0.00    -0.520 OA
BRANCH  21  24
ATOM     24  C   LIG    1        2.152 -10.675   0.589  0.00  0.00    +0.290 C 
ATOM     25  C   LIG    1        2.852 -10.801   1.944  0.00  0.00    +0.040 C 
BRANCH  24  26
ATOM     26  C   LIG    1        1.091 -11.738   0.470  0.00  0.00    -0.110 A 
ATOM     27  C   LIG    1       -0.134 -11.564   1.087  0.00  0.00    +0.040 A 
ATOM     28  C   LIG    1       -1.109 -12.536   0.974  0.00  0.00    -0.010 A 
ATOM     29  C   LIG    1       -0.856 -13.690   0.252  0.00  0.00    +0.100 A 
ATOM     30  C   LIG    1        0.374 -13.866  -0.360  0.00  0.00    -0.010 A 
ATOM     31  F   LIG    1       -1.807 -14.643   0.145  0.00  0.00    -0.140 F 
ATOM     32  C   LIG    1        1.346 -12.890  -0.251  0.00  0.00    +0.060 A 
ENDBRANCH  24  26
ENDBRANCH  21  24
ENDBRANCH  18  20
ENDBRANCH  17  18
ENDBRANCH   4  17
TORSDOF 9
