REMARK  Name = ZINCrH000004sxAV.0
REMARK                            x       y       z     vdW  Elec       q    Type
REMARK                         _______ _______ _______ _____ _____    ______ ____
ROOT
ATOM      1  C   LIG    1       -0.288   1.878  -3.733  0.00  0.00    +0.570 C 
ATOM      2  N   LIG    1        0.292   1.737  -2.525  0.00  0.00    -0.730 N 
ATOM      3  H   LIG    1        1.079   1.177  -2.428  0.00  0.00    +0.400 HD
ATOM      4  O   LIG    1       -1.274   2.579  -3.855  0.00  0.00    -0.530 OA
ENDROOT
BRANCH   1   7
ATOM      5  C   LIG    1       -1.702   1.959  -6.249  0.00  0.00    +0.160 C 
ATOM      6  C   LIG    1       -0.400   1.210  -6.137  0.00  0.00    +0.260 A 
ATOM      7  C   LIG    1        0.273   1.181  -4.908  0.00  0.00    -0.240 A 
ATOM      8  C   LIG    1        1.476   0.481  -4.807  0.00  0.00    +0.190 A 
ATOM      9  C   LIG    1        1.959  -0.158  -5.949  0.00  0.00    -0.250 A 
ATOM     10  C   LIG    1        3.141  -0.964  -6.240  0.00  0.00    +0.290 A 
ATOM     11  N   LIG    1        3.083  -1.309  -7.494  0.00  0.00    -0.230 NA
ATOM     12  N   LIG    1        1.929  -0.787  -8.085  0.00  0.00    -0.380 N 
ATOM     13  C   LIG    1        1.226  -0.078  -7.152  0.00  0.00    +0.340 A 
ATOM     14  N   LIG    1        0.085   0.603  -7.195  0.00  0.00    -0.510 NA
BRANCH  12  15
ATOM     15  C   LIG    1        1.535  -0.971  -9.483  0.00  0.00    +0.270 C 
ATOM     16  C   LIG    1        1.363  -2.464  -9.773  0.00  0.00    +0.050 C 
ATOM     17  C   LIG    1        2.618  -0.395 -10.398  0.00  0.00    +0.050 C 
ENDBRANCH  12  15
ENDBRANCH   1   7
BRANCH   2  18
ATOM     18  C   LIG    1       -0.264   2.428  -1.359  0.00  0.00    +0.270 C 
BRANCH  18  19
ATOM     19  C   LIG    1        0.577   2.101  -0.123  0.00  0.00    +0.110 C 
BRANCH  19  20
ATOM     20  C   LIG    1        0.004   2.812   1.076  0.00  0.00    -0.170 A 
ATOM     21  C   LIG    1        0.396   4.000   1.562  0.00  0.00    +0.230 A 
ATOM     22  N   LIG    1       -0.354   4.326   2.659  0.00  0.00    -0.590 N 
ATOM     23  H   LIG    1       -0.255   5.138   3.181  0.00  0.00    +0.420 HD
ATOM     24  C   LIG    1       -1.270   3.330   2.912  0.00  0.00    +0.090 A 
ATOM     25  C   LIG    1       -2.253   3.156   3.881  0.00  0.00    -0.010 A 
ATOM     26  C   LIG    1       -3.032   2.020   3.870  0.00  0.00    +0.030 A 
ATOM     27  C   LIG    1       -2.847   1.044   2.900  0.00  0.00    -0.020 A 
ATOM     28  C   LIG    1       -1.886   1.194   1.939  0.00  0.00    +0.050 A 
ATOM     29  C   LIG    1       -1.090   2.340   1.928  0.00  0.00    -0.100 A 
ENDBRANCH  19  20
ENDBRANCH  18  19
ENDBRANCH   2  18
TORSDOF 5
