REMARK  Name = ZINCpk00000ATZW9.0
REMARK                            x       y       z     vdW  Elec       q    Type
REMARK                         _______ _______ _______ _____ _____    ______ ____
ROOT
ATOM      1  N   LIG    1        3.474   2.568  -0.017  0.00  0.00    -0.690 N 
ATOM      2  H   LIG    1        3.211   3.502  -0.010  0.00  0.00    +0.410 HD
ATOM      3  C   LIG    1        2.534   1.603  -0.013  0.00  0.00    +0.600 C 
ATOM      4  O   LIG    1        2.863   0.433  -0.023  0.00  0.00    -0.520 OA
ENDROOT
BRANCH   3   5
ATOM      5  C   LIG    1        1.096   1.968   0.002  0.00  0.00    -0.030 A 
ATOM      6  N   LIG    1        0.591   3.176   0.013  0.00  0.00    -0.320 NA
ATOM      7  O   LIG    1       -0.618   3.150   0.025  0.00  0.00    +0.140 OA
ATOM      8  C   LIG    1       -1.089   1.895   0.017  0.00  0.00    -0.040 A 
ATOM      9  C   LIG    1       -0.013   1.076   0.008  0.00  0.00    +0.040 A 
BRANCH   8  10
ATOM     10  C   LIG    1       -2.538   1.478   0.020  0.00  0.00    +0.330 C 
BRANCH  10  11
ATOM     11  O   LIG    1       -2.990   1.339   1.368  0.00  0.00    -0.310 OA
BRANCH  11  12
ATOM     12  C   LIG    1       -4.284   0.965   1.550  0.00  0.00    +0.130 A 
ATOM     13  C   LIG    1       -5.103   0.742   0.452  0.00  0.00    -0.080 A 
ATOM     14  C   LIG    1       -6.416   0.356   0.639  0.00  0.00    +0.050 A 
ATOM     15  C   LIG    1       -6.918   0.203   1.918  0.00  0.00    -0.020 A 
ATOM     16  C   LIG    1       -6.105   0.430   3.014  0.00  0.00    +0.050 A 
ATOM     17  C   LIG    1       -4.790   0.810   2.832  0.00  0.00    -0.020 A 
ENDBRANCH  11  12
ENDBRANCH  10  11
ENDBRANCH   8  10
ENDBRANCH   3   5
BRANCH   1  19
ATOM     18  C   LIG    1        5.371   1.953   1.398  0.00  0.00    +0.030 C 
ATOM     19  C   LIG    1        4.894   2.208  -0.033  0.00  0.00    +0.240 C 
BRANCH  19  20
ATOM     20  C   LIG    1        5.704   3.353  -0.644  0.00  0.00    +0.160 C 
BRANCH  20  21
ATOM     21  N   LIG    1        5.168   3.678  -1.972  0.00  0.00    -0.460 NA
ATOM     22  C   LIG    1        5.899   2.953  -3.029  0.00  0.00    +0.140 C 
ATOM     23  C   LIG    1        5.854   4.241  -3.865  0.00  0.00    +0.100 C 
ATOM     24  C   LIG    1        4.598   4.391  -4.725  0.00  0.00    +0.060 C 
ATOM     25  C   LIG    1        5.762   4.923  -2.493  0.00  0.00    +0.180 C 
BRANCH  23  26
ATOM     26  O   LIG    1        7.062   4.518  -4.576  0.00  0.00    -0.550 OA
ATOM     27  H   LIG    1        7.117   4.087  -5.440  0.00  0.00    +0.380 HD
ENDBRANCH  23  26
ENDBRANCH  20  21
ENDBRANCH  19  20
ENDBRANCH   1  19
TORSDOF 8
