REMARK  Name = ZINCrD00000l0uN8.0
REMARK                            x       y       z     vdW  Elec       q    Type
REMARK                         _______ _______ _______ _____ _____    ______ ____
ROOT
ATOM      1  O   LIG    1        1.965   4.096  -6.226  0.00  0.00    -0.520 OA
ATOM      2  C   LIG    1        2.916   3.707  -5.578  0.00  0.00    +0.560 C 
ATOM      3  N   LIG    1        2.844   3.665  -4.233  0.00  0.00    -0.600 N 
ATOM      4  C   LIG    1        1.652   4.164  -3.532  0.00  0.00    +0.290 C 
ATOM      5  C   LIG    1        2.091   5.221  -2.511  0.00  0.00    +0.300 C 
ATOM      6  N   LIG    1        3.203   4.675  -1.719  0.00  0.00    -1.000 NA
ATOM      7  C   LIG    1        4.396   4.181  -2.419  0.00  0.00    +0.300 C 
ATOM      8  C   LIG    1        3.955   3.119  -3.441  0.00  0.00    +0.270 C 
ENDROOT
BRANCH   2   9
ATOM      9  C   LIG    1        4.154   3.279  -6.265  0.00  0.00    -0.110 A 
ATOM     10  C   LIG    1        4.750   4.109  -7.216  0.00  0.00    +0.070 A 
ATOM     11  C   LIG    1        5.907   3.706  -7.850  0.00  0.00    +0.060 A 
ATOM     12  C   LIG    1        6.470   2.478  -7.553  0.00  0.00    -0.050 A 
ATOM     13  C   LIG    1        5.881   1.648  -6.616  0.00  0.00    +0.030 A 
ATOM     14  C   LIG    1        4.727   2.041  -5.971  0.00  0.00    +0.040 A 
BRANCH  12  15
ATOM     15  C   LIG    1        7.732   2.042  -8.253  0.00  0.00    +0.150 C 
ATOM     16  S   LIG    1        9.048   3.290  -8.024  0.00  0.00    -0.230 S 
ATOM     17  C   LIG    1        9.841   3.200  -9.671  0.00  0.00    +0.140 C 
ATOM     18  C   LIG    1        8.669   3.174 -10.677  0.00  0.00    +0.130 C 
ATOM     19  S   LIG    1        7.460   1.962 -10.055  0.00  0.00    -0.230 S 
ENDBRANCH  12  15
ENDBRANCH   2   9
BRANCH   6  20
ATOM     20  S   LIG    1        3.114   4.625  -0.066  0.00  0.00    +2.710 S 
ATOM     21  O   LIG    1        4.454   4.592   0.407  0.00  0.00    -0.940 OA
ATOM     22  O   LIG    1        2.179   5.624   0.317  0.00  0.00    -0.940 OA
BRANCH  20  23
ATOM     23  C   LIG    1        2.394   3.077   0.371  0.00  0.00    -0.800 A 
ATOM     24  C   LIG    1        3.072   1.951   0.601  0.00  0.00    +0.160 A 
ATOM     25  C   LIG    1        2.290   0.857   0.929  0.00  0.00    -0.010 A 
ATOM     26  C   LIG    1        0.978   1.093   0.965  0.00  0.00    +0.010 A 
ATOM     27  S   LIG    1        0.672   2.780   0.569  0.00  0.00    +0.220 S 
ENDBRANCH  20  23
ENDBRANCH   6  20
TORSDOF 4
