REMARK  Name = ZINCnE000001Svff.0
REMARK                            x       y       z     vdW  Elec       q    Type
REMARK                         _______ _______ _______ _____ _____    ______ ____
ROOT
ATOM      1  C   LIG    1        2.929   3.834  -0.005  0.00  0.00    +0.300 A 
ATOM      2  N   LIG    1        4.004   3.106  -0.014  0.00  0.00    -0.360 NA
ATOM      3  N   LIG    1        5.116   3.703  -0.027  0.00  0.00    -0.220 NA
ATOM      4  C   LIG    1        5.079   4.998  -0.020  0.00  0.00    -0.080 A 
ATOM      5  S   LIG    1        3.384   5.486  -0.001  0.00  0.00    -0.010 S 
ENDROOT
BRANCH   1   8
ATOM      6  O   LIG    1        2.328   1.249  -0.013  0.00  0.00    -0.560 OA
ATOM      7  C   LIG    1        1.395   2.024  -0.000  0.00  0.00    +0.460 C 
ATOM      8  N   LIG    1        1.624   3.353   0.005  0.00  0.00    -0.680 NA
BRANCH   7   9
ATOM      9  C   LIG    1       -0.018   1.503   0.010  0.00  0.00    +0.100 C 
BRANCH   9  10
ATOM     10  C   LIG    1        0.002  -0.004   0.002  0.00  0.00    -0.020 A 
ATOM     11  C   LIG    1       -0.006  -0.689  -1.199  0.00  0.00    +0.000 A 
ATOM     12  C   LIG    1        0.018  -2.071  -1.208  0.00  0.00    +0.040 A 
ATOM     13  C   LIG    1        0.039  -2.770  -0.016  0.00  0.00    -0.040 A 
ATOM     14  C   LIG    1        0.041  -2.086   1.187  0.00  0.00    +0.090 A 
ATOM     15  F   LIG    1        0.062  -2.768   2.353  0.00  0.00    -0.150 F 
ATOM     16  C   LIG    1        0.023  -0.701   1.195  0.00  0.00    -0.010 A 
ENDBRANCH   9  10
ENDBRANCH   7   9
ENDBRANCH   1   8
BRANCH   4  17
ATOM     17  C   LIG    1        6.269   5.922  -0.026  0.00  0.00    +0.190 C 
BRANCH  17  18
ATOM     18  C   LIG    1        6.653   6.238  -1.448  0.00  0.00    -0.070 A 
ATOM     19  C   LIG    1        7.567   5.440  -2.111  0.00  0.00    +0.020 A 
ATOM     20  C   LIG    1        7.915   5.727  -3.418  0.00  0.00    +0.000 A 
ATOM     21  C   LIG    1        7.357   6.818  -4.058  0.00  0.00    -0.010 A 
ATOM     22  C   LIG    1        6.447   7.619  -3.393  0.00  0.00    +0.000 A 
ATOM     23  C   LIG    1        6.095   7.329  -2.088  0.00  0.00    +0.010 A 
ENDBRANCH  17  18
ENDBRANCH   4  17
TORSDOF 5
