REMARK  Name = ZINCpe00000VVGVp.1
REMARK                            x       y       z     vdW  Elec       q    Type
REMARK                         _______ _______ _______ _____ _____    ______ ____
ROOT
ATOM      1  C   LIG    1        0.002  -0.004   0.002  0.00  0.00    +0.290 C 
ATOM      2  C   LIG    1       -0.383  -0.513  -1.390  0.00  0.00    +0.170 C 
ATOM      3  N   LIG    1       -0.436  -1.982  -1.371  0.00  0.00    -0.520 NA
ATOM      4  C   LIG    1       -1.408  -2.455  -0.375  0.00  0.00    +0.160 C 
ATOM      5  C   LIG    1       -1.013  -1.927   1.007  0.00  0.00    +0.250 C 
ATOM      6  O   LIG    1       -0.935  -0.500   0.962  0.00  0.00    -0.370 OA
ENDROOT
BRANCH   1   9
ATOM      7  C   LIG    1        0.684   3.546   0.015  0.00  0.00    +0.290 A 
ATOM      8  N   LIG    1        1.055   2.292   0.004  0.00  0.00    -0.530 NA
ATOM      9  C   LIG    1       -0.018   1.503   0.010  0.00  0.00    +0.230 A 
ATOM     10  N   LIG    1       -1.092   2.248   0.019  0.00  0.00    -0.280 NA
ATOM     11  N   LIG    1       -0.659   3.584   0.028  0.00  0.00    -0.480 N 
ATOM     12  H   LIG    1       -1.219   4.376   0.037  0.00  0.00    +0.440 HD
BRANCH   7  13
ATOM     13  C   LIG    1        1.603   4.741   0.012  0.00  0.00    +0.160 C 
BRANCH  13  15
ATOM     14  C   LIG    1        2.761   6.427   1.446  0.00  0.00    +0.030 C 
ATOM     15  C   LIG    1        1.829   5.214   1.449  0.00  0.00    +0.010 C 
ENDBRANCH  13  15
ENDBRANCH   7  13
ENDBRANCH   1   9
BRANCH   3  16
ATOM     16  C   LIG    1       -0.748  -2.514  -2.704  0.00  0.00    +0.220 C 
BRANCH  16  17
ATOM     17  C   LIG    1       -0.562  -4.010  -2.704  0.00  0.00    +0.520 C 
ATOM     18  N   LIG    1       -0.792  -4.718  -3.828  0.00  0.00    -0.730 N 
ATOM     19  H   LIG    1       -1.078  -4.264  -4.637  0.00  0.00    +0.400 HD
ATOM     20  O   LIG    1       -0.205  -4.576  -1.693  0.00  0.00    -0.520 OA
BRANCH  18  21
ATOM     21  C   LIG    1       -0.611  -6.171  -3.828  0.00  0.00    +0.350 C 
BRANCH  21  22
ATOM     22  C   LIG    1       -0.931  -6.717  -5.196  0.00  0.00    +0.100 A 
ATOM     23  C   LIG    1        0.089  -6.919  -6.106  0.00  0.00    -0.010 A 
ATOM     24  C   LIG    1       -0.215  -7.422  -7.362  0.00  0.00    +0.060 A 
ATOM     25  C   LIG    1       -1.540  -7.704  -7.656  0.00  0.00    -0.020 A 
ATOM     26  C   LIG    1       -2.507  -7.476  -6.694  0.00  0.00    +0.260 A 
ATOM     27  N   LIG    1       -2.180  -7.002  -5.508  0.00  0.00    -0.470 NA
ENDBRANCH  21  22
ENDBRANCH  18  21
ENDBRANCH  16  17
ENDBRANCH   3  16
TORSDOF 7
