REMARK  Name = ZINCpe00000VVGVp.2
REMARK                            x       y       z     vdW  Elec       q    Type
REMARK                         _______ _______ _______ _____ _____    ______ ____
ROOT
ATOM      1  C   LIG    1       -4.881   3.930   4.343  0.00  0.00    +0.290 C 
ATOM      2  C   LIG    1       -4.142   5.250   4.109  0.00  0.00    +0.200 C 
ATOM      3  N   LIG    1       -4.928   6.354   4.679  0.00  0.00    -0.520 NA
ATOM      4  C   LIG    1       -5.148   6.148   6.118  0.00  0.00    +0.160 C 
ATOM      5  C   LIG    1       -5.878   4.819   6.332  0.00  0.00    +0.250 C 
ATOM      6  O   LIG    1       -5.114   3.762   5.744  0.00  0.00    -0.390 OA
ENDROOT
BRANCH   1  11
ATOM      7  C   LIG    1       -2.870   1.536   2.518  0.00  0.00    +0.230 A 
ATOM      8  N   LIG    1       -2.906   0.911   3.665  0.00  0.00    -0.310 NA
ATOM      9  N   LIG    1       -3.661   1.710   4.539  0.00  0.00    -0.460 N 
ATOM     10  H   LIG    1       -3.868   1.521   5.467  0.00  0.00    +0.450 HD
ATOM     11  C   LIG    1       -4.044   2.787   3.831  0.00  0.00    +0.290 A 
ATOM     12  N   LIG    1       -3.562   2.669   2.620  0.00  0.00    -0.530 NA
BRANCH   7  13
ATOM     13  C   LIG    1       -2.164   1.050   1.278  0.00  0.00    +0.150 C 
BRANCH  13  15
ATOM     14  C   LIG    1       -0.013   1.086   0.008  0.00  0.00    +0.030 C 
ATOM     15  C   LIG    1       -0.729   1.579   1.267  0.00  0.00    +0.010 C 
ENDBRANCH  13  15
ENDBRANCH   7  13
ENDBRANCH   1  11
BRANCH   3  16
ATOM     16  C   LIG    1       -4.280   7.648   4.426  0.00  0.00    +0.220 C 
BRANCH  16  17
ATOM     17  C   LIG    1       -5.221   8.763   4.801  0.00  0.00    +0.520 C 
ATOM     18  N   LIG    1       -4.838  10.047   4.652  0.00  0.00    -0.730 N 
ATOM     19  H   LIG    1       -3.957  10.253   4.304  0.00  0.00    +0.400 HD
ATOM     20  O   LIG    1       -6.324   8.506   5.237  0.00  0.00    -0.520 OA
BRANCH  18  21
ATOM     21  C   LIG    1       -5.753  11.131   5.017  0.00  0.00    +0.360 C 
BRANCH  21  22
ATOM     22  C   LIG    1       -5.088  12.459   4.757  0.00  0.00    +0.100 A 
ATOM     23  C   LIG    1       -5.313  13.112   3.561  0.00  0.00    -0.010 A 
ATOM     24  C   LIG    1       -4.697  14.333   3.331  0.00  0.00    +0.070 A 
ATOM     25  C   LIG    1       -3.874  14.852   4.319  0.00  0.00    -0.020 A 
ATOM     26  C   LIG    1       -3.696  14.141   5.490  0.00  0.00    +0.260 A 
ATOM     27  N   LIG    1       -4.303  12.985   5.676  0.00  0.00    -0.470 NA
ENDBRANCH  21  22
ENDBRANCH  18  21
ENDBRANCH  16  17
ENDBRANCH   3  16
TORSDOF 7
