REMARK  Name = ZINCpe00000VVGVp.0
REMARK                            x       y       z     vdW  Elec       q    Type
REMARK                         _______ _______ _______ _____ _____    ______ ____
ROOT
ATOM      1  C   LIG    1       -0.019   1.527   0.010  0.00  0.00    +0.290 C 
ATOM      2  C   LIG    1        0.002  -0.004   0.002  0.00  0.00    +0.190 C 
ATOM      3  N   LIG    1        0.756  -0.472  -1.170  0.00  0.00    -0.520 NA
ATOM      4  C   LIG    1        2.130   0.050  -1.148  0.00  0.00    +0.160 C 
ATOM      5  C   LIG    1        2.088   1.581  -1.128  0.00  0.00    +0.250 C 
ATOM      6  O   LIG    1        1.325   2.017   0.000  0.00  0.00    -0.390 OA
ENDROOT
BRANCH   1  10
ATOM      7  C   LIG    1       -1.194   3.025   3.106  0.00  0.00    +0.180 A 
ATOM      8  N   LIG    1       -2.205   2.285   2.740  0.00  0.00    -0.280 NA
ATOM      9  N   LIG    1       -1.925   1.685   1.637  0.00  0.00    -0.280 NA
ATOM     10  C   LIG    1       -0.723   2.014   1.251  0.00  0.00    +0.180 A 
ATOM     11  N   LIG    1       -0.222   2.869   2.175  0.00  0.00    -0.560 N 
ATOM     12  H   LIG    1        0.653   3.288   2.169  0.00  0.00    +0.430 HD
BRANCH   7  13
ATOM     13  C   LIG    1       -1.118   3.887   4.340  0.00  0.00    +0.150 C 
BRANCH  13  15
ATOM     14  C   LIG    1       -2.226   5.731   5.611  0.00  0.00    +0.020 C 
ATOM     15  C   LIG    1       -2.303   4.855   4.358  0.00  0.00    +0.020 C 
ENDBRANCH  13  15
ENDBRANCH   7  13
ENDBRANCH   1  10
BRANCH   3  16
ATOM     16  C   LIG    1        0.752  -1.939  -1.247  0.00  0.00    +0.220 C 
BRANCH  16  17
ATOM     17  C   LIG    1        1.316  -2.374  -2.575  0.00  0.00    +0.520 C 
ATOM     18  N   LIG    1        1.410  -3.686  -2.870  0.00  0.00    -0.730 N 
ATOM     19  H   LIG    1        1.115  -4.350  -2.227  0.00  0.00    +0.400 HD
ATOM     20  O   LIG    1        1.684  -1.544  -3.379  0.00  0.00    -0.520 OA
BRANCH  18  21
ATOM     21  C   LIG    1        1.957  -4.109  -4.161  0.00  0.00    +0.360 C 
BRANCH  21  22
ATOM     22  C   LIG    1        1.953  -5.614  -4.240  0.00  0.00    +0.100 A 
ATOM     23  C   LIG    1        0.895  -6.263  -4.847  0.00  0.00    -0.010 A 
ATOM     24  C   LIG    1        0.900  -7.648  -4.914  0.00  0.00    +0.070 A 
ATOM     25  C   LIG    1        1.976  -8.331  -4.366  0.00  0.00    -0.020 A 
ATOM     26  C   LIG    1        2.999  -7.613  -3.776  0.00  0.00    +0.260 A 
ATOM     27  N   LIG    1        2.962  -6.296  -3.735  0.00  0.00    -0.470 NA
ENDBRANCH  21  22
ENDBRANCH  18  21
ENDBRANCH  16  17
ENDBRANCH   3  16
TORSDOF 7
