REMARK  Name = ZINCtV000002Mnac.0
REMARK                            x       y       z     vdW  Elec       q    Type
REMARK                         _______ _______ _______ _____ _____    ______ ____
ROOT
ATOM      1  C   LIG    1        2.731   7.731  -0.331  0.00  0.00    -0.000 A 
ATOM      2  N   LIG    1        1.489   7.367  -0.248  0.00  0.00    -0.260 NA
ATOM      3  N   LIG    1        1.271   6.010  -0.153  0.00  0.00    -0.330 NA
ATOM      4  C   LIG    1        2.335   5.270  -0.159  0.00  0.00    +0.300 A 
ATOM      5  S   LIG    1        3.756   6.300  -0.285  0.00  0.00    +0.110 S 
ENDROOT
BRANCH   4   6
ATOM      6  N   LIG    1        2.351   3.882  -0.074  0.00  0.00    -0.620 N 
ATOM      7  H   LIG    1        3.196   3.410  -0.007  0.00  0.00    +0.430 HD
BRANCH   6   8
ATOM      8  C   LIG    1        1.148   3.166  -0.083  0.00  0.00    +0.170 A 
ATOM      9  C   LIG    1        0.019   3.713  -0.681  0.00  0.00    +0.030 A 
ATOM     10  C   LIG    1       -1.167   3.006  -0.691  0.00  0.00    +0.080 A 
ATOM     11  C   LIG    1       -1.233   1.751  -0.099  0.00  0.00    -0.110 A 
ATOM     12  C   LIG    1       -0.103   1.203   0.494  0.00  0.00    +0.040 A 
ATOM     13  C   LIG    1        1.083   1.909   0.504  0.00  0.00    +0.000 A 
BRANCH  11  14
ATOM     14  S   LIG    1       -2.749   0.853  -0.105  0.00  0.00    -0.090 S 
BRANCH  14  15
ATOM     15  C   LIG    1       -2.319  -0.679   0.766  0.00  0.00    +0.430 C 
ATOM     16  F   LIG    1       -1.881  -0.372   2.059  0.00  0.00    -0.180 F 
ATOM     17  F   LIG    1       -1.299  -1.339   0.073  0.00  0.00    -0.180 F 
ENDBRANCH  14  15
ENDBRANCH  11  14
ENDBRANCH   6   8
ENDBRANCH   4   6
BRANCH   1  18
ATOM     18  S   LIG    1        3.301   9.392  -0.460  0.00  0.00    +0.110 S 
BRANCH  18  19
ATOM     19  C   LIG    1        1.764  10.354  -0.445  0.00  0.00    +0.110 C 
BRANCH  19  21
ATOM     20  O   LIG    1        3.243  12.184  -0.629  0.00  0.00    -0.500 OA
ATOM     21  C   LIG    1        2.088  11.822  -0.551  0.00  0.00    +0.540 C 
ATOM     22  N   LIG    1        1.095  12.733  -0.559  0.00  0.00    -0.660 N 
ATOM     23  H   LIG    1        0.178  12.452  -0.415  0.00  0.00    +0.420 HD
BRANCH  22  24
ATOM     24  C   LIG    1        1.387  14.086  -0.776  0.00  0.00    +0.120 A 
ATOM     25  C   LIG    1        2.534  14.447  -1.468  0.00  0.00    +0.080 A 
ATOM     26  C   LIG    1        2.817  15.782  -1.685  0.00  0.00    +0.060 A 
ATOM     27  C   LIG    1        1.965  16.760  -1.203  0.00  0.00    -0.030 A 
ATOM     28  C   LIG    1        0.823  16.404  -0.507  0.00  0.00    +0.030 A 
ATOM     29 CL   LIG    1        2.329  18.436  -1.472  0.00  0.00    -0.050 Cl
ATOM     30  C   LIG    1        0.531  15.070  -0.292  0.00  0.00    +0.080 A 
ATOM     31  F   LIG    1       -0.584  14.722   0.388  0.00  0.00    -0.130 F 
ENDBRANCH  22  24
ENDBRANCH  19  21
ENDBRANCH  18  19
ENDBRANCH   1  18
TORSDOF 8
