REMARK  Name = ZINCrD00000hQ4c7.0
REMARK                            x       y       z     vdW  Elec       q    Type
REMARK                         _______ _______ _______ _____ _____    ______ ____
ROOT
ATOM      1  C   LIG    1       -8.402  -2.532   1.036  0.00  0.00    -0.100 C 
ATOM      2  C   LIG    1       -7.691  -2.118   2.106  0.00  0.00    +0.140 C 
ENDROOT
BRANCH   2   3
ATOM      3  C   LIG    1       -6.438  -1.373   1.912  0.00  0.00    -0.120 A 
ATOM      4  C   LIG    1       -5.698  -0.943   3.019  0.00  0.00    +0.090 A 
ATOM      5  C   LIG    1       -4.526  -0.245   2.832  0.00  0.00    -0.010 A 
ATOM      6  C   LIG    1       -4.078   0.032   1.546  0.00  0.00    +0.140 A 
ATOM      7  C   LIG    1       -4.812  -0.388   0.443  0.00  0.00    -0.080 A 
ATOM      8  C   LIG    1       -5.982  -1.091   0.619  0.00  0.00    +0.070 A 
BRANCH   6   9
ATOM      9  O   LIG    1       -2.922   0.721   1.367  0.00  0.00    -0.310 OA
BRANCH   9  10
ATOM     10  C   LIG    1       -2.519   0.972   0.019  0.00  0.00    +0.270 C 
BRANCH  10  11
ATOM     11  C   LIG    1       -1.223   1.743   0.017  0.00  0.00    -0.150 A 
ATOM     12  C   LIG    1       -1.231   3.129   0.031  0.00  0.00    +0.090 A 
ATOM     13  C   LIG    1       -0.015   3.796   0.023  0.00  0.00    -0.030 A 
ATOM     14  C   LIG    1        1.155   3.062   0.007  0.00  0.00    +0.270 A 
ATOM     15  N   LIG    1        1.125   1.743   0.001  0.00  0.00    -0.490 NA
ATOM     16  C   LIG    1       -0.013   1.076   0.008  0.00  0.00    +0.290 A 
ENDBRANCH  10  11
ENDBRANCH   9  10
ENDBRANCH   6   9
ENDBRANCH   2   3
BRANCH   1  18
ATOM     17  O   LIG    1      -10.044  -3.516   2.355  0.00  0.00    -0.550 OA
ATOM     18  C   LIG    1       -9.649  -3.273   1.229  0.00  0.00    +0.550 C 
ATOM     19  N   LIG    1      -10.359  -3.686   0.161  0.00  0.00    -0.720 N 
ATOM     20  H   LIG    1      -10.044  -3.492  -0.735  0.00  0.00    +0.400 HD
BRANCH  19  21
ATOM     21  C   LIG    1      -11.608  -4.428   0.355  0.00  0.00    +0.240 C 
ATOM     22  C   LIG    1      -11.310  -5.936   0.487  0.00  0.00    +0.010 C 
ATOM     23  C   LIG    1      -12.491  -6.621  -0.247  0.00  0.00    +0.020 C 
ATOM     24  C   LIG    1      -12.737  -5.679  -1.452  0.00  0.00    +0.020 C 
ATOM     25  C   LIG    1      -12.515  -4.264  -0.877  0.00  0.00    -0.010 C 
BRANCH  25  26
ATOM     26  C   LIG    1      -11.829  -3.378  -1.919  0.00  0.00    +0.030 C 
BRANCH  26  27
ATOM     27  C   LIG    1      -12.789  -3.121  -3.082  0.00  0.00    +0.180 C 
BRANCH  27  28
ATOM     28  O   LIG    1      -12.149  -2.293  -4.054  0.00  0.00    -0.580 OA
ATOM     29  H   LIG    1      -12.701  -2.089  -4.822  0.00  0.00    +0.380 HD
ENDBRANCH  27  28
ENDBRANCH  26  27
ENDBRANCH  25  26
ENDBRANCH  19  21
ENDBRANCH   1  18
TORSDOF 9
