REMARK  Name = ZINCb800000010Hv.0
REMARK                            x       y       z     vdW  Elec       q    Type
REMARK                         _______ _______ _______ _____ _____    ______ ____
ROOT
ATOM      1  C   LIG    1       -0.013   1.086   0.008  0.00  0.00    +0.080 C 
ATOM      2  C   LIG    1       -0.718   1.572   1.248  0.00  0.00    +0.520 C 
ATOM      3  N   LIG    1       -0.857   2.894   1.470  0.00  0.00    -0.620 N 
ATOM      4  C   LIG    1       -0.370   3.969   0.586  0.00  0.00    +0.250 C 
ATOM      5  C   LIG    1       -1.270   5.187   0.911  0.00  0.00    +0.040 C 
ATOM      6  C   LIG    1       -1.462   5.033   2.443  0.00  0.00    -0.010 C 
ATOM      7  C   LIG    1       -2.771   5.684   2.893  0.00  0.00    +0.040 C 
ATOM      8  C   LIG    1       -1.525   3.503   2.629  0.00  0.00    +0.220 C 
ATOM      9  O   LIG    1       -1.161   0.773   2.046  0.00  0.00    -0.500 OA
ENDROOT
BRANCH   8  10
ATOM     10  C   LIG    1       -0.798   3.107   3.916  0.00  0.00    +0.150 C 
BRANCH  10  11
ATOM     11  O   LIG    1       -0.944   1.702   4.133  0.00  0.00    -0.540 OA
ATOM     12  H   LIG    1       -0.506   1.380   4.933  0.00  0.00    +0.370 HD
ENDBRANCH  10  11
ENDBRANCH   8  10
TORSDOF 2
