REMARK  Name = ZINCrH00000No4JA.0
REMARK                            x       y       z     vdW  Elec       q    Type
REMARK                         _______ _______ _______ _____ _____    ______ ____
ROOT
ATOM      1  C   LIG    1        3.853   3.177   0.137  0.00  0.00    -0.220 A 
ATOM      2  C   LIG    1        2.720   3.971  -0.082  0.00  0.00    +0.090 A 
ATOM      3  C   LIG    1        1.476   3.388  -0.100  0.00  0.00    -0.010 A 
ATOM      4  C   LIG    1        1.325   2.018   0.096  0.00  0.00    -0.050 A 
ATOM      5  C   LIG    1       -0.077   1.460   0.071  0.00  0.00    +0.340 C 
ATOM      6  N   LIG    1       -0.026  -0.005   0.031  0.00  0.00    -0.610 N 
ATOM      7  C   LIG    1        0.926  -0.672   0.934  0.00  0.00    +0.290 C 
ATOM      8  C   LIG    1        2.337  -0.267   0.510  0.00  0.00    +0.090 C 
ATOM      9  C   LIG    1       -0.819  -0.712  -0.798  0.00  0.00    +0.550 C 
ATOM     10  O   LIG    1       -0.756  -1.923  -0.811  0.00  0.00    -0.530 OA
ATOM     11  C   LIG    1        2.428   1.223   0.304  0.00  0.00    -0.110 A 
ATOM     12  C   LIG    1        3.698   1.798   0.329  0.00  0.00    +0.170 A 
ENDROOT
BRANCH   9  13
ATOM     13  C   LIG    1       -1.783   0.002  -1.710  0.00  0.00    -0.040 C 
ATOM     14  C   LIG    1       -2.222  -0.724  -2.985  0.00  0.00    +0.100 C 
ATOM     15  C   LIG    1       -1.263   0.458  -3.068  0.00  0.00    -0.070 C 
ATOM     16  C   LIG    1       -1.703   1.797  -3.681  0.00  0.00    +0.090 C 
ATOM     17  C   LIG    1       -0.744   1.936  -4.884  0.00  0.00    +0.090 C 
ATOM     18  C   LIG    1        0.483   1.131  -4.510  0.00  0.00    -0.080 A 
ATOM     19  C   LIG    1        1.760   1.143  -5.044  0.00  0.00    +0.050 A 
ATOM     20  C   LIG    1        2.734   0.304  -4.537  0.00  0.00    -0.080 A 
ATOM     21  C   LIG    1        2.433  -0.550  -3.491  0.00  0.00    +0.040 A 
ATOM     22  C   LIG    1        1.160  -0.562  -2.957  0.00  0.00    +0.030 A 
ATOM     23 BR   LIG    1        4.477   0.324  -5.271  0.00  0.00    -0.050 Br
ATOM     24  C   LIG    1        0.181   0.277  -3.463  0.00  0.00    -0.050 A 
ENDBRANCH   9  13
BRANCH   1  26
ATOM     25  O   LIG    1        6.166   3.091   0.355  0.00  0.00    -0.440 OA
ATOM     26  C   LIG    1        5.189   3.784   0.164  0.00  0.00    +0.480 C 
ENDBRANCH   1  26
BRANCH  12  27
ATOM     27  O   LIG    1        4.787   1.019   0.540  0.00  0.00    -0.480 OA
ATOM     28  H   LIG    1        5.179   0.663  -0.269  0.00  0.00    +0.400 HD
ENDBRANCH  12  27
TORSDOF 3
