REMARK  Name = ZINCrD00000F5Liu.0
REMARK                            x       y       z     vdW  Elec       q    Type
REMARK                         _______ _______ _______ _____ _____    ______ ____
ROOT
ATOM      1  C   LIG    1        1.280   1.980   0.001  0.00  0.00    +0.250 C 
ENDROOT
BRANCH   1   2
ATOM      2  C   LIG    1       -0.014   1.209   0.009  0.00  0.00    +0.520 C 
ATOM      3  N   LIG    1       -1.191   1.867   0.018  0.00  0.00    -0.720 N 
ATOM      4  H   LIG    1       -1.204   2.837   0.023  0.00  0.00    +0.400 HD
ATOM      5  O   LIG    1        0.002  -0.004   0.002  0.00  0.00    -0.510 OA
BRANCH   3   6
ATOM      6  C   LIG    1       -2.449   1.117   0.020  0.00  0.00    +0.230 C 
ATOM      7  C   LIG    1       -2.816   0.740   1.456  0.00  0.00    +0.020 C 
BRANCH   6   8
ATOM      8  C   LIG    1       -3.559   1.982  -0.580  0.00  0.00    +0.030 C 
BRANCH   8   9
ATOM      9  C   LIG    1       -3.253   2.256  -2.054  0.00  0.00    +0.060 C 
BRANCH   9  10
ATOM     10  C   LIG    1       -4.346   3.108  -2.644  0.00  0.00    -0.080 A 
ATOM     11  C   LIG    1       -5.448   2.512  -3.229  0.00  0.00    +0.000 A 
ATOM     12  C   LIG    1       -6.454   3.294  -3.766  0.00  0.00    +0.000 A 
ATOM     13  C   LIG    1       -6.352   4.672  -3.729  0.00  0.00    +0.000 A 
ATOM     14  C   LIG    1       -5.247   5.268  -3.149  0.00  0.00    +0.000 A 
ATOM     15  C   LIG    1       -4.245   4.486  -2.607  0.00  0.00    +0.000 A 
ENDBRANCH   9  10
ENDBRANCH   8   9
ENDBRANCH   6   8
ENDBRANCH   3   6
ENDBRANCH   1   2
BRANCH   1  16
ATOM     16  O   LIG    1        2.379   1.066  -0.015  0.00  0.00    -0.330 OA
BRANCH  16  17
ATOM     17  C   LIG    1        3.619   1.599  -0.024  0.00  0.00    +0.510 C 
ATOM     18  O   LIG    1        3.762   2.807  -0.019  0.00  0.00    -0.520 OA
BRANCH  17  20
ATOM     19  C   LIG    1        5.996   1.284  -0.048  0.00  0.00    +0.170 C 
ATOM     20  C   LIG    1        4.755   0.750  -0.039  0.00  0.00    -0.080 C 
BRANCH  19  24
ATOM     21  C   LIG    1        9.394  -1.254  -0.093  0.00  0.00    +0.150 A 
ATOM     22  C   LIG    1        9.560   0.127  -0.088  0.00  0.00    -0.020 A 
ATOM     23  C   LIG    1        8.460   0.955  -0.074  0.00  0.00    +0.100 A 
ATOM     24  C   LIG    1        7.173   0.405  -0.064  0.00  0.00    -0.130 A 
ATOM     25  C   LIG    1        7.011  -0.986  -0.064  0.00  0.00    +0.090 A 
ATOM     26  C   LIG    1        8.117  -1.805  -0.085  0.00  0.00    -0.080 A 
BRANCH  21  28
ATOM     27  C   LIG    1       10.239  -3.474  -0.113  0.00  0.00    +0.240 C 
ATOM     28  O   LIG    1       10.481  -2.066  -0.108  0.00  0.00    -0.310 OA
ENDBRANCH  21  28
ENDBRANCH  19  24
ENDBRANCH  17  20
ENDBRANCH  16  17
ENDBRANCH   1  16
TORSDOF 10
