REMARK  Name = ZINCnE000001QEPP.0
REMARK                            x       y       z     vdW  Elec       q    Type
REMARK                         _______ _______ _______ _____ _____    ______ ____
ROOT
ATOM      1  N   LIG    1        2.290   3.131   2.478  0.00  0.00    -1.080 NA
ENDROOT
BRANCH   1   2
ATOM      2  C   LIG    1        3.664   3.300   2.685  0.00  0.00    +0.310 A 
ATOM      3  C   LIG    1        4.426   2.253   3.179  0.00  0.00    -0.150 A 
ATOM      4  C   LIG    1        5.784   2.422   3.382  0.00  0.00    +0.050 A 
ATOM      5  C   LIG    1        6.385   3.634   3.094  0.00  0.00    -0.100 A 
ATOM      6  C   LIG    1        5.632   4.684   2.601  0.00  0.00    +0.010 A 
ATOM      7  C   LIG    1        4.271   4.521   2.389  0.00  0.00    -0.160 A 
BRANCH   7   8
ATOM      8  S   LIG    1        3.311   5.855   1.754  0.00  0.00    -0.020 S 
BRANCH   8   9
ATOM      9  C   LIG    1        4.536   7.176   1.543  0.00  0.00    +0.030 C 
BRANCH   9  10
ATOM     10  C   LIG    1        3.849   8.426   0.989  0.00  0.00    +0.480 C 
ATOM     11  F   LIG    1        3.266   8.128  -0.247  0.00  0.00    -0.170 F 
ATOM     12  F   LIG    1        4.794   9.445   0.827  0.00  0.00    -0.180 F 
ATOM     13  F   LIG    1        2.858   8.847   1.882  0.00  0.00    -0.170 F 
ENDBRANCH   9  10
ENDBRANCH   8   9
ENDBRANCH   7   8
ENDBRANCH   1   2
BRANCH   1  14
ATOM     14  S   LIG    1        1.573   1.679   2.823  0.00  0.00    +2.640 S 
ATOM     15  O   LIG    1        2.104   0.740   1.899  0.00  0.00    -1.030 OA
ATOM     16  O   LIG    1        1.657   1.515   4.232  0.00  0.00    -1.030 OA
BRANCH  14  24
ATOM     17  C   LIG    1       -0.944   2.667   4.758  0.00  0.00    +0.160 C 
ATOM     18  C   LIG    1       -1.142   2.264   3.320  0.00  0.00    +0.170 A 
ATOM     19  N   LIG    1       -2.281   2.253   2.676  0.00  0.00    -0.310 NA
ATOM     20  N   LIG    1       -2.039   1.824   1.365  0.00  0.00    -0.480 N 
ATOM     21  H   LIG    1       -2.703   1.724   0.665  0.00  0.00    +0.430 HD
ATOM     22  C   LIG    1       -0.718   1.572   1.248  0.00  0.00    +0.200 A 
ATOM     23  C   LIG    1       -0.013   1.086   0.008  0.00  0.00    +0.160 C 
ATOM     24  C   LIG    1       -0.140   1.839   2.442  0.00  0.00    -0.760 A 
ENDBRANCH  14  24
ENDBRANCH   1  14
TORSDOF 6
