REMARK  Name = ZINCqH000003954K.0
REMARK                            x       y       z     vdW  Elec       q    Type
REMARK                         _______ _______ _______ _____ _____    ______ ____
ROOT
ATOM      1  C   LIG    1       -0.447   0.499  -0.005  0.00  0.00    -0.010 C 
ATOM      2  C   LIG    1       -1.296   0.748  -1.255  0.00  0.00    +0.060 C 
ATOM      3  C   LIG    1       -2.689   0.147  -1.054  0.00  0.00    +0.020 C 
ATOM      4  C   LIG    1       -3.369   0.830   0.137  0.00  0.00    +0.270 C 
ATOM      5  N   LIG    1       -2.491   0.721   1.310  0.00  0.00    -0.600 N 
ATOM      6  C   LIG    1       -2.950   0.204   2.466  0.00  0.00    +0.570 C 
ATOM      7  O   LIG    1       -2.241   0.197   3.453  0.00  0.00    -0.530 OA
ATOM      8  C   LIG    1       -1.101   1.186   1.197  0.00  0.00    +0.300 C 
ENDROOT
BRANCH   6   9
ATOM      9  C   LIG    1       -4.317  -0.353   2.535  0.00  0.00    -0.130 A 
ATOM     10  C   LIG    1       -5.391   0.356   1.994  0.00  0.00    +0.060 A 
ATOM     11  C   LIG    1       -6.664  -0.172   2.055  0.00  0.00    +0.030 A 
ATOM     12  C   LIG    1       -6.879  -1.398   2.664  0.00  0.00    -0.010 A 
ATOM     13  C   LIG    1       -5.818  -2.103   3.207  0.00  0.00    +0.030 A 
ATOM     14 CL   LIG    1       -8.485  -2.052   2.744  0.00  0.00    -0.060 Cl
ATOM     15  C   LIG    1       -4.541  -1.588   3.146  0.00  0.00    +0.090 A 
ENDBRANCH   6   9
BRANCH   1  18
ATOM     16  N   LIG    1        1.860   0.959   0.759  0.00  0.00    -0.670 N 
ATOM     17  H   LIG    1        1.615   0.593   1.623  0.00  0.00    +0.420 HD
ATOM     18  C   LIG    1        0.935   1.062  -0.216  0.00  0.00    +0.520 C 
ATOM     19  O   LIG    1        1.215   1.607  -1.262  0.00  0.00    -0.500 OA
BRANCH  16  23
ATOM     20  C   LIG    1        5.771   2.216   0.061  0.00  0.00    -0.050 A 
ATOM     21  C   LIG    1        5.244   2.253   1.355  0.00  0.00    +0.090 A 
ATOM     22  C   LIG    1        3.951   1.837   1.582  0.00  0.00    -0.010 A 
ATOM     23  C   LIG    1        3.170   1.380   0.525  0.00  0.00    +0.180 A 
ATOM     24  C   LIG    1        3.693   1.337  -0.763  0.00  0.00    +0.020 A 
ATOM     25  C   LIG    1        4.983   1.757  -0.998  0.00  0.00    +0.090 A 
BRANCH  20  27
ATOM     26  N   LIG    1        8.182   2.989  -0.369  0.00  0.00    -0.420 NA
ATOM     27  C   LIG    1        7.115   2.647  -0.179  0.00  0.00    +0.250 C 
ENDBRANCH  20  27
ENDBRANCH  16  23
ENDBRANCH   1  18
TORSDOF 4
