REMARK  Name = ZINCpe000000Y2Ve.0
REMARK                            x       y       z     vdW  Elec       q    Type
REMARK                         _______ _______ _______ _____ _____    ______ ____
ROOT
ATOM      1  C   LIG    1        2.761   3.856  -2.526  0.00  0.00    +0.170 C 
ATOM      2  C   LIG    1        3.195   4.043  -1.095  0.00  0.00    +0.200 A 
ATOM      3  N   LIG    1        4.329   4.563  -0.704  0.00  0.00    -0.480 NA
ATOM      4  C   LIG    1        4.372   4.570   0.631  0.00  0.00    +0.020 A 
ATOM      5  C   LIG    1        3.218   4.038   1.087  0.00  0.00    -0.030 A 
ATOM      6  C   LIG    1        2.881   3.857   2.544  0.00  0.00    +0.120 C 
ATOM      7  C   LIG    1        4.172   3.991   3.362  0.00  0.00    +0.040 C 
ATOM      8  C   LIG    1        4.915   5.261   2.937  0.00  0.00    +0.250 C 
ATOM      9  C   LIG    1        5.479   5.076   1.523  0.00  0.00    +0.130 C 
ATOM     10  N   LIG    1        2.475   3.699  -0.002  0.00  0.00    -0.440 N 
ENDROOT
BRANCH   8  11
ATOM     11  N   LIG    1        6.013   5.520   3.870  0.00  0.00    -0.710 N 
ATOM     12  H   LIG    1        6.405   4.788   4.373  0.00  0.00    +0.410 HD
ATOM     13  C   LIG    1        6.479   6.774   4.032  0.00  0.00    +0.620 C 
ATOM     14  O   LIG    1        5.988   7.691   3.402  0.00  0.00    -0.510 OA
BRANCH  13  15
ATOM     15  C   LIG    1        7.588   7.035   4.974  0.00  0.00    +0.130 A 
ATOM     16  N   LIG    1        8.133   8.206   5.223  0.00  0.00    -0.240 NA
ATOM     17  N   LIG    1        9.068   8.050   6.096  0.00  0.00    -0.290 N 
ATOM     18  C   LIG    1        9.133   6.746   6.423  0.00  0.00    +0.410 A 
ATOM     19  N   LIG    1        8.215   6.118   5.733  0.00  0.00    -0.490 NA
BRANCH  17  20
ATOM     20  C   LIG    1        9.917   9.112   6.640  0.00  0.00    +0.170 C 
ATOM     21  C   LIG    1       10.025   8.951   8.158  0.00  0.00    +0.070 C 
ATOM     22  C   LIG    1        9.302  10.474   6.314  0.00  0.00    +0.080 C 
ATOM     23  C   LIG    1       11.312   9.020   6.017  0.00  0.00    +0.070 C 
ENDBRANCH  17  20
ENDBRANCH  13  15
ENDBRANCH   8  11
BRANCH  10  24
ATOM     24  C   LIG    1        1.145   3.085   0.008  0.00  0.00    +0.300 C 
BRANCH  24  25
ATOM     25  C   LIG    1        1.286   1.562  -0.002  0.00  0.00    +0.160 C 
BRANCH  25  26
ATOM     26  O   LIG    1       -0.011   0.963   0.007  0.00  0.00    -0.570 OA
ATOM     27  H   LIG    1        0.002  -0.004   0.002  0.00  0.00    +0.390 HD
ENDBRANCH  25  26
ENDBRANCH  24  25
ENDBRANCH  10  24
TORSDOF 6
