REMARK  Name = ZINCvU0000000FNI.0
REMARK                            x       y       z     vdW  Elec       q    Type
REMARK                         _______ _______ _______ _____ _____    ______ ____
ROOT
ATOM      1  C   LIG    1        3.783  -0.983  -0.039  0.00  0.00    +0.350 C 
ENDROOT
BRANCH   1   2
ATOM      2  C   LIG    1        3.592  -2.349  -0.645  0.00  0.00    +0.270 A 
ATOM      3  N   LIG    1        2.616  -3.161  -0.360  0.00  0.00    -0.480 NA
ATOM      4  C   LIG    1        2.747  -4.303  -1.083  0.00  0.00    +0.050 A 
ATOM      5  C   LIG    1        1.999  -5.480  -1.169  0.00  0.00    +0.070 A 
ATOM      6  C   LIG    1        2.396  -6.479  -2.014  0.00  0.00    +0.000 A 
ATOM      7  C   LIG    1        3.537  -6.338  -2.790  0.00  0.00    +0.030 A 
ATOM      8  C   LIG    1        4.291  -5.185  -2.721  0.00  0.00    +0.010 A 
ATOM      9  C   LIG    1        3.903  -4.160  -1.869  0.00  0.00    +0.060 A 
ATOM     10  N   LIG    1        4.412  -2.911  -1.574  0.00  0.00    -0.470 N 
BRANCH  10  11
ATOM     11  C   LIG    1        5.614  -2.305  -2.151  0.00  0.00    +0.350 C 
BRANCH  11  12
ATOM     12  C   LIG    1        6.812  -2.667  -1.311  0.00  0.00    -0.120 A 
ATOM     13  C   LIG    1        7.192  -1.851  -0.262  0.00  0.00    +0.020 A 
ATOM     14  C   LIG    1        8.288  -2.186   0.512  0.00  0.00    +0.020 A 
ATOM     15  C   LIG    1        9.010  -3.330   0.229  0.00  0.00    +0.020 A 
ATOM     16  C   LIG    1        8.633  -4.143  -0.824  0.00  0.00    +0.010 A 
ATOM     17  C   LIG    1        7.534  -3.811  -1.594  0.00  0.00    +0.020 A 
ENDBRANCH  11  12
ENDBRANCH  10  11
ENDBRANCH   1   2
BRANCH   1  18
ATOM     18  N   LIG    1        2.502  -0.272  -0.023  0.00  0.00    -0.710 N 
ATOM     19  H   LIG    1        1.670  -0.772  -0.018  0.00  0.00    +0.410 HD
ATOM     20  C   LIG    1        2.478   1.075  -0.016  0.00  0.00    +0.560 C 
ATOM     21  O   LIG    1        3.520   1.701  -0.022  0.00  0.00    -0.510 OA
BRANCH  20  22
ATOM     22  C   LIG    1        1.186   1.792   0.000  0.00  0.00    -0.130 A 
ATOM     23  C   LIG    1       -0.013   1.076   0.008  0.00  0.00    +0.070 A 
ATOM     24  C   LIG    1       -1.216   1.751   0.017  0.00  0.00    +0.020 A 
ATOM     25  C   LIG    1       -1.237   3.134   0.030  0.00  0.00    +0.060 A 
ATOM     26  C   LIG    1       -0.054   3.851   0.022  0.00  0.00    +0.020 A 
ATOM     27  C   LIG    1        1.158   3.189   0.008  0.00  0.00    +0.020 A 
ATOM     28 CL   LIG    1        2.642   4.089  -0.001  0.00  0.00    -0.030 Cl
ENDBRANCH  20  22
ENDBRANCH   1  18
BRANCH   1  29
ATOM     29  C   LIG    1        4.304  -1.127   1.392  0.00  0.00    +0.070 C 
BRANCH  29  30
ATOM     30  C   LIG    1        4.615   0.257   1.964  0.00  0.00    +0.110 C 
BRANCH  30  32
ATOM     31  C   LIG    1        5.541   1.802   4.159  0.00  0.00    +0.140 C 
ATOM     32  S   LIG    1        5.233   0.085   3.661  0.00  0.00    -0.270 S 
ENDBRANCH  30  32
ENDBRANCH  29  30
ENDBRANCH   1  29
TORSDOF 8
