REMARK  Name = ZINCtV00000L6jo7.0
REMARK                            x       y       z     vdW  Elec       q    Type
REMARK                         _______ _______ _______ _____ _____    ______ ____
ROOT
ATOM      1  C   LIG    1        1.280   1.980   0.007  0.00  0.00    +0.260 C 
ENDROOT
BRANCH   1   2
ATOM      2  C   LIG    1        1.414   2.737   1.304  0.00  0.00    -0.130 A 
ATOM      3  C   LIG    1        1.935   2.109   2.420  0.00  0.00    +0.040 A 
ATOM      4  C   LIG    1        2.061   2.804   3.608  0.00  0.00    +0.010 A 
ATOM      5  C   LIG    1        1.658   4.125   3.682  0.00  0.00    +0.030 A 
ATOM      6  C   LIG    1        1.132   4.751   2.568  0.00  0.00    +0.010 A 
ATOM      7  C   LIG    1        1.010   4.057   1.379  0.00  0.00    +0.030 A 
ENDBRANCH   1   2
BRANCH   1   8
ATOM      8  C   LIG    1       -0.014   1.209   0.007  0.00  0.00    +0.530 C 
ATOM      9  N   LIG    1       -1.191   1.867   0.018  0.00  0.00    -0.660 N 
ATOM     10  H   LIG    1       -1.205   2.833   0.098  0.00  0.00    +0.420 HD
ATOM     11  O   LIG    1        0.002  -0.004  -0.009  0.00  0.00    -0.480 OA
BRANCH   9  12
ATOM     12  C   LIG    1       -2.391   1.155  -0.086  0.00  0.00    +0.170 A 
ATOM     13  C   LIG    1       -3.468   1.704  -0.769  0.00  0.00    +0.020 A 
ATOM     14  C   LIG    1       -4.651   0.997  -0.875  0.00  0.00    -0.000 A 
ATOM     15  C   LIG    1       -4.766  -0.252  -0.290  0.00  0.00    +0.040 A 
ATOM     16  C   LIG    1       -3.696  -0.799   0.396  0.00  0.00    -0.000 A 
ATOM     17 CL   LIG    1       -3.845  -2.366   1.127  0.00  0.00    -0.050 Cl
ATOM     18 CL   LIG    1       -5.996   1.680  -1.735  0.00  0.00    -0.050 Cl
ATOM     19  C   LIG    1       -2.509  -0.099   0.499  0.00  0.00    +0.050 A 
ENDBRANCH   9  12
ENDBRANCH   1   8
BRANCH   1  20
ATOM     20  O   LIG    1        2.393   1.058  -0.131  0.00  0.00    -0.320 OA
BRANCH  20  22
ATOM     21  O   LIG    1        3.528   2.662  -1.165  0.00  0.00    -0.490 OA
ATOM     22  C   LIG    1        3.497   1.520  -0.751  0.00  0.00    +0.520 C 
BRANCH  22  23
ATOM     23  C   LIG    1        4.668   0.638  -0.928  0.00  0.00    -0.110 A 
ATOM     24  C   LIG    1        4.636  -0.673  -0.449  0.00  0.00    +0.120 A 
ATOM     25  C   LIG    1        5.731  -1.495  -0.623  0.00  0.00    +0.050 A 
ATOM     26  C   LIG    1        6.864  -1.018  -1.261  0.00  0.00    +0.000 A 
ATOM     27  C   LIG    1        6.904   0.285  -1.733  0.00  0.00    -0.050 A 
ATOM     28 CL   LIG    1        8.329   0.874  -2.531  0.00  0.00    -0.030 Cl
ATOM     29 CL   LIG    1        8.240  -2.056  -1.468  0.00  0.00    -0.030 Cl
ATOM     30  C   LIG    1        5.813   1.114  -1.571  0.00  0.00    +0.130 A 
ENDBRANCH  22  23
ENDBRANCH  20  22
ENDBRANCH   1  20
TORSDOF 6
