REMARK  Name = ZINCpe000000UZzs.0
REMARK                            x       y       z     vdW  Elec       q    Type
REMARK                         _______ _______ _______ _____ _____    ______ ____
ROOT
ATOM      1  C   LIG    1       -2.160   1.039   1.292  0.00  0.00    +0.000 C 
ATOM      2  C   LIG    1       -0.736   1.600   1.263  0.00  0.00    +0.030 C 
ATOM      3  C   LIG    1       -0.016   1.102   0.007  0.00  0.00    +0.010 C 
ATOM      4  C   LIG    1       -0.758   1.603  -1.235  0.00  0.00    +0.270 C 
ATOM      5  N   LIG    1       -2.166   1.190  -1.144  0.00  0.00    -0.620 N 
ATOM      6  C   LIG    1       -2.747   0.504  -2.148  0.00  0.00    +0.710 C 
ATOM      7  N   LIG    1       -2.070   0.281  -3.292  0.00  0.00    -0.730 N 
ATOM      8  H   LIG    1       -1.140   0.546  -3.364  0.00  0.00    +0.410 HD
ATOM      9  O   LIG    1       -3.882   0.087  -2.022  0.00  0.00    -0.580 OA
ATOM     10  C   LIG    1       -2.927   1.540   0.063  0.00  0.00    +0.300 C 
ENDROOT
BRANCH   1  11
ATOM     11  C   LIG    1       -2.869   1.511   2.563  0.00  0.00    -0.350 C 
BRANCH  11  12
ATOM     12  S   LIG    1       -4.504   0.731   2.668  0.00  0.00    +2.610 S 
ATOM     13  O   LIG    1       -4.376  -0.665   2.900  0.00  0.00    -0.950 OA
ATOM     14  O   LIG    1       -5.360   1.229   1.649  0.00  0.00    -0.940 OA
BRANCH  12  16
ATOM     15  C   LIG    1       -5.453   2.749   4.197  0.00  0.00    +0.290 C 
ATOM     16  N   LIG    1       -5.153   1.321   4.072  0.00  0.00    -1.130 NA
ATOM     17  H   LIG    1       -5.335   0.721   4.812  0.00  0.00    +0.420 HD
ENDBRANCH  12  16
ENDBRANCH  11  12
ENDBRANCH   1  11
BRANCH   7  18
ATOM     18  C   LIG    1       -2.740  -0.360  -4.426  0.00  0.00    +0.390 C 
BRANCH  18  19
ATOM     19  C   LIG    1       -1.714  -1.039  -5.296  0.00  0.00    +0.190 A 
ATOM     20  N   LIG    1       -0.576  -0.524  -5.674  0.00  0.00    -0.480 NA
ATOM     21  C   LIG    1        0.079  -1.410  -6.439  0.00  0.00    +0.140 A 
ATOM     22  C   LIG    1       -0.682  -2.516  -6.540  0.00  0.00    +0.130 A 
ATOM     23  N   LIG    1       -1.817  -2.284  -5.810  0.00  0.00    -0.450 N 
ATOM     24  C   LIG    1       -2.936  -3.211  -5.624  0.00  0.00    +0.320 C 
ENDBRANCH  18  19
BRANCH  18  25
ATOM     25  C   LIG    1       -3.483   0.697  -5.244  0.00  0.00    -0.060 C 
ATOM     26  C   LIG    1       -3.241   2.165  -4.888  0.00  0.00    +0.020 C 
ATOM     27  C   LIG    1       -4.574   1.502  -4.534  0.00  0.00    +0.030 C 
ENDBRANCH  18  25
ENDBRANCH   7  18
TORSDOF 6
