REMARK  Name = ZINCpk00000y6x5j.0
REMARK                            x       y       z     vdW  Elec       q    Type
REMARK                         _______ _______ _______ _____ _____    ______ ____
ROOT
ATOM      1  N   LIG    1       -3.339   7.674   3.652  0.00  0.00    -0.740 N 
ATOM      2  H   LIG    1       -4.109   8.081   3.225  0.00  0.00    +0.400 HD
ATOM      3  C   LIG    1       -2.999   6.404   3.358  0.00  0.00    +0.710 C 
ATOM      4  N   LIG    1       -3.663   5.733   2.397  0.00  0.00    -0.630 N 
ATOM      5  C   LIG    1       -4.831   6.333   1.737  0.00  0.00    +0.260 C 
ATOM      6  C   LIG    1       -4.613   6.297   0.221  0.00  0.00    +0.020 C 
ATOM      7  C   LIG    1       -4.314   4.860  -0.214  0.00  0.00    +0.030 C 
ATOM      8  C   LIG    1       -3.034   4.374   0.470  0.00  0.00    +0.140 C 
ATOM      9  C   LIG    1       -3.235   4.388   1.989  0.00  0.00    +0.280 C 
ATOM     10  O   LIG    1       -2.092   5.862   3.961  0.00  0.00    -0.580 OA
ENDROOT
BRANCH   1  15
ATOM     11  C   LIG    1       -2.735   9.962   4.397  0.00  0.00    -0.010 C 
ATOM     12  C   LIG    1       -2.391  10.587   5.765  0.00  0.00    +0.030 C 
ATOM     13  C   LIG    1       -2.614   9.489   6.819  0.00  0.00    +0.020 C 
ATOM     14  C   LIG    1       -3.082   8.230   6.056  0.00  0.00    +0.010 C 
ATOM     15  C   LIG    1       -2.547   8.440   4.618  0.00  0.00    +0.260 C 
BRANCH  11  16
ATOM     16  C   LIG    1       -1.774  10.469   3.320  0.00  0.00    +0.270 C 
BRANCH  16  17
ATOM     17  N   LIG    1       -2.051  11.881   3.044  0.00  0.00    -1.120 NA
ATOM     18  H   LIG    1       -2.880  12.282   3.352  0.00  0.00    +0.420 HD
BRANCH  17  20
ATOM     19  C   LIG    1       -0.906  12.047   0.556  0.00  0.00    -0.280 C 
ATOM     20  S   LIG    1       -0.950  12.793   2.209  0.00  0.00    +2.610 S 
ATOM     21  O   LIG    1        0.277  12.571   2.889  0.00  0.00    -0.950 OA
ATOM     22  O   LIG    1       -1.535  14.087   2.156  0.00  0.00    -0.960 OA
ENDBRANCH  17  20
ENDBRANCH  16  17
ENDBRANCH  11  16
ENDBRANCH   1  15
BRANCH   8  23
ATOM     23  O   LIG    1       -2.740   3.044   0.040  0.00  0.00    -0.360 OA
BRANCH  23  24
ATOM     24  C   LIG    1       -1.345   2.732   0.028  0.00  0.00    +0.150 C 
ATOM     25  C   LIG    1       -0.954   1.698  -1.041  0.00  0.00    +0.020 C 
ATOM     26  C   LIG    1       -0.009   1.088   0.007  0.00  0.00    +0.020 C 
ATOM     27  C   LIG    1       -0.936   1.685   1.079  0.00  0.00    +0.000 C 
ENDBRANCH  23  24
ENDBRANCH   8  23
TORSDOF 6
