REMARK  Name = ZINCtV00000L6k1w.0
REMARK                            x       y       z     vdW  Elec       q    Type
REMARK                         _______ _______ _______ _____ _____    ______ ____
ROOT
ATOM      1  C   LIG    1        3.100   3.619   2.171  0.00  0.00    +0.330 A 
ATOM      2  C   LIG    1        3.867   4.245   3.106  0.00  0.00    -0.400 A 
ATOM      3  S   LIG    1        5.376   4.799   2.410  0.00  0.00    +0.200 S 
ATOM      4  C   LIG    1        4.963   4.171   0.819  0.00  0.00    +0.100 A 
ATOM      5  N   LIG    1        5.658   4.207  -0.322  0.00  0.00    -0.450 NA
ATOM      6  C   LIG    1        5.208   3.686  -1.440  0.00  0.00    +0.220 A 
ATOM      7  C   LIG    1        3.975   3.061  -1.496  0.00  0.00    -0.020 A 
ATOM      8  C   LIG    1        3.195   2.993  -0.348  0.00  0.00    +0.060 A 
ATOM      9  C   LIG    1        3.704   3.563   0.854  0.00  0.00    -0.170 A 
ENDROOT
BRANCH   8  10
ATOM     10  C   LIG    1        1.869   2.336  -0.372  0.00  0.00    -0.110 A 
ATOM     11  C   LIG    1        1.768   0.968  -0.623  0.00  0.00    +0.070 A 
ATOM     12  C   LIG    1        0.529   0.361  -0.645  0.00  0.00    +0.020 A 
ATOM     13  C   LIG    1       -0.614   1.107  -0.418  0.00  0.00    +0.060 A 
ATOM     14  C   LIG    1       -0.524   2.464  -0.168  0.00  0.00    +0.000 A 
ATOM     15  C   LIG    1        0.711   3.084  -0.143  0.00  0.00    +0.110 A 
ATOM     16  F   LIG    1        0.798   4.410   0.101  0.00  0.00    -0.130 F 
ENDBRANCH   8  10
BRANCH   1  17
ATOM     17  N   LIG    1        1.853   3.083   2.452  0.00  0.00    -0.820 N 
ATOM     18  H   LIG    1        1.490   3.145   3.349  0.00  0.00    +0.420 HD
ATOM     19  H   LIG    1        1.343   2.646   1.752  0.00  0.00    +0.400 HD
ENDBRANCH   1  17
BRANCH   6  20
ATOM     20  C   LIG    1        6.053   3.767  -2.686  0.00  0.00    +0.010 C 
ATOM     21  C   LIG    1        5.688   2.842  -3.849  0.00  0.00    +0.040 C 
ATOM     22  C   LIG    1        6.942   2.567  -3.016  0.00  0.00    +0.050 C 
ENDBRANCH   6  20
BRANCH   2  23
ATOM     23  C   LIG    1        3.494   4.423   4.458  0.00  0.00    +0.480 C 
ATOM     24  O   LIG    1        2.483   3.895   4.886  0.00  0.00    -0.480 OA
BRANCH  23  25
ATOM     25  C   LIG    1        4.332   5.250   5.353  0.00  0.00    -0.140 A 
ATOM     26  C   LIG    1        4.280   5.061   6.735  0.00  0.00    +0.080 A 
ATOM     27  C   LIG    1        5.067   5.833   7.564  0.00  0.00    +0.040 A 
ATOM     28  C   LIG    1        5.901   6.801   7.029  0.00  0.00    -0.070 A 
ATOM     29  C   LIG    1        5.953   6.996   5.659  0.00  0.00    +0.050 A 
ATOM     30 BR   LIG    1        6.971   7.859   8.173  0.00  0.00    -0.040 Br
ATOM     31  C   LIG    1        5.174   6.227   4.819  0.00  0.00    +0.070 A 
ENDBRANCH  23  25
ENDBRANCH   2  23
TORSDOF 5
