REMARK  Name = ZINCnE000008Jjif.0
REMARK                            x       y       z     vdW  Elec       q    Type
REMARK                         _______ _______ _______ _____ _____    ______ ____
ROOT
ATOM      1  C   LIG    1        3.310  -1.719  -0.036  0.00  0.00    +0.250 A 
ATOM      2  C   LIG    1        3.668  -2.396   1.114  0.00  0.00    -0.150 A 
ATOM      3  C   LIG    1        4.766  -3.263   1.075  0.00  0.00    +0.510 A 
ATOM      4  N   LIG    1        5.442  -3.409  -0.085  0.00  0.00    -0.430 N 
ATOM      5  C   LIG    1        6.514  -4.249  -0.138  0.00  0.00    +0.330 A 
ATOM      6  C   LIG    1        7.208  -4.411  -1.288  0.00  0.00    -0.150 A 
ATOM      7  C   LIG    1        6.828  -3.714  -2.444  0.00  0.00    +0.130 A 
ATOM      8  C   LIG    1        5.757  -2.873  -2.401  0.00  0.00    +0.070 A 
ATOM      9 BR   LIG    1        8.692  -5.582  -1.337  0.00  0.00    -0.010 Br
ATOM     10  C   LIG    1        5.048  -2.716  -1.195  0.00  0.00    +0.390 A 
ATOM     11  O   LIG    1        5.107  -3.877   2.074  0.00  0.00    -0.530 OA
ATOM     12  N   LIG    1        3.999  -1.897  -1.152  0.00  0.00    -0.520 NA
ENDROOT
BRANCH   1  13
ATOM     13  C   LIG    1        2.131  -0.780  -0.020  0.00  0.00    +0.040 C 
BRANCH  13  14
ATOM     14  S   LIG    1        2.723   0.931  -0.018  0.00  0.00    +0.070 S 
BRANCH  14  20
ATOM     15  C   LIG    1        1.155   3.193   0.008  0.00  0.00    -0.130 A 
ATOM     16  C   LIG    1       -0.076   3.858   0.023  0.00  0.00    +0.060 A 
ATOM     17  C   LIG    1       -1.248   3.135   0.030  0.00  0.00    -0.030 A 
ATOM     18  C   LIG    1       -1.216   1.748   0.017  0.00  0.00    +0.010 A 
ATOM     19  C   LIG    1       -0.013   1.076   0.008  0.00  0.00    -0.030 A 
ATOM     20  C   LIG    1        1.182   1.787   0.000  0.00  0.00    -0.080 A 
BRANCH  15  22
ATOM     21  O   LIG    1        2.380   5.181   0.007  0.00  0.00    -0.680 OA
ATOM     22  C   LIG    1        2.409   3.958   0.000  0.00  0.00    +0.520 C 
ATOM     23  O   LIG    1        3.483   3.372  -0.012  0.00  0.00    -0.650 OA
ENDBRANCH  15  22
ENDBRANCH  14  20
ENDBRANCH  13  14
ENDBRANCH   1  13
TORSDOF 4
