REMARK  Name = ZINCqH0000000xof.0
REMARK                            x       y       z     vdW  Elec       q    Type
REMARK                         _______ _______ _______ _____ _____    ______ ____
ROOT
ATOM      1  N   LIG    1        2.430   1.188   0.111  0.00  0.00    -0.690 N 
ATOM      2  H   LIG    1        3.251   1.701   0.044  0.00  0.00    +0.420 HD
ENDROOT
BRANCH   1   6
ATOM      3  C   LIG    1       -1.243   3.118  -0.028  0.00  0.00    -0.230 A 
ATOM      4  C   LIG    1       -1.186   1.719   0.013  0.00  0.00    +0.170 A 
ATOM      5  C   LIG    1        0.025   1.088   0.063  0.00  0.00    -0.070 A 
ATOM      6  C   LIG    1        1.201   1.833   0.065  0.00  0.00    +0.310 A 
ATOM      7  C   LIG    1        1.149   3.225   0.020  0.00  0.00    -0.120 A 
ATOM      8  C   LIG    1       -0.057   3.864  -0.026  0.00  0.00    +0.210 A 
BRANCH   3  10
ATOM      9  C   LIG    1       -3.815   3.005   0.048  0.00  0.00    +0.080 C 
ATOM     10  C   LIG    1       -2.541   3.800  -0.076  0.00  0.00    +0.400 C 
ATOM     11  O   LIG    1       -2.589   5.004  -0.217  0.00  0.00    -0.460 OA
ENDBRANCH   3  10
BRANCH   7  12
ATOM     12  N   LIG    1        2.403   4.012   0.022  0.00  0.00    +0.040 N 
ATOM     13  O   LIG    1        3.375   3.610  -0.592  0.00  0.00    -0.170 OA
ATOM     14  O   LIG    1        2.462   5.061   0.637  0.00  0.00    -0.140 OA
ENDBRANCH   7  12
ENDBRANCH   1   6
BRANCH   1  15
ATOM     15  C   LIG    1        2.487  -0.269   0.263  0.00  0.00    +0.390 C 
BRANCH  15  16
ATOM     16  C   LIG    1        2.359  -0.920  -1.090  0.00  0.00    +0.180 A 
ATOM     17  N   LIG    1        2.986  -0.552  -2.174  0.00  0.00    -0.460 NA
ATOM     18  C   LIG    1        2.629  -1.356  -3.186  0.00  0.00    +0.150 A 
ATOM     19  C   LIG    1        1.748  -2.257  -2.712  0.00  0.00    +0.130 A 
ATOM     20  N   LIG    1        1.580  -1.984  -1.381  0.00  0.00    -0.450 N 
ATOM     21  C   LIG    1        0.715  -2.709  -0.447  0.00  0.00    +0.320 C 
ENDBRANCH  15  16
BRANCH  15  22
ATOM     22  C   LIG    1        3.803  -0.658   0.885  0.00  0.00    -0.100 A 
ATOM     23  C   LIG    1        4.966  -0.018   0.499  0.00  0.00    +0.040 A 
ATOM     24  C   LIG    1        6.173  -0.372   1.073  0.00  0.00    +0.020 A 
ATOM     25  C   LIG    1        6.218  -1.372   2.025  0.00  0.00    +0.020 A 
ATOM     26  C   LIG    1        5.056  -2.016   2.408  0.00  0.00    +0.010 A 
ATOM     27  C   LIG    1        3.849  -1.659   1.837  0.00  0.00    +0.020 A 
ENDBRANCH  15  22
ENDBRANCH   1  15
TORSDOF 6
