REMARK  Name = ZINCrD0000075slR.0
REMARK                            x       y       z     vdW  Elec       q    Type
REMARK                         _______ _______ _______ _____ _____    ______ ____
ROOT
ATOM      1  O   LIG    1       -2.916   7.771  -0.239  0.00  0.00    -0.330 OA
ENDROOT
BRANCH   1   2
ATOM      2  C   LIG    1       -3.176   9.090  -0.338  0.00  0.00    +0.510 C 
ATOM      3  O   LIG    1       -2.261   9.890  -0.355  0.00  0.00    -0.490 OA
BRANCH   2   4
ATOM      4  C   LIG    1       -4.567   9.562  -0.423  0.00  0.00    -0.160 A 
ATOM      5  C   LIG    1       -4.832  10.926  -0.525  0.00  0.00    +0.210 A 
ATOM      6  C   LIG    1       -6.169  11.365  -0.607  0.00  0.00    -0.100 A 
ATOM      7  C   LIG    1       -6.479  12.730  -0.710  0.00  0.00    +0.060 A 
ATOM      8  C   LIG    1       -7.782  13.123  -0.787  0.00  0.00    +0.010 A 
ATOM      9  C   LIG    1       -8.813  12.187  -0.764  0.00  0.00    +0.040 A 
ATOM     10  C   LIG    1       -8.548  10.855  -0.665  0.00  0.00    +0.010 A 
ATOM     11  C   LIG    1       -7.218  10.413  -0.584  0.00  0.00    -0.010 A 
ATOM     12  C   LIG    1       -6.914   9.041  -0.481  0.00  0.00    +0.020 A 
ATOM     13  C   LIG    1       -5.624   8.631  -0.408  0.00  0.00    +0.090 A 
BRANCH   5  14
ATOM     14  O   LIG    1       -3.815  11.821  -0.545  0.00  0.00    -0.470 OA
ATOM     15  H   LIG    1       -3.485  12.022  -1.431  0.00  0.00    +0.400 HD
ENDBRANCH   5  14
ENDBRANCH   2   4
ENDBRANCH   1   2
BRANCH   1  16
ATOM     16  C   LIG    1       -1.520   7.379  -0.158  0.00  0.00    +0.270 C 
BRANCH  16  18
ATOM     17  O   LIG    1       -2.436   5.206  -0.049  0.00  0.00    -0.490 OA
ATOM     18  C   LIG    1       -1.426   5.878  -0.054  0.00  0.00    +0.520 C 
ATOM     19  N   LIG    1       -0.220   5.283   0.033  0.00  0.00    -0.660 N 
ATOM     20  H   LIG    1        0.583   5.823   0.110  0.00  0.00    +0.420 HD
BRANCH  19  21
ATOM     21  C   LIG    1       -0.125   3.890   0.013  0.00  0.00    +0.190 A 
ATOM     22  C   LIG    1       -1.101   3.147  -0.581  0.00  0.00    +0.040 A 
ATOM     23  C   LIG    1       -1.033   1.756  -0.622  0.00  0.00    +0.070 A 
ATOM     24  C   LIG    1       -0.001   1.077  -0.064  0.00  0.00    +0.050 A 
ATOM     25  C   LIG    1        1.053   1.783   0.572  0.00  0.00    +0.100 A 
ATOM     26  N   LIG    1        2.149   1.350   1.173  0.00  0.00    -0.590 NA
ATOM     27  S   LIG    1        2.964   2.565   1.700  0.00  0.00    +0.810 S 
ATOM     28  N   LIG    1        2.046   3.733   1.240  0.00  0.00    -0.600 NA
ATOM     29  C   LIG    1        0.990   3.241   0.613  0.00  0.00    +0.060 A 
ENDBRANCH  19  21
ENDBRANCH  16  18
ENDBRANCH   1  16
TORSDOF 6
