REMARK  Name = ZINCrg000000p7ei.0
REMARK                            x       y       z     vdW  Elec       q    Type
REMARK                         _______ _______ _______ _____ _____    ______ ____
ROOT
ATOM      1  C   LIG    1        0.103   3.623  -0.020  0.00  0.00    +0.190 C 
ATOM      2  N   LIG    1        0.603   2.269   0.254  0.00  0.00    -0.540 NA
ATOM      3  C   LIG    1       -0.335   1.252  -0.241  0.00  0.00    +0.170 C 
ATOM      4  C   LIG    1        0.301  -0.135  -0.102  0.00  0.00    +0.300 C 
ATOM      5  N   LIG    1        0.733  -0.313   1.293  0.00  0.00    -0.650 N 
ATOM      6  C   LIG    1        1.564   0.736   1.903  0.00  0.00    +0.280 C 
ATOM      7  C   LIG    1        0.377  -1.409   1.992  0.00  0.00    +0.720 C 
ATOM      8  N   LIG    1        1.194  -1.892   2.949  0.00  0.00    -0.630 N 
ATOM      9  C   LIG    1        2.560  -1.371   3.100  0.00  0.00    +0.260 C 
ATOM     10  C   LIG    1        2.738  -0.887   4.549  0.00  0.00    +0.280 C 
ATOM     11  N   LIG    1        2.280  -1.948   5.457  0.00  0.00    -0.600 N 
ATOM     12  C   LIG    1        0.916  -2.473   5.303  0.00  0.00    +0.290 C 
ATOM     13  C   LIG    1        3.097  -2.432   6.414  0.00  0.00    +0.600 C 
ATOM     14  O   LIG    1        2.750  -3.382   7.086  0.00  0.00    -0.510 OA
ATOM     15  C   LIG    1        0.737  -2.954   3.857  0.00  0.00    +0.300 C 
ATOM     16  O   LIG    1       -0.681  -1.961   1.760  0.00  0.00    -0.570 OA
ATOM     17  C   LIG    1        0.878   2.088   1.685  0.00  0.00    +0.170 C 
ENDROOT
BRANCH  13  18
ATOM     18  C   LIG    1        4.421  -1.803   6.646  0.00  0.00    -0.010 A 
ATOM     19  N   LIG    1        4.965  -0.836   5.947  0.00  0.00    -0.330 NA
ATOM     20  O   LIG    1        6.053  -0.529   6.375  0.00  0.00    +0.130 OA
ATOM     21  C   LIG    1        6.393  -1.269   7.446  0.00  0.00    +0.060 A 
ATOM     22  C   LIG    1        5.345  -2.124   7.671  0.00  0.00    +0.030 A 
BRANCH  21  23
ATOM     23  C   LIG    1        7.638  -1.175   8.223  0.00  0.00    +0.030 A 
ATOM     24  C   LIG    1        8.667  -0.313   7.986  0.00  0.00    +0.010 A 
ATOM     25  C   LIG    1        9.644  -0.570   8.966  0.00  0.00    -0.060 A 
ATOM     26  C   LIG    1        9.171  -1.564   9.746  0.00  0.00    +0.210 A 
ATOM     27  O   LIG    1        7.958  -1.923   9.298  0.00  0.00    -0.160 OA
ENDBRANCH  21  23
ENDBRANCH  13  18
TORSDOF 2
