REMARK  Name = ZINCpk00000kZN6c.0
REMARK                            x       y       z     vdW  Elec       q    Type
REMARK                         _______ _______ _______ _____ _____    ______ ____
ROOT
ATOM      1  C   LIG    1       -2.439   0.671   0.017  0.00  0.00    +0.240 C 
ENDROOT
BRANCH   1   2
ATOM      2  C   LIG    1       -3.771   1.415  -0.098  0.00  0.00    -0.030 C 
ATOM      3  C   LIG    1       -4.291   1.958   1.243  0.00  0.00    +0.020 C 
ATOM      4  C   LIG    1       -5.694   1.526   0.784  0.00  0.00    +0.010 C 
ATOM      5  C   LIG    1       -4.996   0.485  -0.107  0.00  0.00    +0.030 C 
ENDBRANCH   1   2
BRANCH   1   6
ATOM      6  N   LIG    1       -2.288  -0.240  -1.120  0.00  0.00    -0.730 N 
ATOM      7  H   LIG    1       -1.797   0.043  -1.907  0.00  0.00    +0.400 HD
ATOM      8  C   LIG    1       -2.832  -1.472  -1.073  0.00  0.00    +0.520 C 
ATOM      9  O   LIG    1       -3.446  -1.827  -0.089  0.00  0.00    -0.530 OA
BRANCH   8  10
ATOM     10  C   LIG    1       -2.677  -2.410  -2.242  0.00  0.00    +0.050 C 
BRANCH  10  11
ATOM     11  C   LIG    1       -3.382  -3.732  -1.933  0.00  0.00    +0.040 C 
ATOM     12  C   LIG    1       -2.683  -4.451  -0.803  0.00  0.00    -0.030 C 
ATOM     13  C   LIG    1       -2.536  -5.719  -1.073  0.00  0.00    -0.060 C 
ATOM     14  C   LIG    1       -3.114  -6.058  -2.427  0.00  0.00    +0.040 C 
ATOM     15  C   LIG    1       -3.274  -4.695  -3.139  0.00  0.00    +0.020 C 
ENDBRANCH  10  11
ENDBRANCH   8  10
ENDBRANCH   1   6
BRANCH   1  16
ATOM     16  C   LIG    1       -1.290   1.681   0.017  0.00  0.00    +0.270 C 
BRANCH  16  19
ATOM     17  O   LIG    1        1.130   2.868   0.007  0.00  0.00    -0.540 OA
ATOM     18  C   LIG    1        1.147   1.655   0.000  0.00  0.00    +0.520 C 
ATOM     19  N   LIG    1       -0.011   0.966   0.007  0.00  0.00    -0.730 N 
ATOM     20  H   LIG    1        0.002  -0.004   0.002  0.00  0.00    +0.400 HD
BRANCH  18  21
ATOM     21  C   LIG    1        2.462   0.920  -0.017  0.00  0.00    +0.060 C 
BRANCH  21  22
ATOM     22  C   LIG    1        3.611   1.930  -0.022  0.00  0.00    +0.180 C 
BRANCH  22  23
ATOM     23  C   LIG    1        4.926   1.194  -0.039  0.00  0.00    +0.010 A 
ATOM     24  N   LIG    1        5.332   0.278   0.811  0.00  0.00    -0.280 NA
ATOM     25  N   LIG    1        6.507  -0.114   0.467  0.00  0.00    -0.250 N 
ATOM     26  H   LIG    1        7.024  -0.787   0.937  0.00  0.00    +0.470 HD
ATOM     27  N   LIG    1        6.905   0.509  -0.586  0.00  0.00    -0.280 NA
ATOM     28  C   LIG    1        5.962   1.342  -0.964  0.00  0.00    +0.180 A 
ENDBRANCH  22  23
ENDBRANCH  21  22
ENDBRANCH  18  21
ENDBRANCH  16  19
ENDBRANCH   1  16
TORSDOF 9
