REMARK  Name = ZINCpk00000kZN6c.1
REMARK                            x       y       z     vdW  Elec       q    Type
REMARK                         _______ _______ _______ _____ _____    ______ ____
ROOT
ATOM      1  C   LIG    1       -0.013   1.086   0.008  0.00  0.00    +0.240 C 
ENDROOT
BRANCH   1   2
ATOM      2  C   LIG    1        1.423   1.615  -0.003  0.00  0.00    -0.030 C 
ATOM      3  C   LIG    1        2.379   0.784  -0.874  0.00  0.00    +0.020 C 
ATOM      4  C   LIG    1        3.430   0.981   0.231  0.00  0.00    +0.010 C 
ATOM      5  C   LIG    1        2.256   1.161   1.207  0.00  0.00    +0.030 C 
ENDBRANCH   1   2
BRANCH   1   6
ATOM      6  N   LIG    1       -0.698   1.558   1.213  0.00  0.00    -0.730 N 
ATOM      7  H   LIG    1       -1.241   2.362   1.179  0.00  0.00    +0.400 HD
ATOM      8  C   LIG    1       -0.575   0.877   2.369  0.00  0.00    +0.520 C 
ATOM      9  O   LIG    1        0.103  -0.128   2.412  0.00  0.00    -0.530 OA
BRANCH   8  10
ATOM     10  C   LIG    1       -1.281   1.363   3.609  0.00  0.00    +0.050 C 
BRANCH  10  11
ATOM     11  C   LIG    1       -0.978   0.416   4.773  0.00  0.00    +0.040 C 
ATOM     12  C   LIG    1       -1.591  -0.941   4.521  0.00  0.00    -0.020 C 
ATOM     13  C   LIG    1       -2.188  -1.393   5.590  0.00  0.00    -0.060 C 
ATOM     14  C   LIG    1       -2.072  -0.412   6.733  0.00  0.00    +0.040 C 
ATOM     15  C   LIG    1       -1.656   0.920   6.068  0.00  0.00    +0.020 C 
ENDBRANCH  10  11
ENDBRANCH   8  10
ENDBRANCH   1   6
BRANCH   1  16
ATOM     16  C   LIG    1       -0.753   1.593  -1.232  0.00  0.00    +0.260 C 
BRANCH  16  19
ATOM     17  O   LIG    1       -2.608   2.164  -3.101  0.00  0.00    -0.540 OA
ATOM     18  C   LIG    1       -3.008   1.523  -2.152  0.00  0.00    +0.520 C 
ATOM     19  N   LIG    1       -2.158   1.186  -1.162  0.00  0.00    -0.730 N 
ATOM     20  H   LIG    1       -2.478   0.673  -0.402  0.00  0.00    +0.400 HD
BRANCH  18  21
ATOM     21  C   LIG    1       -4.454   1.104  -2.080  0.00  0.00    +0.050 C 
BRANCH  21  22
ATOM     22  C   LIG    1       -5.194   1.611  -3.320  0.00  0.00    +0.160 C 
BRANCH  22  23
ATOM     23  C   LIG    1       -6.639   1.192  -3.248  0.00  0.00    -0.020 A 
ATOM     24  C   LIG    1       -7.722   2.001  -3.328  0.00  0.00    +0.160 A 
ATOM     25  N   LIG    1       -8.803   1.196  -3.216  0.00  0.00    -0.390 N 
ATOM     26  H   LIG    1       -9.730   1.482  -3.235  0.00  0.00    +0.450 HD
ATOM     27  N   LIG    1       -8.391  -0.016  -3.077  0.00  0.00    -0.080 NA
ATOM     28  N   LIG    1       -7.106  -0.052  -3.098  0.00  0.00    -0.260 NA
ENDBRANCH  22  23
ENDBRANCH  21  22
ENDBRANCH  18  21
ENDBRANCH  16  19
ENDBRANCH   1  16
TORSDOF 9
