REMARK  Name = ZINCrD00000hQ4WY.0
REMARK                            x       y       z     vdW  Elec       q    Type
REMARK                         _______ _______ _______ _____ _____    ______ ____
ROOT
ATOM      1  C   LIG    1        0.802   5.442  -2.309  0.00  0.00    +0.310 C 
ENDROOT
BRANCH   1   6
ATOM      2  N   LIG    1       -1.133   5.819   0.931  0.00  0.00    -0.530 NA
ATOM      3  C   LIG    1       -1.200   7.287   0.933  0.00  0.00    +0.160 C 
ATOM      4  C   LIG    1       -1.460   7.783  -0.492  0.00  0.00    +0.220 C 
ATOM      5  O   LIG    1       -0.434   7.289  -1.358  0.00  0.00    -0.380 OA
ATOM      6  C   LIG    1       -0.342   5.862  -1.385  0.00  0.00    +0.170 C 
ATOM      7  C   LIG    1       -0.070   5.347   0.031  0.00  0.00    +0.160 C 
BRANCH   7   8
ATOM      8  C   LIG    1       -0.050   3.840   0.023  0.00  0.00    -0.090 A 
ATOM      9  C   LIG    1        1.156   3.165   0.008  0.00  0.00    +0.010 A 
ATOM     10  C   LIG    1        1.175   1.783   0.000  0.00  0.00    +0.000 A 
ATOM     11  C   LIG    1       -0.013   1.076   0.008  0.00  0.00    +0.000 A 
ATOM     12  C   LIG    1       -1.219   1.751   0.017  0.00  0.00    +0.000 A 
ATOM     13  C   LIG    1       -1.238   3.133   0.030  0.00  0.00    +0.040 A 
ENDBRANCH   7   8
BRANCH   2  15
ATOM     14  C   LIG    1       -1.908   6.000   3.247  0.00  0.00    +0.020 C 
ATOM     15  C   LIG    1       -0.941   5.298   2.291  0.00  0.00    +0.170 C 
ENDBRANCH   2  15
ENDBRANCH   1   6
BRANCH   1  16
ATOM     16  N   LIG    1        0.542   5.935  -3.664  0.00  0.00    -0.740 N 
ATOM     17  H   LIG    1       -0.263   6.444  -3.849  0.00  0.00    +0.400 HD
ATOM     18  C   LIG    1        1.421   5.683  -4.654  0.00  0.00    +0.700 C 
ATOM     19  N   LIG    1        1.182   6.137  -5.900  0.00  0.00    -0.740 N 
ATOM     20  H   LIG    1        0.377   6.645  -6.085  0.00  0.00    +0.400 HD
ATOM     21  O   LIG    1        2.431   5.045  -4.422  0.00  0.00    -0.580 OA
BRANCH  19  22
ATOM     22  C   LIG    1        2.138   5.862  -6.976  0.00  0.00    +0.270 C 
ATOM     23  C   LIG    1        2.006   6.933  -8.060  0.00  0.00    +0.020 C 
ATOM     24  C   LIG    1        3.004   6.646  -9.184  0.00  0.00    +0.050 C 
ATOM     25  C   LIG    1        2.712   5.271  -9.787  0.00  0.00    +0.030 C 
ATOM     26  C   LIG    1        2.844   4.200  -8.702  0.00  0.00    +0.290 C 
ATOM     27  F   LIG    1        4.144   4.216  -8.186  0.00  0.00    -0.200 F 
ATOM     28  F   LIG    1        2.576   2.942  -9.254  0.00  0.00    -0.200 F 
ATOM     29  C   LIG    1        1.846   4.487  -7.579  0.00  0.00    +0.010 C 
ENDBRANCH  19  22
ENDBRANCH   1  16
TORSDOF 5
