REMARK  Name = ZINCrH000004v8E4.0
REMARK                            x       y       z     vdW  Elec       q    Type
REMARK                         _______ _______ _______ _____ _____    ______ ____
ROOT
ATOM      1  O   LIG    1       -6.054   3.684   2.718  0.00  0.00    -0.500 OA
ATOM      2  C   LIG    1       -6.058   3.696   1.502  0.00  0.00    +0.570 C 
ATOM      3  N   LIG    1       -7.033   4.346   0.837  0.00  0.00    -0.670 N 
ATOM      4  H   LIG    1       -7.000   4.412  -0.130  0.00  0.00    +0.420 HD
ENDROOT
BRANCH   2   5
ATOM      5  C   LIG    1       -4.994   2.997   0.754  0.00  0.00    -0.120 A 
ATOM      6  C   LIG    1       -4.998   3.009  -0.642  0.00  0.00    +0.080 A 
ATOM      7  C   LIG    1       -4.003   2.356  -1.342  0.00  0.00    -0.040 A 
ATOM      8  C   LIG    1       -3.000   1.687  -0.655  0.00  0.00    +0.110 A 
ATOM      9  O   LIG    1       -2.015   1.039  -1.341  0.00  0.00    -0.310 OA
ATOM     10  C   LIG    1       -0.706   1.603  -1.238  0.00  0.00    +0.230 C 
ATOM     11  C   LIG    1       -0.002   1.107   0.015  0.00  0.00    +0.000 C 
ATOM     12  C   LIG    1       -0.692   1.574   1.288  0.00  0.00    +0.230 C 
ATOM     13  O   LIG    1       -1.997   1.008   1.395  0.00  0.00    -0.310 OA
ATOM     14  C   LIG    1       -2.991   1.672   0.735  0.00  0.00    +0.070 A 
ATOM     15 CL   LIG    1       -4.008   2.371  -3.078  0.00  0.00    -0.030 Cl
ATOM     16  C   LIG    1       -3.981   2.322   1.443  0.00  0.00    +0.110 A 
ENDBRANCH   2   5
BRANCH   3  17
ATOM     17  C   LIG    1       -8.093   4.925   1.542  0.00  0.00    +0.210 A 
ATOM     18  C   LIG    1       -9.368   4.941   0.991  0.00  0.00    -0.020 A 
ATOM     19  C   LIG    1      -10.414   5.508   1.692  0.00  0.00    +0.160 A 
ATOM     20  C   LIG    1      -10.191   6.070   2.936  0.00  0.00    -0.670 A 
ATOM     21  C   LIG    1       -8.922   6.061   3.484  0.00  0.00    +0.160 A 
ATOM     22  C   LIG    1       -7.873   5.489   2.791  0.00  0.00    +0.010 A 
BRANCH  20  23
ATOM     23  S   LIG    1      -11.527   6.800   3.823  0.00  0.00    +2.480 S 
ATOM     24  O   LIG    1      -11.140   6.697   5.186  0.00  0.00    -0.890 OA
ATOM     25  O   LIG    1      -12.680   6.127   3.336  0.00  0.00    -0.890 OA
BRANCH  23  26
ATOM     26  C   LIG    1      -11.530   8.534   3.292  0.00  0.00    -0.050 C 
ATOM     27  F   LIG    1      -11.726   8.598   1.908  0.00  0.00    -0.160 F 
ATOM     28  F   LIG    1      -10.304   9.123   3.617  0.00  0.00    -0.160 F 
ENDBRANCH  23  26
ENDBRANCH  20  23
ENDBRANCH   3  17
TORSDOF 4
