REMARK  Name = ZINCrD00000hQ4LE.0
REMARK                            x       y       z     vdW  Elec       q    Type
REMARK                         _______ _______ _______ _____ _____    ______ ____
ROOT
ATOM      1  N   LIG    1       -0.020   1.094   2.454  0.00  0.00    -0.390 N 
ATOM      2  C   LIG    1        0.990   1.725   3.111  0.00  0.00    +0.260 A 
ATOM      3  N   LIG    1        1.377   0.985   4.131  0.00  0.00    -0.500 NA
ATOM      4  C   LIG    1        0.654  -0.134   4.183  0.00  0.00    +0.330 A 
ATOM      5  N   LIG    1        0.647  -1.229   5.032  0.00  0.00    -0.510 N 
ATOM      6  C   LIG    1        1.588  -1.293   6.152  0.00  0.00    +0.340 C 
ATOM      7  C   LIG    1       -0.225  -2.235   4.827  0.00  0.00    +0.710 A 
ATOM      8  O   LIG    1       -0.217  -3.189   5.581  0.00  0.00    -0.530 OA
ATOM      9  N   LIG    1       -1.102  -2.211   3.809  0.00  0.00    -0.550 N 
ATOM     10  C   LIG    1       -2.030  -3.331   3.630  0.00  0.00    +0.350 C 
ATOM     11  C   LIG    1       -1.142  -1.171   2.950  0.00  0.00    +0.590 A 
ATOM     12  O   LIG    1       -1.943  -1.162   2.032  0.00  0.00    -0.510 OA
ATOM     13  C   LIG    1       -0.254  -0.097   3.130  0.00  0.00    -0.140 A 
ENDROOT
BRANCH   1  14
ATOM     14  C   LIG    1       -0.729   1.579   1.267  0.00  0.00    +0.310 C 
BRANCH  14  15
ATOM     15  C   LIG    1       -0.013   1.086   0.008  0.00  0.00    +0.010 C 
BRANCH  15  16
ATOM     16  C   LIG    1       -0.753   1.593  -1.232  0.00  0.00    +0.020 C 
BRANCH  16  17
ATOM     17  C   LIG    1       -0.037   1.099  -2.490  0.00  0.00    +0.000 C 
BRANCH  17  19
ATOM     18  C   LIG    1       -0.060   1.113  -4.989  0.00  0.00    +0.000 C 
ATOM     19  C   LIG    1       -0.777   1.606  -3.730  0.00  0.00    -0.010 C 
ENDBRANCH  17  19
ENDBRANCH  16  17
ENDBRANCH  15  16
ENDBRANCH  14  15
ENDBRANCH   1  14
BRANCH   2  20
ATOM     20  S   LIG    1        1.674   3.287   2.668  0.00  0.00    +0.020 S 
BRANCH  20  21
ATOM     21  C   LIG    1        2.928   3.459   3.961  0.00  0.00    +0.160 C 
BRANCH  21  22
ATOM     22  C   LIG    1        3.663   4.763   3.779  0.00  0.00    -0.090 A 
ATOM     23  C   LIG    1        4.802   4.810   2.997  0.00  0.00    +0.030 A 
ATOM     24  C   LIG    1        5.473   6.006   2.826  0.00  0.00    +0.010 A 
ATOM     25  C   LIG    1        5.011   7.153   3.444  0.00  0.00    +0.020 A 
ATOM     26  C   LIG    1        3.874   7.104   4.230  0.00  0.00    +0.010 A 
ATOM     27  C   LIG    1        3.200   5.909   4.397  0.00  0.00    +0.030 A 
ENDBRANCH  21  22
ENDBRANCH  20  21
ENDBRANCH   2  20
TORSDOF 8
