REMARK  Name = ZINCqH0000004Lqp.0
REMARK                            x       y       z     vdW  Elec       q    Type
REMARK                         _______ _______ _______ _____ _____    ______ ____
ROOT
ATOM      1  C   LIG    1        0.792   0.241  -0.998  0.00  0.00    +0.230 A 
ATOM      2  N   LIG    1        0.498   1.452  -0.598  0.00  0.00    -0.450 NA
ATOM      3  C   LIG    1        1.661   2.085  -0.354  0.00  0.00    +0.160 A 
ATOM      4  N   LIG    1        2.641   1.246  -0.610  0.00  0.00    -0.250 NA
ATOM      5  N   LIG    1        2.135   0.127  -1.000  0.00  0.00    -0.260 N 
ENDROOT
BRANCH   5   6
ATOM      6  C   LIG    1        2.860  -1.016  -1.365  0.00  0.00    +0.130 A 
ATOM      7  C   LIG    1        2.542  -2.248  -0.811  0.00  0.00    +0.040 A 
ATOM      8  C   LIG    1        3.254  -3.374  -1.177  0.00  0.00    +0.050 A 
ATOM      9  C   LIG    1        4.290  -3.273  -2.086  0.00  0.00    +0.050 A 
ATOM     10  C   LIG    1        4.614  -2.047  -2.637  0.00  0.00    +0.050 A 
ATOM     11  C   LIG    1        3.902  -0.918  -2.280  0.00  0.00    -0.020 A 
ATOM     12 CL   LIG    1        4.309   0.622  -2.971  0.00  0.00    -0.030 Cl
ENDBRANCH   5   6
BRANCH   3  13
ATOM     13  C   LIG    1        1.810   3.478   0.118  0.00  0.00    +0.620 C 
ATOM     14  N   LIG    1        3.031   3.960   0.420  0.00  0.00    -0.580 N 
ATOM     15  C   LIG    1        4.197   3.073   0.391  0.00  0.00    +0.310 C 
ATOM     16  O   LIG    1        0.830   4.189   0.234  0.00  0.00    -0.510 OA
BRANCH  14  17
ATOM     17  C   LIG    1        3.194   5.372   0.776  0.00  0.00    +0.310 C 
ATOM     18  C   LIG    1        3.774   5.478   2.188  0.00  0.00    +0.050 C 
BRANCH  17  19
ATOM     19  C   LIG    1        4.131   6.032  -0.203  0.00  0.00    +0.120 A 
ATOM     20  C   LIG    1        4.047   7.395  -0.416  0.00  0.00    -0.020 A 
ATOM     21  C   LIG    1        4.917   7.993  -1.315  0.00  0.00    +0.070 A 
ATOM     22  C   LIG    1        5.836   7.193  -1.976  0.00  0.00    -0.030 A 
ATOM     23  C   LIG    1        5.858   5.836  -1.715  0.00  0.00    +0.260 A 
ATOM     24  N   LIG    1        5.019   5.302  -0.850  0.00  0.00    -0.470 NA
ENDBRANCH  17  19
ENDBRANCH  14  17
ENDBRANCH   3  13
BRANCH   1  26
ATOM     25  C   LIG    1       -0.532  -0.700  -2.872  0.00  0.00    +0.040 C 
ATOM     26  C   LIG    1       -0.194  -0.831  -1.386  0.00  0.00    +0.150 C 
ENDBRANCH   1  26
TORSDOF 5
