REMARK  Name = ZINCrH00000No4E3.0
REMARK                            x       y       z     vdW  Elec       q    Type
REMARK                         _______ _______ _______ _____ _____    ______ ____
ROOT
ATOM      1  C   LIG    1        3.819   7.192   0.226  0.00  0.00    +0.250 C 
ATOM      2  C   LIG    1        3.767   5.827   0.044  0.00  0.00    -0.120 C 
ENDROOT
BRANCH   1   5
ATOM      3  C   LIG    1        6.420   9.867  -0.123  0.00  0.00    +0.110 A 
ATOM      4  C   LIG    1        5.199   9.226  -0.141  0.00  0.00    +0.010 A 
ATOM      5  C   LIG    1        5.112   7.879   0.242  0.00  0.00    -0.070 A 
ATOM      6  C   LIG    1        6.268   7.194   0.644  0.00  0.00    +0.060 A 
ATOM      7  C   LIG    1        7.483   7.843   0.653  0.00  0.00    -0.100 A 
ATOM      8  I   LIG    1        9.210   6.816   1.247  0.00  0.00    +0.000 I 
ATOM      9  C   LIG    1        7.566   9.177   0.274  0.00  0.00    +0.130 A 
BRANCH   3  11
ATOM     10  C   LIG    1        5.295  11.818  -0.888  0.00  0.00    +0.250 C 
ATOM     11  O   LIG    1        6.507  11.173  -0.493  0.00  0.00    -0.300 OA
ENDBRANCH   3  11
BRANCH   9  12
ATOM     12  O   LIG    1        8.766   9.811   0.290  0.00  0.00    -0.320 OA
ATOM     13  C   LIG    1        9.136  10.470   1.503  0.00  0.00    +0.230 C 
ENDBRANCH   9  12
ENDBRANCH   1   5
BRANCH   2  14
ATOM     14  C   LIG    1        2.490   5.113   0.198  0.00  0.00    +0.580 C 
ATOM     15  N   LIG    1        2.438   3.778   0.021  0.00  0.00    -0.670 N 
ATOM     16  H   LIG    1        3.254   3.278  -0.137  0.00  0.00    +0.430 HD
ATOM     17  O   LIG    1        1.480   5.728   0.486  0.00  0.00    -0.500 OA
BRANCH  15  18
ATOM     18  C   LIG    1        1.208   3.115   0.062  0.00  0.00    +0.220 A 
ATOM     19  C   LIG    1        0.066   3.735  -0.427  0.00  0.00    +0.030 A 
ATOM     20  C   LIG    1       -1.148   3.076  -0.384  0.00  0.00    +0.110 A 
ATOM     21  C   LIG    1       -1.225   1.799   0.141  0.00  0.00    +0.020 A 
ATOM     22  C   LIG    1       -0.090   1.181   0.634  0.00  0.00    +0.120 A 
ATOM     23  C   LIG    1        1.126   1.834   0.594  0.00  0.00    -0.080 A 
BRANCH  23  24
ATOM     24  N   LIG    1        2.341   1.169   1.116  0.00  0.00    +0.040 N 
ATOM     25  O   LIG    1        3.427   1.708   1.000  0.00  0.00    -0.190 OA
ATOM     26  O   LIG    1        2.255   0.083   1.661  0.00  0.00    -0.140 OA
ENDBRANCH  23  24
ENDBRANCH  15  18
ENDBRANCH   2  14
BRANCH   2  27
ATOM     27  C   LIG    1        4.955   5.103  -0.295  0.00  0.00    +0.230 C 
ATOM     28  N   LIG    1        5.897   4.529  -0.564  0.00  0.00    -0.370 NA
ENDBRANCH   2  27
TORSDOF 7
