REMARK  Name = ZINCqH0000051GLz.0
REMARK                            x       y       z     vdW  Elec       q    Type
REMARK                         _______ _______ _______ _____ _____    ______ ____
ROOT
ATOM      1  O   LIG    1       -3.856   1.230  -0.830  0.00  0.00    -0.930 OA
ATOM      2  S   LIG    1       -3.142   0.026  -0.587  0.00  0.00    +2.610 S 
ATOM      3  O   LIG    1       -2.698  -0.792  -1.661  0.00  0.00    -0.940 OA
ENDROOT
BRANCH   2   4
ATOM      4  N   LIG    1       -4.217  -0.928   0.236  0.00  0.00    -0.970 NA
BRANCH   4   5
ATOM      5  C   LIG    1       -5.169  -0.321   1.170  0.00  0.00    +0.210 C 
ATOM      6  C   LIG    1       -6.101  -1.260   1.938  0.00  0.00    +0.020 C 
ATOM      7  C   LIG    1       -6.654  -0.387   0.809  0.00  0.00    +0.030 C 
ENDBRANCH   4   5
BRANCH   4   8
ATOM      8  C   LIG    1       -4.218  -2.378   0.029  0.00  0.00    +0.360 C 
BRANCH   8   9
ATOM      9  C   LIG    1       -3.364  -3.036   1.083  0.00  0.00    -0.150 A 
ATOM     10  C   LIG    1       -3.954  -3.588   2.203  0.00  0.00    +0.100 A 
ATOM     11  C   LIG    1       -3.173  -4.192   3.171  0.00  0.00    -0.010 A 
ATOM     12  C   LIG    1       -1.798  -4.244   3.018  0.00  0.00    +0.140 A 
ATOM     13  C   LIG    1       -1.206  -3.691   1.895  0.00  0.00    -0.040 A 
ATOM     14  F   LIG    1       -1.034  -4.834   3.963  0.00  0.00    -0.130 F 
ATOM     15  C   LIG    1       -1.990  -3.091   0.925  0.00  0.00    +0.130 A 
ATOM     16  F   LIG    1       -1.413  -2.556  -0.174  0.00  0.00    -0.120 F 
ENDBRANCH   8   9
ENDBRANCH   4   8
ENDBRANCH   2   4
BRANCH   2  17
ATOM     17  C   LIG    1       -1.795   0.312   0.594  0.00  0.00    -0.350 C 
BRANCH  17  18
ATOM     18  C   LIG    1       -0.757   1.245  -0.032  0.00  0.00    +0.160 C 
ATOM     19  C   LIG    1        0.426   1.461   0.939  0.00  0.00    +0.020 C 
ATOM     20  C   LIG    1        0.808   2.947   0.739  0.00  0.00    +0.020 C 
ATOM     21  C   LIG    1       -0.198   3.445  -0.306  0.00  0.00    +0.100 C 
ATOM     22  C   LIG    1       -0.614   4.898  -0.021  0.00  0.00    +0.050 C 
ATOM     23  C   LIG    1       -1.104   5.390  -1.408  0.00  0.00    +0.010 C 
ATOM     24  C   LIG    1       -0.148   4.712  -2.413  0.00  0.00    +0.020 C 
ATOM     25  C   LIG    1        0.418   3.464  -1.708  0.00  0.00    +0.010 C 
ATOM     26  O   LIG    1       -1.321   2.561  -0.235  0.00  0.00    -0.350 OA
ENDBRANCH  17  18
ENDBRANCH   2  17
TORSDOF 6
