REMARK  Name = ZINCrH000004njov.0
REMARK                            x       y       z     vdW  Elec       q    Type
REMARK                         _______ _______ _______ _____ _____    ______ ____
ROOT
ATOM      1  C   LIG    1        2.814   2.085  -2.838  0.00  0.00    +0.030 C 
ATOM      2  C   LIG    1        2.887   0.830  -1.966  0.00  0.00    +0.020 C 
ATOM      3  C   LIG    1        2.365   1.157  -0.563  0.00  0.00    +0.280 C 
ATOM      4  N   LIG    1        1.019   1.733  -0.681  0.00  0.00    -0.610 N 
ATOM      5  C   LIG    1        0.819   2.885  -1.571  0.00  0.00    +0.270 C 
ATOM      6  C   LIG    1       -0.014   1.211   0.009  0.00  0.00    +0.560 C 
ATOM      7  O   LIG    1        0.138   0.192   0.653  0.00  0.00    -0.530 OA
ATOM      8  C   LIG    1        1.359   2.542  -2.958  0.00  0.00    +0.020 C 
ENDROOT
BRANCH   1  13
ATOM      9  C   LIG    1        4.950   2.186  -5.954  0.00  0.00    +0.130 A 
ATOM     10  C   LIG    1        4.352   1.202  -6.729  0.00  0.00    -0.080 A 
ATOM     11  C   LIG    1        3.260   0.510  -6.241  0.00  0.00    +0.040 A 
ATOM     12  C   LIG    1        2.768   0.792  -4.981  0.00  0.00    -0.030 A 
ATOM     13  C   LIG    1        3.358   1.776  -4.209  0.00  0.00    -0.040 A 
ATOM     14  C   LIG    1        4.450   2.471  -4.692  0.00  0.00    -0.020 A 
BRANCH   9  16
ATOM     15  C   LIG    1        6.485   2.521  -7.739  0.00  0.00    +0.250 C 
ATOM     16  O   LIG    1        6.024   2.868  -6.431  0.00  0.00    -0.320 OA
ENDBRANCH   9  16
ENDBRANCH   1  13
BRANCH   6  17
ATOM     17  C   LIG    1       -1.335   1.875  -0.023  0.00  0.00    -0.110 A 
ATOM     18  C   LIG    1       -1.416   3.267  -0.100  0.00  0.00    +0.040 A 
ATOM     19  C   LIG    1       -2.647   3.884  -0.136  0.00  0.00    +0.060 A 
ATOM     20  C   LIG    1       -3.812   3.120  -0.083  0.00  0.00    -0.000 A 
ATOM     21  C   LIG    1       -3.732   1.730  -0.000  0.00  0.00    +0.050 A 
ATOM     22  C   LIG    1       -2.502   1.111   0.030  0.00  0.00    +0.080 A 
BRANCH  20  23
ATOM     23  C   LIG    1       -5.137   3.786  -0.116  0.00  0.00    +0.210 A 
ATOM     24  N   LIG    1       -6.304   3.196  -0.073  0.00  0.00    -0.370 NA
ATOM     25  O   LIG    1       -7.190   4.023  -0.118  0.00  0.00    +0.090 OA
ATOM     26  C   LIG    1       -6.668   5.251  -0.195  0.00  0.00    +0.440 A 
ATOM     27  N   LIG    1       -5.365   5.117  -0.189  0.00  0.00    -0.480 NA
ENDBRANCH  20  23
ENDBRANCH   6  17
TORSDOF 4
