REMARK  Name = ZINCnE00000dSO3b.0
REMARK                            x       y       z     vdW  Elec       q    Type
REMARK                         _______ _______ _______ _____ _____    ______ ____
ROOT
ATOM      1  C   LIG    1        3.459   4.894  -0.212  0.00  0.00    +0.610 C 
ATOM      2  N   LIG    1        2.734   6.030  -0.213  0.00  0.00    -0.580 N 
ATOM      3  C   LIG    1        1.272   5.956  -0.222  0.00  0.00    +0.300 C 
ATOM      4  C   LIG    1        0.723   6.533   1.087  0.00  0.00    +0.100 C 
ATOM      5  S   LIG    1        1.308   8.244   1.264  0.00  0.00    -0.270 S 
ATOM      6  C   LIG    1        3.109   8.056   1.108  0.00  0.00    +0.100 C 
ATOM      7  C   LIG    1        3.417   7.325  -0.197  0.00  0.00    +0.260 C 
ATOM      8  O   LIG    1        4.668   4.944  -0.086  0.00  0.00    -0.470 OA
ENDROOT
BRANCH   1  11
ATOM      9  C   LIG    1        4.909   2.160  -0.518  0.00  0.00    +0.150 C 
ATOM     10  C   LIG    1        3.422   2.400  -0.500  0.00  0.00    -0.080 A 
ATOM     11  C   LIG    1        2.789   3.595  -0.365  0.00  0.00    -0.010 A 
ATOM     12  O   LIG    1        1.453   3.409  -0.395  0.00  0.00    -0.170 OA
ATOM     13  C   LIG    1        1.154   2.104  -0.547  0.00  0.00    +0.060 A 
ATOM     14  C   LIG    1       -0.046   1.405  -0.634  0.00  0.00    -0.030 A 
ATOM     15  C   LIG    1       -0.032   0.035  -0.792  0.00  0.00    +0.060 A 
ATOM     16  C   LIG    1        1.168  -0.658  -0.865  0.00  0.00    +0.010 A 
ATOM     17  C   LIG    1        2.358   0.007  -0.781  0.00  0.00    +0.090 A 
ATOM     18 CL   LIG    1       -1.557   2.257  -0.553  0.00  0.00    -0.060 Cl
ATOM     19  C   LIG    1        2.367   1.395  -0.622  0.00  0.00    -0.120 A 
ENDBRANCH   1  11
BRANCH   7  20
ATOM     20  C   LIG    1        4.927   7.106  -0.311  0.00  0.00    -0.040 C 
BRANCH  20  21
ATOM     21  C   LIG    1        5.247   6.503  -1.654  0.00  0.00    +0.520 C 
ATOM     22  O   LIG    1        6.403   6.249  -1.948  0.00  0.00    -0.700 OA
ATOM     23  O   LIG    1        4.351   6.270  -2.447  0.00  0.00    -0.710 OA
ENDBRANCH  20  21
ENDBRANCH   7  20
TORSDOF 3
