REMARK  Name = ZINCpe00000yyjMS.0
REMARK                            x       y       z     vdW  Elec       q    Type
REMARK                         _______ _______ _______ _____ _____    ______ ____
ROOT
ATOM      1  C   LIG    1       -5.729 -10.000  -1.472  0.00  0.00    +0.290 C 
ATOM      2  N   LIG    1       -5.117  -9.195  -0.411  0.00  0.00    -0.620 N 
ATOM      3  C   LIG    1       -5.135  -9.551   1.013  0.00  0.00    +0.250 C 
ATOM      4  C   LIG    1       -4.781  -8.249   1.768  0.00  0.00    +0.060 C 
ATOM      5  C   LIG    1       -3.986  -7.474   0.698  0.00  0.00    -0.090 C 
ATOM      6  C   LIG    1       -2.492  -7.727   0.873  0.00  0.00    +0.050 C 
ATOM      7  C   LIG    1       -1.720  -6.991  -0.227  0.00  0.00    +0.310 C 
ATOM      8  N   LIG    1       -2.114  -5.575  -0.213  0.00  0.00    -0.610 N 
ATOM      9  C   LIG    1       -3.540  -5.235  -0.302  0.00  0.00    +0.270 C 
ATOM     10  C   LIG    1       -1.183  -4.606  -0.115  0.00  0.00    +0.710 C 
ATOM     11  N   LIG    1       -1.561  -3.317   0.002  0.00  0.00    -0.680 N 
ATOM     12  H   LIG    1       -2.501  -3.094   0.092  0.00  0.00    +0.410 HD
ATOM     13  O   LIG    1       -0.001  -4.893  -0.133  0.00  0.00    -0.570 OA
ATOM     14  C   LIG    1       -4.298  -5.985   0.793  0.00  0.00    +0.050 C 
ATOM     15  C   LIG    1       -4.468  -8.035  -0.617  0.00  0.00    +0.530 C 
ATOM     16  O   LIG    1       -4.296  -7.516  -1.699  0.00  0.00    -0.520 OA
ENDROOT
BRANCH  11  17
ATOM     17  C   LIG    1       -0.602  -2.305  -0.007  0.00  0.00    +0.150 A 
ATOM     18  C   LIG    1       -0.792  -1.144   0.740  0.00  0.00    +0.250 A 
ATOM     19  N   LIG    1        0.104  -0.184   0.740  0.00  0.00    -0.400 NA
ATOM     20  C   LIG    1        1.227  -0.274   0.032  0.00  0.00    +0.040 A 
ATOM     21  C   LIG    1        2.368   0.651  -0.130  0.00  0.00    +0.570 C 
ATOM     22  N   LIG    1        3.285   0.121  -0.957  0.00  0.00    -0.720 N 
ATOM     23  H   LIG    1        4.121   0.539  -1.217  0.00  0.00    +0.430 HD
ATOM     24  C   LIG    1        2.814  -1.196  -1.401  0.00  0.00    +0.340 C 
ATOM     25  O   LIG    1        2.464   1.737   0.408  0.00  0.00    -0.500 OA
ATOM     26  C   LIG    1        1.479  -1.411  -0.737  0.00  0.00    -0.110 A 
ATOM     27  C   LIG    1        0.563  -2.440  -0.763  0.00  0.00    +0.100 A 
ENDBRANCH  11  17
TORSDOF 1
