REMARK  Name = ZINCrg000000thM9.0
REMARK                            x       y       z     vdW  Elec       q    Type
REMARK                         _______ _______ _______ _____ _____    ______ ____
ROOT
ATOM      1  O   LIG    1       -3.494   4.924   4.192  0.00  0.00    -0.520 OA
ATOM      2  C   LIG    1       -4.558   5.450   4.442  0.00  0.00    +0.500 C 
ATOM      3  N   LIG    1       -4.804   6.706   4.018  0.00  0.00    -0.710 N 
ATOM      4  H   LIG    1       -5.655   7.127   4.217  0.00  0.00    +0.410 HD
ENDROOT
BRANCH   3   5
ATOM      5  C   LIG    1       -3.787   7.434   3.255  0.00  0.00    +0.290 C 
BRANCH   5   6
ATOM      6  C   LIG    1       -4.264   8.867   3.008  0.00  0.00    +0.100 C 
ATOM      7  C   LIG    1       -3.266   9.588   2.100  0.00  0.00    +0.000 C 
ATOM      8  C   LIG    1       -1.893   9.617   2.775  0.00  0.00    +0.020 C 
ATOM      9  C   LIG    1       -1.996  10.358   4.109  0.00  0.00    +0.010 C 
ATOM     10  C   LIG    1       -2.994   9.637   5.017  0.00  0.00    +0.020 C 
ATOM     11  C   LIG    1       -4.367   9.608   4.343  0.00  0.00    +0.030 C 
BRANCH   6  12
ATOM     12  N   LIG    1       -5.583   8.839   2.360  0.00  0.00    -0.530 NA
ATOM     13  C   LIG    1       -5.534   8.087   1.098  0.00  0.00    +0.150 C 
ATOM     14  C   LIG    1       -6.937   8.032   0.488  0.00  0.00    +0.220 C 
ATOM     15  O   LIG    1       -7.425   9.364   0.306  0.00  0.00    -0.380 OA
ATOM     16  C   LIG    1       -7.486  10.125   1.516  0.00  0.00    +0.220 C 
ATOM     17  C   LIG    1       -6.089  10.201   2.136  0.00  0.00    +0.150 C 
ENDBRANCH   6  12
ENDBRANCH   5   6
ENDBRANCH   3   5
BRANCH   2  18
ATOM     18  C   LIG    1       -5.604   4.701   5.226  0.00  0.00    +0.410 C 
BRANCH  18  19
ATOM     19  N   LIG    1       -5.097   3.369   5.567  0.00  0.00    -0.120 N 
ATOM     20  N   LIG    1       -4.443   3.073   6.635  0.00  0.00    -0.040 NA
ATOM     21  N   LIG    1       -4.152   1.816   6.614  0.00  0.00    -0.250 NA
ATOM     22  C   LIG    1       -4.652   1.311   5.476  0.00  0.00    +0.250 A 
ATOM     23  N   LIG    1       -5.233   2.312   4.842  0.00  0.00    -0.280 NA
BRANCH  22  24
ATOM     24  C   LIG    1       -4.564  -0.093   5.018  0.00  0.00    +0.050 A 
ATOM     25  C   LIG    1       -3.956  -1.111   5.682  0.00  0.00    +0.020 A 
ATOM     26  C   LIG    1       -4.118  -2.266   4.890  0.00  0.00    -0.060 A 
ATOM     27  C   LIG    1       -4.809  -1.898   3.793  0.00  0.00    +0.200 A 
ATOM     28  O   LIG    1       -5.077  -0.585   3.874  0.00  0.00    -0.160 OA
ENDBRANCH  22  24
ENDBRANCH  18  19
ENDBRANCH   2  18
TORSDOF 6
