REMARK  Name = ZINCpk00000eb5Nz.0
REMARK                            x       y       z     vdW  Elec       q    Type
REMARK                         _______ _______ _______ _____ _____    ______ ____
ROOT
ATOM      1  C   LIG    1        4.219   7.270   3.568  0.00  0.00    +0.140 C 
ATOM      2  C   LIG    1        3.004   7.165   2.647  0.00  0.00    +0.260 C 
ATOM      3  N   LIG    1        2.555   5.764   2.619  0.00  0.00    -0.620 N 
ATOM      4  C   LIG    1        2.353   5.077   3.904  0.00  0.00    +0.250 C 
ATOM      5  C   LIG    1        3.605   5.281   4.764  0.00  0.00    +0.210 C 
ATOM      6  C   LIG    1        2.341   5.128   1.450  0.00  0.00    +0.520 C 
ATOM      7  O   LIG    1        2.514   5.712   0.401  0.00  0.00    -0.530 OA
ATOM      8  O   LIG    1        3.907   6.677   4.831  0.00  0.00    -0.350 OA
ENDROOT
BRANCH   1   9
ATOM      9  C   LIG    1        4.585   8.742   3.771  0.00  0.00    +0.350 C 
BRANCH   9  13
ATOM     10  C   LIG    1        9.238   9.909   5.223  0.00  0.00    +0.110 C 
ATOM     11  C   LIG    1        7.842   9.340   5.197  0.00  0.00    -0.240 A 
ATOM     12  C   LIG    1        6.939   9.494   4.201  0.00  0.00    +0.220 A 
ATOM     13  N   LIG    1        5.817   8.835   4.558  0.00  0.00    -0.370 N 
ATOM     14  N   LIG    1        6.036   8.261   5.817  0.00  0.00    -0.260 NA
ATOM     15  C   LIG    1        7.252   8.559   6.196  0.00  0.00    +0.220 A 
ENDBRANCH   9  13
ENDBRANCH   1   9
BRANCH   6  16
ATOM     16  C   LIG    1        1.888   3.691   1.446  0.00  0.00    +0.050 C 
BRANCH  16  17
ATOM     17  C   LIG    1        1.720   3.212   0.003  0.00  0.00    +0.130 C 
BRANCH  17  18
ATOM     18  C   LIG    1        1.267   1.775  -0.001  0.00  0.00    -0.240 A 
ATOM     19  C   LIG    1       -0.016   1.345   0.009  0.00  0.00    +0.090 A 
ATOM     20  N   LIG    1        0.002  -0.004   0.002  0.00  0.00    -0.370 N 
ATOM     21  N   LIG    1        1.341  -0.417  -0.013  0.00  0.00    -0.300 NA
ATOM     22  C   LIG    1       -1.171  -0.882   0.008  0.00  0.00    +0.350 C 
ATOM     23  C   LIG    1       -1.245   2.217   0.020  0.00  0.00    +0.140 C 
ATOM     24  C   LIG    1        2.098   0.650  -0.015  0.00  0.00    +0.080 A 
ATOM     25  C   LIG    1        3.604   0.664  -0.029  0.00  0.00    +0.160 C 
ENDBRANCH  17  18
ENDBRANCH  16  17
ENDBRANCH   6  16
TORSDOF 5
