REMARK  Name = ZINCnE00000hdcJ8.0
REMARK                            x       y       z     vdW  Elec       q    Type
REMARK                         _______ _______ _______ _____ _____    ______ ____
ROOT
ATOM      1  C   LIG    1       -2.015   5.691   0.001  0.00  0.00    -0.050 C 
ENDROOT
BRANCH   1   2
ATOM      2  C   LIG    1       -1.152   5.886   1.222  0.00  0.00    -0.050 A 
ATOM      3  C   LIG    1       -1.691   5.715   2.483  0.00  0.00    +0.030 A 
ATOM      4  C   LIG    1       -0.899   5.890   3.603  0.00  0.00    +0.000 A 
ATOM      5  C   LIG    1        0.430   6.243   3.460  0.00  0.00    +0.000 A 
ATOM      6  C   LIG    1        0.968   6.418   2.199  0.00  0.00    +0.000 A 
ATOM      7  C   LIG    1        0.176   6.240   1.080  0.00  0.00    +0.010 A 
ENDBRANCH   1   2
BRANCH   1   8
ATOM      8  C   LIG    1       -3.128   6.706   0.006  0.00  0.00    +0.530 C 
ATOM      9  N   LIG    1       -2.918   7.939  -0.498  0.00  0.00    -0.700 N 
ATOM     10  H   LIG    1       -2.051   8.172  -0.863  0.00  0.00    +0.400 HD
ATOM     11  O   LIG    1       -4.213   6.415   0.463  0.00  0.00    -0.500 OA
BRANCH   9  12
ATOM     12  C   LIG    1       -4.001   8.926  -0.493  0.00  0.00    +0.230 C 
ATOM     13  C   LIG    1       -4.205   9.757  -1.762  0.00  0.00    +0.010 C 
ATOM     14  C   LIG    1       -3.609  10.405  -0.509  0.00  0.00    +0.010 C 
ENDBRANCH   9  12
ENDBRANCH   1   8
BRANCH   1  15
ATOM     15  S   LIG    1       -2.719   4.024   0.020  0.00  0.00    +0.110 S 
BRANCH  15  21
ATOM     16  C   LIG    1       -4.203   2.870  -1.991  0.00  0.00    -0.120 A 
ATOM     17  C   LIG    1       -4.747   2.838  -3.279  0.00  0.00    +0.060 A 
ATOM     18  C   LIG    1       -4.521   3.884  -4.146  0.00  0.00    -0.030 A 
ATOM     19  C   LIG    1       -3.751   4.968  -3.752  0.00  0.00    +0.000 A 
ATOM     20  C   LIG    1       -3.202   5.013  -2.488  0.00  0.00    -0.040 A 
ATOM     21  C   LIG    1       -3.418   3.969  -1.596  0.00  0.00    -0.080 A 
BRANCH  16  23
ATOM     22  O   LIG    1       -5.124   0.804  -1.407  0.00  0.00    -0.680 OA
ATOM     23  C   LIG    1       -4.445   1.760  -1.058  0.00  0.00    +0.520 C 
ATOM     24  O   LIG    1       -3.967   1.793   0.069  0.00  0.00    -0.650 OA
ENDBRANCH  16  23
ENDBRANCH  15  21
ENDBRANCH   1  15
TORSDOF 6
