REMARK  Name = ZINC550000002rAp.0
REMARK                            x       y       z     vdW  Elec       q    Type
REMARK                         _______ _______ _______ _____ _____    ______ ____
ROOT
ATOM      1  C   LIG    1        0.718  -0.497  -1.257  0.00  0.00    +0.020 C 
ATOM      2  C   LIG    1        0.002  -0.004   0.002  0.00  0.00    +0.310 C 
ENDROOT
BRANCH   2   3
ATOM      3  N   LIG    1       -0.018   1.465   0.010  0.00  0.00    -0.840 NA
ATOM      4  H   LIG    1       -0.556   1.823  -0.764  0.00  0.00    +0.360 HD
ATOM      5  H   LIG    1        0.919   1.839   0.003  0.00  0.00    +0.350 HD
ENDBRANCH   2   3
BRANCH   2   6
ATOM      6  C   LIG    1        0.714  -0.492   1.195  0.00  0.00    +0.210 C 
ATOM      7  N   LIG    1        1.263  -0.868   2.115  0.00  0.00    -0.420 NA
ENDBRANCH   2   6
TORSDOF 2
