REMARK  Name = ZINCrD00000hQ67k.0
REMARK                            x       y       z     vdW  Elec       q    Type
REMARK                         _______ _______ _______ _____ _____    ______ ____
ROOT
ATOM      1  C   LIG    1        1.417   2.055  -0.000  0.00  0.00    +0.250 C 
ENDROOT
BRANCH   1   3
ATOM      2  C   LIG    1        3.432   1.561   1.277  0.00  0.00    +0.560 C 
ATOM      3  N   LIG    1        2.089   1.670   1.243  0.00  0.00    -0.730 N 
ATOM      4  H   LIG    1        1.567   1.493   2.042  0.00  0.00    +0.390 HD
ATOM      5  O   LIG    1        4.085   1.783   0.276  0.00  0.00    -0.510 OA
BRANCH   2  12
ATOM      6  C   LIG    1        5.505   1.059   2.570  0.00  0.00    +0.190 A 
ATOM      7  C   LIG    1        6.131   0.694   3.752  0.00  0.00    -0.090 A 
ATOM      8  C   LIG    1        5.380   0.445   4.884  0.00  0.00    -0.020 A 
ATOM      9  C   LIG    1        4.000   0.556   4.849  0.00  0.00    -0.040 A 
ATOM     10  C   LIG    1        3.362   0.923   3.683  0.00  0.00    +0.090 A 
ATOM     11  C   LIG    1        6.066   0.048   6.166  0.00  0.00    +0.100 C 
ATOM     12  C   LIG    1        4.109   1.173   2.530  0.00  0.00    -0.180 A 
BRANCH   6  14
ATOM     13  C   LIG    1        7.659   1.167   1.574  0.00  0.00    +0.240 C 
ATOM     14  O   LIG    1        6.241   1.304   1.457  0.00  0.00    -0.280 OA
ENDBRANCH   6  14
ENDBRANCH   2  12
ENDBRANCH   1   3
BRANCH   1  15
ATOM     15  C   LIG    1        1.397   3.581  -0.118  0.00  0.00    -0.030 C 
ATOM     16  C   LIG    1        0.695   3.983  -1.416  0.00  0.00    +0.030 C 
ATOM     17  C   LIG    1        2.832   4.110  -0.129  0.00  0.00    +0.010 C 
ENDBRANCH   1  15
BRANCH   1  18
ATOM     18  C   LIG    1       -0.019   1.526   0.010  0.00  0.00    +0.020 C 
BRANCH  18  19
ATOM     19  C   LIG    1        0.002  -0.004   0.002  0.00  0.00    +0.300 C 
BRANCH  19  20
ATOM     20  N   LIG    1       -1.372  -0.511   0.012  0.00  0.00    -0.590 N 
ATOM     21  C   LIG    1       -2.047  -0.771   1.286  0.00  0.00    +0.300 C 
BRANCH  20  22
ATOM     22  C   LIG    1       -2.033  -0.744  -1.181  0.00  0.00    +0.570 A 
ATOM     23  N   LIG    1       -1.408  -0.503  -2.324  0.00  0.00    -0.570 NA
ATOM     24  C   LIG    1       -2.011  -0.716  -3.482  0.00  0.00    +0.360 A 
ATOM     25  C   LIG    1       -3.311  -1.195  -3.490  0.00  0.00    -0.150 A 
ATOM     26  C   LIG    1       -3.935  -1.436  -2.276  0.00  0.00    +0.220 A 
ATOM     27  C   LIG    1       -5.348  -1.958  -2.236  0.00  0.00    +0.130 C 
ATOM     28  N   LIG    1       -3.274  -1.208  -1.154  0.00  0.00    -0.570 NA
ENDBRANCH  20  22
ENDBRANCH  19  20
ENDBRANCH  18  19
ENDBRANCH   1  18
TORSDOF 8
