REMARK  Name = ZINCpk000000p5g3.0
REMARK                            x       y       z     vdW  Elec       q    Type
REMARK                         _______ _______ _______ _____ _____    ______ ____
ROOT
ATOM      1  C   LIG    1        0.742  -0.511   1.242  0.00  0.00    +0.270 C 
ENDROOT
BRANCH   1   2
ATOM      2  N   LIG    1        2.116  -0.004   1.231  0.00  0.00    -0.710 N 
ATOM      3  H   LIG    1        2.329   0.812   0.752  0.00  0.00    +0.400 HD
ATOM      4  C   LIG    1        3.086  -0.671   1.888  0.00  0.00    +0.570 C 
ATOM      5  O   LIG    1        2.820  -1.694   2.489  0.00  0.00    -0.520 OA
BRANCH   4   6
ATOM      6  C   LIG    1        4.473  -0.159   1.877  0.00  0.00    -0.090 A 
ATOM      7  C   LIG    1        4.782   1.011   1.183  0.00  0.00    +0.000 A 
ATOM      8  C   LIG    1        6.077   1.490   1.181  0.00  0.00    +0.060 A 
ATOM      9  C   LIG    1        7.072   0.806   1.854  0.00  0.00    -0.040 A 
ATOM     10  C   LIG    1        6.775  -0.363   2.542  0.00  0.00    +0.120 A 
ATOM     11  C   LIG    1        5.479  -0.848   2.556  0.00  0.00    +0.060 A 
BRANCH  10  12
ATOM     12  O   LIG    1        7.758  -1.031   3.202  0.00  0.00    -0.310 OA
ATOM     13  C   LIG    1        9.072  -0.474   3.145  0.00  0.00    +0.250 C 
ENDBRANCH  10  12
ENDBRANCH   4   6
ENDBRANCH   1   2
BRANCH   1  14
ATOM     14  C   LIG    1        0.037  -0.025   2.481  0.00  0.00    +0.460 C 
ATOM     15  O   LIG    1        0.622   0.673   3.275  0.00  0.00    -0.490 OA
BRANCH  14  16
ATOM     16  O   LIG    1       -1.242  -0.368   2.704  0.00  0.00    -0.350 OA
BRANCH  16  18
ATOM     17  C   LIG    1       -3.304  -0.355   3.999  0.00  0.00    +0.070 C 
ATOM     18  C   LIG    1       -1.857   0.136   3.919  0.00  0.00    +0.200 C 
ENDBRANCH  16  18
ENDBRANCH  14  16
ENDBRANCH   1  14
BRANCH   1  19
ATOM     19  C   LIG    1        0.002  -0.004   0.002  0.00  0.00    +0.290 C 
BRANCH  19  20
ATOM     20  C   LIG    1        0.707  -0.490  -1.238  0.00  0.00    -0.080 A 
ATOM     21  C   LIG    1        1.841   0.155  -1.709  0.00  0.00    -0.030 A 
ATOM     22  C   LIG    1        2.464  -0.322  -2.846  0.00  0.00    +0.270 A 
ATOM     23  N   LIG    1        1.986  -1.371  -3.487  0.00  0.00    -0.480 NA
ATOM     24  C   LIG    1        0.908  -2.006  -3.071  0.00  0.00    +0.270 A 
ATOM     25  C   LIG    1        0.235  -1.590  -1.938  0.00  0.00    -0.020 A 
ENDBRANCH  19  20
BRANCH  19  26
ATOM     26  O   LIG    1       -0.017   1.425   0.010  0.00  0.00    -0.540 OA
ATOM     27  H   LIG    1        0.861   1.830   0.004  0.00  0.00    +0.370 HD
ENDBRANCH  19  26
ENDBRANCH   1  19
TORSDOF 9
