REMARK  Name = ZINCpk00000kiaEx.0
REMARK                            x       y       z     vdW  Elec       q    Type
REMARK                         _______ _______ _______ _____ _____    ______ ____
ROOT
ATOM      1  N   LIG    1       -0.701   1.560   1.216  0.00  0.00    -0.480 N 
ATOM      2  C   LIG    1       -0.076   1.016   0.003  0.00  0.00    +0.180 C 
ATOM      3  C   LIG    1       -0.824   1.533  -1.230  0.00  0.00    +0.300 C 
ATOM      4  N   LIG    1       -0.877   3.001  -1.163  0.00  0.00    -0.610 N 
ATOM      5  C   LIG    1       -1.366   3.624   0.076  0.00  0.00    +0.290 C 
ATOM      6  C   LIG    1       -0.489   3.756  -2.210  0.00  0.00    +0.510 C 
ATOM      7  O   LIG    1       -0.089   3.225  -3.225  0.00  0.00    -0.520 OA
ATOM      8  C   LIG    1       -0.596   3.025   1.258  0.00  0.00    +0.180 C 
ENDROOT
BRANCH   6   9
ATOM      9  C   LIG    1       -0.551   5.259  -2.120  0.00  0.00    +0.230 C 
ATOM     10  C   LIG    1        0.665   5.770  -1.346  0.00  0.00    +0.040 C 
ATOM     11  C   LIG    1        0.708   7.299  -1.454  0.00  0.00    +0.050 C 
ATOM     12  C   LIG    1        1.009   7.673  -2.908  0.00  0.00    +0.070 C 
ATOM     13  C   LIG    1        0.100   6.912  -3.830  0.00  0.00    +0.520 C 
ATOM     14  O   LIG    1       -0.028   7.312  -4.968  0.00  0.00    -0.550 OA
ATOM     15  N   LIG    1       -0.574   5.822  -3.464  0.00  0.00    -0.590 N 
ATOM     16  C   LIG    1       -1.389   5.146  -4.477  0.00  0.00    +0.280 C 
ENDBRANCH   6   9
BRANCH   1  23
ATOM     17  C   LIG    1       -0.945   0.211   3.211  0.00  0.00    +0.180 A 
ATOM     18  C   LIG    1       -0.394  -0.361   4.346  0.00  0.00    -0.080 A 
ATOM     19  C   LIG    1        0.941  -0.157   4.646  0.00  0.00    +0.090 A 
ATOM     20  C   LIG    1        1.731   0.612   3.813  0.00  0.00    -0.050 A 
ATOM     21  C   LIG    1        1.190   1.183   2.674  0.00  0.00    +0.110 A 
ATOM     22  F   LIG    1        1.964   1.935   1.861  0.00  0.00    -0.130 F 
ATOM     23  C   LIG    1       -0.150   0.983   2.368  0.00  0.00    +0.010 A 
BRANCH  17  25
ATOM     24  C   LIG    1       -3.014  -0.786   3.829  0.00  0.00    +0.240 C 
ATOM     25  O   LIG    1       -2.259   0.016   2.919  0.00  0.00    -0.290 OA
ENDBRANCH  17  25
ENDBRANCH   1  23
TORSDOF 3
