REMARK  Name = ZINCqH000000586I.0
REMARK                            x       y       z     vdW  Elec       q    Type
REMARK                         _______ _______ _______ _____ _____    ______ ____
ROOT
ATOM      1  C   LIG    1       -3.437  -1.706   1.710  0.00  0.00    +0.460 A 
ATOM      2  N   LIG    1       -4.569  -1.208   2.197  0.00  0.00    -0.570 NA
ATOM      3  C   LIG    1       -5.739  -1.711   1.831  0.00  0.00    +0.410 A 
ATOM      4  N   LIG    1       -5.826  -2.720   0.975  0.00  0.00    -0.550 NA
ATOM      5  C   LIG    1       -4.738  -3.265   0.451  0.00  0.00    +0.200 A 
ATOM      6  C   LIG    1       -4.570  -4.404  -0.530  0.00  0.00    +0.120 C 
ATOM      7  C   LIG    1       -3.130  -4.255  -1.077  0.00  0.00    +0.040 C 
ATOM      8  C   LIG    1       -2.413  -3.529   0.082  0.00  0.00    +0.090 C 
ATOM      9  C   LIG    1       -3.500  -2.766   0.802  0.00  0.00    -0.270 A 
ENDROOT
BRANCH   3  10
ATOM     10  C   LIG    1       -6.983  -1.132   2.393  0.00  0.00    -0.090 A 
ATOM     11  C   LIG    1       -6.925  -0.068   3.298  0.00  0.00    +0.120 A 
ATOM     12  C   LIG    1       -8.114   0.438   3.794  0.00  0.00    -0.040 A 
ATOM     13  C   LIG    1       -9.310  -0.121   3.383  0.00  0.00    +0.270 A 
ATOM     14  N   LIG    1       -9.334  -1.125   2.528  0.00  0.00    -0.490 NA
ATOM     15  C   LIG    1       -8.229  -1.635   2.024  0.00  0.00    +0.320 A 
ENDBRANCH   3  10
BRANCH   1  16
ATOM     16  N   LIG    1       -2.215  -1.178   2.092  0.00  0.00    -0.690 N 
ATOM     17  H   LIG    1       -1.393  -1.548   1.732  0.00  0.00    +0.410 HD
BRANCH  16  18
ATOM     18  C   LIG    1       -2.162  -0.063   3.041  0.00  0.00    +0.330 C 
BRANCH  18  24
ATOM     19  C   LIG    1       -0.050   1.114   2.370  0.00  0.00    +0.100 A 
ATOM     20  C   LIG    1        1.272   1.469   2.604  0.00  0.00    -0.030 A 
ATOM     21  C   LIG    1        1.912   1.027   3.745  0.00  0.00    +0.020 A 
ATOM     22  C   LIG    1        1.238   0.232   4.654  0.00  0.00    +0.010 A 
ATOM     23  C   LIG    1       -0.078  -0.123   4.424  0.00  0.00    +0.040 A 
ATOM     24  C   LIG    1       -0.726   0.320   3.288  0.00  0.00    -0.090 A 
BRANCH  19  26
ATOM     25  C   LIG    1       -0.013   1.086   0.008  0.00  0.00    +0.200 C 
ATOM     26  N   LIG    1       -0.700   1.560   1.217  0.00  0.00    -0.510 N 
ATOM     27  C   LIG    1       -0.822   3.023   1.213  0.00  0.00    +0.200 C 
ENDBRANCH  19  26
ENDBRANCH  18  24
ENDBRANCH  16  18
ENDBRANCH   1  16
TORSDOF 5
