REMARK  Name = ZINCvU0000000AKC.0
REMARK                            x       y       z     vdW  Elec       q    Type
REMARK                         _______ _______ _______ _____ _____    ______ ____
ROOT
ATOM      1  C   LIG    1        2.469   0.115  -0.129  0.00  0.00    +0.250 C 
ENDROOT
BRANCH   1   3
ATOM      2  N   LIG    1       -0.002   0.002  -0.087  0.00  0.00    -0.480 N 
ATOM      3  C   LIG    1        1.174  -0.656  -0.121  0.00  0.00    +0.520 C 
ATOM      4  O   LIG    1        1.190  -1.868  -0.144  0.00  0.00    -0.430 OA
BRANCH   2   9
ATOM      5  C   LIG    1       -2.745  -3.970   0.505  0.00  0.00    +0.160 C 
ATOM      6  C   LIG    1       -2.493  -2.499   0.296  0.00  0.00    +0.100 A 
ATOM      7  C   LIG    1       -3.480  -1.607   0.185  0.00  0.00    -0.100 A 
ATOM      8  S   LIG    1       -2.756  -0.018  -0.046  0.00  0.00    +0.140 S 
ATOM      9  C   LIG    1       -1.193  -0.708   0.028  0.00  0.00    +0.270 A 
ATOM     10  N   LIG    1       -1.280  -1.990   0.203  0.00  0.00    -0.470 NA
ENDBRANCH   2   9
BRANCH   2  11
ATOM     11  C   LIG    1       -0.025   1.400  -0.168  0.00  0.00    +0.090 A 
ATOM     12  C   LIG    1        0.037   2.165   0.989  0.00  0.00    +0.030 A 
ATOM     13  C   LIG    1        0.018   3.544   0.905  0.00  0.00    +0.030 A 
ATOM     14  C   LIG    1       -0.072   4.162  -0.329  0.00  0.00    +0.030 A 
ATOM     15  C   LIG    1       -0.139   3.402  -1.483  0.00  0.00    +0.030 A 
ATOM     16  C   LIG    1       -0.116   2.023  -1.406  0.00  0.00    +0.030 A 
ENDBRANCH   2  11
ENDBRANCH   1   3
BRANCH   1  17
ATOM     17  O   LIG    1        3.567  -0.798  -0.152  0.00  0.00    -0.290 OA
BRANCH  17  18
ATOM     18  C   LIG    1        4.816  -0.261  -0.162  0.00  0.00    +0.090 A 
ATOM     19  C   LIG    1        4.979   1.116  -0.156  0.00  0.00    -0.040 A 
ATOM     20  C   LIG    1        6.249   1.661  -0.162  0.00  0.00    -0.040 A 
ATOM     21  C   LIG    1        7.360   0.831  -0.183  0.00  0.00    +0.100 A 
ATOM     22  C   LIG    1        7.197  -0.546  -0.195  0.00  0.00    +0.030 A 
ATOM     23  C   LIG    1        5.928  -1.091  -0.184  0.00  0.00    +0.040 A 
BRANCH  21  24
ATOM     24  O   LIG    1        8.609   1.368  -0.194  0.00  0.00    -0.310 OA
BRANCH  24  25
ATOM     25  C   LIG    1        8.703   2.794  -0.181  0.00  0.00    +0.240 C 
BRANCH  25  26
ATOM     26  C   LIG    1       10.153   3.203  -0.195  0.00  0.00    -0.100 A 
ATOM     27  C   LIG    1       10.832   3.384   0.996  0.00  0.00    +0.020 A 
ATOM     28  C   LIG    1       12.164   3.754   0.983  0.00  0.00    +0.010 A 
ATOM     29  C   LIG    1       12.814   3.952  -0.221  0.00  0.00    +0.020 A 
ATOM     30  C   LIG    1       12.134   3.777  -1.411  0.00  0.00    +0.010 A 
ATOM     31  C   LIG    1       10.804   3.402  -1.398  0.00  0.00    +0.020 A 
ENDBRANCH  25  26
ENDBRANCH  24  25
ENDBRANCH  21  24
ENDBRANCH  17  18
ENDBRANCH   1  17
TORSDOF 8
