REMARK  Name = ZINCqH0000003reU.0
REMARK                            x       y       z     vdW  Elec       q    Type
REMARK                         _______ _______ _______ _____ _____    ______ ____
ROOT
ATOM      1  C   LIG    1        0.817   1.490   1.038  0.00  0.00    +0.030 A 
ATOM      2  C   LIG    1        0.307   2.676   1.462  0.00  0.00    +0.090 A 
ATOM      3  C   LIG    1       -0.927   2.876   0.796  0.00  0.00    -0.130 A 
ATOM      4  C   LIG    1       -1.880   3.898   0.830  0.00  0.00    +0.150 A 
ATOM      5  C   LIG    1       -3.017   3.798   0.037  0.00  0.00    -0.170 A 
ATOM      6  C   LIG    1       -3.204   2.681  -0.790  0.00  0.00    +0.080 A 
ATOM      7  C   LIG    1       -2.278   1.682  -0.827  0.00  0.00    +0.000 A 
ATOM      8  C   LIG    1       -1.126   1.761  -0.045  0.00  0.00    +0.140 A 
ATOM      9  N   LIG    1       -0.052   0.924   0.123  0.00  0.00    -0.560 N 
ATOM     10  H   LIG    1        0.079   0.076  -0.329  0.00  0.00    +0.430 HD
ENDROOT
BRANCH   5  11
ATOM     11  C   LIG    1       -4.031   4.872   0.065  0.00  0.00    +0.570 C 
ATOM     12  N   LIG    1       -5.340   4.565  -0.027  0.00  0.00    -0.610 N 
ATOM     13  C   LIG    1       -5.782   3.164  -0.032  0.00  0.00    +0.280 C 
ATOM     14  C   LIG    1       -6.835   2.975   1.065  0.00  0.00    +0.030 C 
ATOM     15  C   LIG    1       -7.962   3.991   0.864  0.00  0.00    +0.040 C 
ATOM     16  C   LIG    1       -7.399   5.409   0.975  0.00  0.00    -0.030 C 
ATOM     17  C   LIG    1       -6.353   5.626  -0.117  0.00  0.00    +0.310 C 
ATOM     18  O   LIG    1       -3.684   6.032   0.170  0.00  0.00    -0.530 OA
BRANCH  16  19
ATOM     19  C   LIG    1       -8.532   6.423   0.807  0.00  0.00    +0.460 C 
ATOM     20  F   LIG    1       -9.127   6.254  -0.448  0.00  0.00    -0.180 F 
ATOM     21  F   LIG    1       -8.016   7.720   0.907  0.00  0.00    -0.180 F 
ATOM     22  F   LIG    1       -9.489   6.223   1.807  0.00  0.00    -0.180 F 
ENDBRANCH  16  19
ENDBRANCH   5  11
BRANCH   1  23
ATOM     23  C   LIG    1        2.087   0.901   1.482  0.00  0.00    +0.530 C 
ATOM     24  O   LIG    1        2.777   1.486   2.294  0.00  0.00    -0.490 OA
BRANCH  23  25
ATOM     25  O   LIG    1        2.489  -0.288   0.988  0.00  0.00    -0.360 OA
BRANCH  25  27
ATOM     26  C   LIG    1        4.040  -2.155   0.804  0.00  0.00    +0.070 C 
ATOM     27  C   LIG    1        3.755  -0.809   1.472  0.00  0.00    +0.220 C 
ENDBRANCH  25  27
ENDBRANCH  23  25
ENDBRANCH   1  23
TORSDOF 5
