REMARK  Name = ZINCrD000000CL2u.0
REMARK                            x       y       z     vdW  Elec       q    Type
REMARK                         _______ _______ _______ _____ _____    ______ ____
ROOT
ATOM      1  C   LIG    1       -0.058   7.599   1.756  0.00  0.00    +0.180 C 
ENDROOT
BRANCH   1   2
ATOM      2  C   LIG    1        0.475   8.902   1.219  0.00  0.00    -0.100 A 
ATOM      3  C   LIG    1        1.699   8.937   0.576  0.00  0.00    +0.020 A 
ATOM      4  C   LIG    1        2.185  10.131   0.079  0.00  0.00    +0.000 A 
ATOM      5  C   LIG    1        1.453  11.293   0.233  0.00  0.00    +0.000 A 
ATOM      6  C   LIG    1        0.232  11.260   0.881  0.00  0.00    +0.000 A 
ATOM      7  C   LIG    1       -0.257  10.065   1.374  0.00  0.00    +0.010 A 
ENDBRANCH   1   2
BRANCH   1   8
ATOM      8  N   LIG    1        0.227   6.522   0.798  0.00  0.00    -0.670 NA
ATOM      9  H   LIG    1        0.478   6.897  -0.104  0.00  0.00    +0.340 HD
BRANCH   8  10
ATOM     10  C   LIG    1       -0.913   5.602   0.687  0.00  0.00    +0.230 C 
BRANCH  10  11
ATOM     11  C   LIG    1       -0.681   4.650  -0.458  0.00  0.00    -0.090 A 
ATOM     12  C   LIG    1       -1.399   4.789  -1.632  0.00  0.00    +0.020 A 
ATOM     13  C   LIG    1       -1.187   3.917  -2.684  0.00  0.00    +0.020 A 
ATOM     14  C   LIG    1       -0.256   2.900  -2.569  0.00  0.00    +0.010 A 
ATOM     15  C   LIG    1        0.464   2.759  -1.395  0.00  0.00    +0.060 A 
ATOM     16  O   LIG    1        1.386   1.760  -1.267  0.00  0.00    -0.320 OA
ATOM     17  C   LIG    1        2.751   2.175  -1.196  0.00  0.00    +0.220 C 
ATOM     18  C   LIG    1        3.127   2.551   0.228  0.00  0.00    -0.020 C 
ATOM     19  C   LIG    1        2.362   3.767   0.727  0.00  0.00    +0.230 C 
ATOM     20  O   LIG    1        0.964   3.484   0.815  0.00  0.00    -0.310 OA
ATOM     21  C   LIG    1        0.252   3.633  -0.339  0.00  0.00    +0.090 A 
ENDBRANCH  10  11
ENDBRANCH   8  10
ENDBRANCH   1   8
BRANCH   1  22
ATOM     22  C   LIG    1        0.617   7.285   3.093  0.00  0.00    +0.310 C 
BRANCH  22  28
ATOM     23  O   LIG    1       -1.770   6.889   4.642  0.00  0.00    -0.540 OA
ATOM     24  C   LIG    1       -1.062   5.950   4.348  0.00  0.00    +0.510 C 
ATOM     25  C   LIG    1       -1.327   4.511   4.730  0.00  0.00    +0.040 C 
ATOM     26  C   LIG    1       -0.405   3.692   3.798  0.00  0.00    +0.040 C 
ATOM     27  C   LIG    1        0.700   4.720   3.467  0.00  0.00    +0.270 C 
ATOM     28  N   LIG    1        0.073   6.036   3.632  0.00  0.00    -0.610 N 
ENDBRANCH  22  28
ENDBRANCH   1  22
TORSDOF 6
