REMARK  Name = ZINCvU00000007Rj.1
REMARK                            x       y       z     vdW  Elec       q    Type
REMARK                         _______ _______ _______ _____ _____    ______ ____
ROOT
ATOM      1  C   LIG    1       -2.513   0.976   0.019  0.00  0.00    +0.240 C 
ENDROOT
BRANCH   1   2
ATOM      2  C   LIG    1       -1.220   1.750   0.017  0.00  0.00    -0.080 A 
ATOM      3  C   LIG    1       -0.013   1.076   0.008  0.00  0.00    +0.060 A 
ATOM      4  C   LIG    1        1.175   1.782   0.000  0.00  0.00    +0.020 A 
ATOM      5  C   LIG    1        1.156   3.170   0.008  0.00  0.00    +0.140 A 
ATOM      6  C   LIG    1       -0.057   3.845   0.023  0.00  0.00    +0.030 A 
ATOM      7  C   LIG    1       -1.242   3.134   0.031  0.00  0.00    +0.010 A 
ATOM      8 CL   LIG    1       -2.760   3.976   0.049  0.00  0.00    -0.040 Cl
BRANCH   5   9
ATOM      9  N   LIG    1        2.359   3.889   0.000  0.00  0.00    -0.450 N 
ATOM     10  C   LIG    1        3.423   3.692   0.829  0.00  0.00    +0.490 A 
ATOM     11  N   LIG    1        4.372   4.536   0.544  0.00  0.00    -0.480 NA
ATOM     12  C   LIG    1        3.984   5.331  -0.486  0.00  0.00    +0.050 A 
ATOM     13  C   LIG    1        4.597   6.380  -1.176  0.00  0.00    +0.070 A 
ATOM     14  C   LIG    1        3.928   7.006  -2.203  0.00  0.00    +0.010 A 
ATOM     15  C   LIG    1        2.648   6.604  -2.558  0.00  0.00    +0.030 A 
ATOM     16  C   LIG    1        2.028   5.572  -1.887  0.00  0.00    +0.010 A 
ATOM     17  C   LIG    1        2.690   4.924  -0.854  0.00  0.00    +0.050 A 
ENDBRANCH   5   9
ENDBRANCH   1   2
BRANCH   1  18
ATOM     18  N   LIG    1       -3.111   1.025   1.360  0.00  0.00    -0.670 NA
ATOM     19  H   LIG    1       -2.467   0.681   2.056  0.00  0.00    +0.350 HD
BRANCH  18  20
ATOM     20  C   LIG    1       -4.376   0.280   1.399  0.00  0.00    +0.150 C 
BRANCH  20  21
ATOM     21  C   LIG    1       -4.968   0.353   2.808  0.00  0.00    +0.230 C 
BRANCH  21  22
ATOM     22  O   LIG    1       -5.316   1.706   3.109  0.00  0.00    -0.530 OA
ATOM     23  H   LIG    1       -5.969   2.087   2.505  0.00  0.00    +0.370 HD
ENDBRANCH  21  22
BRANCH  21  24
ATOM     24  C   LIG    1       -6.219  -0.524   2.882  0.00  0.00    +0.170 C 
BRANCH  24  25
ATOM     25  O   LIG    1       -6.705  -0.549   4.226  0.00  0.00    -0.290 OA
BRANCH  25  26
ATOM     26  C   LIG    1       -7.820  -1.289   4.466  0.00  0.00    +0.100 A 
ATOM     27  C   LIG    1       -8.436  -1.972   3.429  0.00  0.00    -0.020 A 
ATOM     28  C   LIG    1       -9.566  -2.728   3.676  0.00  0.00    +0.060 A 
ATOM     29  C   LIG    1      -10.090  -2.795   4.954  0.00  0.00    -0.050 A 
ATOM     30  C   LIG    1       -9.481  -2.110   5.991  0.00  0.00    +0.040 A 
ATOM     31 CL   LIG    1      -11.514  -3.740   5.259  0.00  0.00    -0.050 Cl
ATOM     32  C   LIG    1       -8.347  -1.357   5.750  0.00  0.00    +0.090 A 
ATOM     33  F   LIG    1       -7.752  -0.688   6.762  0.00  0.00    -0.120 F 
ENDBRANCH  25  26
ENDBRANCH  24  25
ENDBRANCH  21  24
ENDBRANCH  20  21
ENDBRANCH  18  20
ENDBRANCH   1  18
TORSDOF 9
