REMARK  Name = ZINCqH0000036bX7.0
REMARK                            x       y       z     vdW  Elec       q    Type
REMARK                         _______ _______ _______ _____ _____    ______ ____
ROOT
ATOM      1  N   LIG    1        1.355   1.612  -0.002  0.00  0.00    -0.740 N 
ATOM      2  H   LIG    1        1.553   2.436  -0.473  0.00  0.00    +0.400 HD
ENDROOT
BRANCH   1  10
ATOM      3  C   LIG    1       -2.503   2.600   3.129  0.00  0.00    +0.100 A 
ATOM      4  C   LIG    1       -1.226   2.203   3.495  0.00  0.00    -0.040 A 
ATOM      5  C   LIG    1       -0.361   1.703   2.542  0.00  0.00    +0.070 A 
ATOM      6  C   LIG    1       -0.762   1.594   1.221  0.00  0.00    -0.130 A 
ATOM      7  C   LIG    1       -2.037   1.989   0.848  0.00  0.00    -0.090 A 
ATOM      8  C   LIG    1       -2.226   1.773  -0.638  0.00  0.00    +0.090 C 
ATOM      9  C   LIG    1       -0.800   1.617  -1.208  0.00  0.00    +0.050 C 
ATOM     10  C   LIG    1       -0.013   1.086   0.008  0.00  0.00    +0.300 C 
ATOM     11  C   LIG    1       -2.909   2.491   1.800  0.00  0.00    +0.080 A 
ATOM     12  F   LIG    1       -4.152   2.877   1.438  0.00  0.00    -0.130 F 
BRANCH   3  14
ATOM     13  C   LIG    1       -2.874   3.176   5.406  0.00  0.00    +0.250 C 
ATOM     14  O   LIG    1       -3.357   3.094   4.064  0.00  0.00    -0.310 OA
ENDBRANCH   3  14
ENDBRANCH   1  10
BRANCH   1  15
ATOM     15  C   LIG    1        2.372   0.926   0.666  0.00  0.00    +0.220 A 
ATOM     16  C   LIG    1        2.088  -0.254   1.341  0.00  0.00    -0.060 A 
ATOM     17  C   LIG    1        3.093  -0.933   2.002  0.00  0.00    +0.070 A 
ATOM     18  C   LIG    1        4.384  -0.440   1.995  0.00  0.00    -0.130 A 
ATOM     19  C   LIG    1        4.674   0.741   1.322  0.00  0.00    +0.210 A 
ATOM     20  C   LIG    1        5.478  -1.183   2.717  0.00  0.00    +0.090 C 
ATOM     21  C   LIG    1        3.668   1.421   0.652  0.00  0.00    -0.060 A 
BRANCH  19  22
ATOM     22  N   LIG    1        5.982   1.240   1.316  0.00  0.00    -0.590 N 
ATOM     23  C   LIG    1        6.545   2.168   2.308  0.00  0.00    +0.260 C 
ATOM     24  C   LIG    1        7.994   2.384   1.831  0.00  0.00    +0.270 C 
ATOM     25  N   LIG    1        8.094   1.554   0.621  0.00  0.00    -0.740 N 
ATOM     26  H   LIG    1        8.885   1.461   0.067  0.00  0.00    +0.430 HD
ATOM     27  C   LIG    1        6.921   0.943   0.408  0.00  0.00    +0.700 C 
ATOM     28  O   LIG    1        6.726   0.190  -0.526  0.00  0.00    -0.570 OA
ENDBRANCH  19  22
ENDBRANCH   1  15
TORSDOF 4
