REMARK  Name = ZINCpe00000VVGHt.0
REMARK                            x       y       z     vdW  Elec       q    Type
REMARK                         _______ _______ _______ _____ _____    ______ ____
ROOT
ATOM      1  N   LIG    1       -0.015   1.278   0.009  0.00  0.00    -0.340 N 
ATOM      2  N   LIG    1        0.002  -0.004   0.002  0.00  0.00    -0.220 NA
ATOM      3  C   LIG    1        1.113  -0.696  -0.014  0.00  0.00    +0.070 A 
ATOM      4  C   LIG    1        1.033  -2.202  -0.010  0.00  0.00    +0.150 C 
ATOM      5  C   LIG    1        2.371  -2.793  -0.452  0.00  0.00    +0.200 C 
ATOM      6  N   LIG    1        3.446  -2.182   0.345  0.00  0.00    -0.530 NA
ATOM      7  C   LIG    1        3.651  -0.787  -0.059  0.00  0.00    +0.270 C 
ATOM      8  C   LIG    1        2.348  -0.038  -0.029  0.00  0.00    -0.020 A 
ATOM      9  C   LIG    1        2.362   1.329  -0.019  0.00  0.00    -0.040 A 
ATOM     10  C   LIG    1        1.121   2.001   0.002  0.00  0.00    +0.480 A 
ATOM     11  O   LIG    1        1.078   3.221   0.014  0.00  0.00    -0.540 OA
ENDROOT
BRANCH   1  13
ATOM     12  C   LIG    1       -1.760   2.224  -1.420  0.00  0.00    +0.030 C 
ATOM     13  C   LIG    1       -1.304   1.974   0.019  0.00  0.00    +0.320 C 
ENDBRANCH   1  13
BRANCH   6  14
ATOM     14  C   LIG    1        4.691  -2.953   0.230  0.00  0.00    +0.280 C 
BRANCH  14  15
ATOM     15  C   LIG    1        5.697  -2.435   1.226  0.00  0.00    +0.220 A 
ATOM     16  C   LIG    1        6.120  -3.244   2.262  0.00  0.00    -0.160 A 
ATOM     17  C   LIG    1        7.059  -2.742   3.172  0.00  0.00    +0.510 A 
ATOM     18  N   LIG    1        7.512  -1.480   3.014  0.00  0.00    -0.430 N 
ATOM     19  C   LIG    1        8.422  -0.977   3.894  0.00  0.00    +0.280 A 
ATOM     20  C   LIG    1        8.891   0.284   3.756  0.00  0.00    -0.010 A 
ATOM     21  C   LIG    1        8.444   1.091   2.701  0.00  0.00    +0.130 A 
ATOM     22  C   LIG    1        7.534   0.596   1.815  0.00  0.00    +0.030 A 
ATOM     23  C   LIG    1        7.057  -0.718   1.975  0.00  0.00    +0.400 A 
ATOM     24  O   LIG    1        7.457  -3.434   4.096  0.00  0.00    -0.530 OA
ATOM     25  N   LIG    1        6.169  -1.204   1.110  0.00  0.00    -0.540 NA
ENDBRANCH  14  15
ENDBRANCH   6  14
TORSDOF 3
