REMARK  Name = ZINCpe000000WSmg.0
REMARK                            x       y       z     vdW  Elec       q    Type
REMARK                         _______ _______ _______ _____ _____    ______ ____
ROOT
ATOM      1  C   LIG    1        1.440   0.533   2.095  0.00  0.00    +0.510 C 
ATOM      2  N   LIG    1        1.460   1.458   1.115  0.00  0.00    -0.570 N 
ATOM      3  O   LIG    1        2.441   0.315   2.743  0.00  0.00    -0.520 OA
ENDROOT
BRANCH   2   4
ATOM      4  C   LIG    1        2.731   2.056   0.698  0.00  0.00    +0.270 C 
ATOM      5  C   LIG    1        3.698   0.971   0.181  0.00  0.00    +0.080 C 
ATOM      6  C   LIG    1        4.871   1.058   1.133  0.00  0.00    +0.540 C 
ATOM      7  N   LIG    1        4.633   2.016   2.038  0.00  0.00    -0.670 N 
ATOM      8  H   LIG    1        5.260   2.237   2.744  0.00  0.00    +0.420 HD
ATOM      9  O   LIG    1        5.867   0.369   1.084  0.00  0.00    -0.480 OA
ATOM     10  C   LIG    1        3.460   2.642   1.888  0.00  0.00    +0.530 C 
ATOM     11  O   LIG    1        3.046   3.537   2.593  0.00  0.00    -0.470 OA
ENDBRANCH   2   4
BRANCH   2  12
ATOM     12  C   LIG    1        0.212   1.865   0.466  0.00  0.00    +0.220 C 
ATOM     13  C   LIG    1       -1.054   1.894   1.325  0.00  0.00    +0.040 C 
ATOM     14  C   LIG    1       -0.867   0.797   0.275  0.00  0.00    +0.020 C 
ENDBRANCH   2  12
BRANCH   1  16
ATOM     15  C   LIG    1        0.166  -1.532   1.583  0.00  0.00    +0.060 C 
ATOM     16  C   LIG    1        0.173  -0.229   2.385  0.00  0.00    +0.230 C 
BRANCH  16  17
ATOM     17  N   LIG    1        0.105  -0.536   3.816  0.00  0.00    -0.720 N 
ATOM     18  H   LIG    1        0.920  -0.592   4.340  0.00  0.00    +0.410 HD
ATOM     19  C   LIG    1       -1.089  -0.742   4.405  0.00  0.00    +0.520 C 
ATOM     20  O   LIG    1       -2.108  -0.672   3.751  0.00  0.00    -0.530 OA
BRANCH  19  21
ATOM     21  C   LIG    1       -1.159  -1.058   5.877  0.00  0.00    +0.050 C 
BRANCH  21  22
ATOM     22  C   LIG    1       -2.621  -1.244   6.290  0.00  0.00    +0.010 C 
ATOM     23  C   LIG    1       -3.370   0.080   6.125  0.00  0.00    +0.010 C 
ATOM     24  C   LIG    1       -4.832  -0.106   6.537  0.00  0.00    +0.000 C 
ATOM     25  C   LIG    1       -4.896  -0.549   8.001  0.00  0.00    +0.000 C 
ATOM     26  C   LIG    1       -4.146  -1.873   8.166  0.00  0.00    +0.000 C 
ATOM     27  C   LIG    1       -2.685  -1.686   7.753  0.00  0.00    +0.000 C 
ENDBRANCH  21  22
ENDBRANCH  19  21
ENDBRANCH  16  17
ENDBRANCH   1  16
TORSDOF 6
