REMARK  Name = ZINCqH0000002VBJ.0
REMARK                            x       y       z     vdW  Elec       q    Type
REMARK                         _______ _______ _______ _____ _____    ______ ____
ROOT
ATOM      1  C   LIG    1        2.654   6.534   1.115  0.00  0.00    +0.440 C 
ATOM      2  O   LIG    1        2.500   6.837   2.281  0.00  0.00    -0.390 OA
ENDROOT
BRANCH   1   3
ATOM      3  C   LIG    1        2.011   5.326   0.580  0.00  0.00    -0.300 A 
ATOM      4  C   LIG    1        2.558   4.053   0.532  0.00  0.00    +0.150 A 
ATOM      5  N   LIG    1        1.644   3.246  -0.034  0.00  0.00    -0.310 N 
ATOM      6  N   LIG    1        0.508   4.004  -0.339  0.00  0.00    -0.280 NA
ATOM      7  C   LIG    1        3.925   3.650   1.020  0.00  0.00    +0.170 C 
ATOM      8  C   LIG    1        0.713   5.241   0.020  0.00  0.00    +0.130 A 
ATOM      9  C   LIG    1       -0.262   6.380  -0.134  0.00  0.00    +0.180 C 
BRANCH   5  10
ATOM     10  C   LIG    1        1.801   1.874  -0.273  0.00  0.00    +0.140 A 
ATOM     11  C   LIG    1        0.713   1.019  -0.154  0.00  0.00    +0.040 A 
ATOM     12  C   LIG    1        0.870  -0.333  -0.390  0.00  0.00    +0.040 A 
ATOM     13  C   LIG    1        2.109  -0.834  -0.746  0.00  0.00    +0.010 A 
ATOM     14  C   LIG    1        3.194   0.015  -0.865  0.00  0.00    +0.040 A 
ATOM     15  C   LIG    1        3.043   1.367  -0.630  0.00  0.00    +0.000 A 
ENDBRANCH   5  10
ENDBRANCH   1   3
BRANCH   1  17
ATOM     16  N   LIG    1        3.990   8.554   0.685  0.00  0.00    -0.530 N 
ATOM     17  C   LIG    1        3.495   7.387   0.227  0.00  0.00    +0.480 C 
ATOM     18  O   LIG    1        3.735   7.031  -0.908  0.00  0.00    -0.470 OA
BRANCH  16  19
ATOM     19  C   LIG    1        4.869   9.299  -0.105  0.00  0.00    +0.140 A 
ATOM     20  C   LIG    1        5.488  10.428   0.416  0.00  0.00    -0.020 A 
ATOM     21  C   LIG    1        6.361  11.158  -0.366  0.00  0.00    +0.030 A 
ATOM     22  C   LIG    1        6.610  10.774  -1.671  0.00  0.00    -0.020 A 
ATOM     23  C   LIG    1        5.990   9.654  -2.195  0.00  0.00    +0.030 A 
ATOM     24  C   LIG    1        5.121   8.916  -1.417  0.00  0.00    +0.010 A 
ENDBRANCH  16  19
BRANCH  16  26
ATOM     25  C   LIG    1        4.530   8.432   3.067  0.00  0.00    +0.030 C 
ATOM     26  C   LIG    1        3.605   9.042   2.012  0.00  0.00    +0.280 C 
ENDBRANCH  16  26
ENDBRANCH   1  17
TORSDOF 5
