REMARK  Name = ZINCpe000000Wyxy.0
REMARK                            x       y       z     vdW  Elec       q    Type
REMARK                         _______ _______ _______ _____ _____    ______ ____
ROOT
ATOM      1  C   LIG    1       -2.557   4.152   0.047  0.00  0.00    +0.320 C 
ATOM      2  C   LIG    1       -2.882   4.694  -1.363  0.00  0.00    +0.020 C 
ATOM      3  C   LIG    1       -2.305   6.127  -1.291  0.00  0.00    +0.080 C 
ATOM      4  C   LIG    1       -2.317   6.458   0.185  0.00  0.00    +0.520 C 
ATOM      5  O   LIG    1       -2.209   7.574   0.648  0.00  0.00    -0.520 OA
ATOM      6  N   LIG    1       -2.464   5.335   0.910  0.00  0.00    -0.570 N 
ENDROOT
BRANCH   2   7
ATOM      7  C   LIG    1       -4.371   4.724  -1.598  0.00  0.00    +0.540 C 
ATOM      8  N   LIG    1       -4.858   5.168  -2.774  0.00  0.00    -0.400 N 
ATOM      9  C   LIG    1       -6.273   5.258  -3.170  0.00  0.00    +0.330 C 
ATOM     10  C   LIG    1       -6.242   5.819  -4.573  0.00  0.00    -0.250 C 
ATOM     11  C   LIG    1       -4.968   6.001  -4.899  0.00  0.00    +0.420 C 
ATOM     12  N   LIG    1       -4.121   5.631  -3.872  0.00  0.00    -0.560 N 
ATOM     13  H   LIG    1       -3.153   5.685  -3.906  0.00  0.00    +0.430 HD
ATOM     14  O   LIG    1       -5.130   4.350  -0.730  0.00  0.00    -0.510 OA
BRANCH  11  15
ATOM     15  N   LIG    1       -4.539   6.502  -6.123  0.00  0.00    -0.860 N 
ATOM     16  H   LIG    1       -5.188   6.743  -6.802  0.00  0.00    +0.420 HD
ATOM     17  H   LIG    1       -3.591   6.611  -6.297  0.00  0.00    +0.400 HD
ENDBRANCH  11  15
ENDBRANCH   2   7
BRANCH   1  22
ATOM     18  C   LIG    1       -0.016   1.355   0.009  0.00  0.00    +0.130 A 
ATOM     19  C   LIG    1        1.175   2.066   0.002  0.00  0.00    -0.070 A 
ATOM     20  C   LIG    1        1.153   3.447   0.009  0.00  0.00    +0.050 A 
ATOM     21  C   LIG    1       -0.054   4.121   0.023  0.00  0.00    -0.020 A 
ATOM     22  C   LIG    1       -1.243   3.414   0.031  0.00  0.00    -0.060 A 
ATOM     23  C   LIG    1       -1.227   2.033   0.019  0.00  0.00    -0.010 A 
BRANCH  18  25
ATOM     24  C   LIG    1        1.284  -0.635  -0.014  0.00  0.00    +0.250 C 
ATOM     25  O   LIG    1        0.002  -0.004   0.002  0.00  0.00    -0.320 OA
ENDBRANCH  18  25
ENDBRANCH   1  22
BRANCH   6  26
ATOM     26  C   LIG    1       -2.526   5.298   2.373  0.00  0.00    +0.210 C 
ATOM     27  C   LIG    1       -2.617   6.635   3.111  0.00  0.00    +0.040 C 
ATOM     28  C   LIG    1       -1.317   5.830   3.145  0.00  0.00    +0.000 C 
ENDBRANCH   6  26
TORSDOF 5
