REMARK  Name = ZINCrg00000BubtM.0
REMARK                            x       y       z     vdW  Elec       q    Type
REMARK                         _______ _______ _______ _____ _____    ______ ____
ROOT
ATOM      1  CA  LIG    1        2.330   5.714   0.009  0.00  0.00    +0.250 C 
ENDROOT
BRANCH   1   4
ATOM      2  O   LIG    1        0.121   4.168   0.022  0.00  0.00    -0.520 OA
ATOM      3  C   LIG    1        1.178   3.567   0.009  0.00  0.00    +0.560 C 
ATOM      4  N   LIG    1        2.340   4.249   0.002  0.00  0.00    -0.710 N 
ATOM      5  H   LIG    1        3.183   3.770  -0.008  0.00  0.00    +0.400 HD
BRANCH   3   6
ATOM      6  C   LIG    1        1.188   2.091   0.002  0.00  0.00    -0.160 A 
ATOM      7  C   LIG    1        2.399   1.397  -0.013  0.00  0.00    +0.090 A 
ATOM      8  C   LIG    1        2.402   0.018  -0.020  0.00  0.00    +0.030 A 
ATOM      9  C   LIG    1        1.208  -0.681  -0.013  0.00  0.00    +0.100 A 
ATOM     10  C   LIG    1        0.002  -0.004   0.002  0.00  0.00    -0.090 A 
ATOM     11 CL   LIG    1       -1.490  -0.891   0.011  0.00  0.00    -0.040 Cl
ATOM     12  C   LIG    1       -0.017   1.380   0.010  0.00  0.00    +0.170 A 
ATOM     13  F   LIG    1       -1.194   2.042   0.019  0.00  0.00    -0.100 F 
ENDBRANCH   3   6
ENDBRANCH   1   4
BRANCH   1  14
ATOM     14  C   LIG    1        3.628   6.236  -0.610  0.00  0.00    +0.290 C 
BRANCH  14  15
ATOM     15  N   LIG    1        3.798   5.660  -1.946  0.00  0.00    -0.710 N 
ATOM     16  H   LIG    1        3.133   5.048  -2.299  0.00  0.00    +0.410 HD
ATOM     17  C   LIG    1        4.879   5.979  -2.685  0.00  0.00    +0.570 C 
ATOM     18  O   LIG    1        5.713   6.746  -2.243  0.00  0.00    -0.490 OA
BRANCH  17  19
ATOM     19  C   LIG    1        5.050   5.398  -4.033  0.00  0.00    +0.170 A 
ATOM     20  N   LIG    1        4.150   4.563  -4.526  0.00  0.00    -0.420 NA
ATOM     21  C   LIG    1        4.292   4.034  -5.734  0.00  0.00    +0.210 A 
ATOM     22  C   LIG    1        5.356   4.318  -6.524  0.00  0.00    +0.230 A 
ATOM     23  N   LIG    1        6.329   5.168  -6.095  0.00  0.00    -0.360 N 
ATOM     24  C   LIG    1        7.485   5.635  -6.642  0.00  0.00    +0.110 A 
ATOM     25  C   LIG    1        8.050   6.465  -5.735  0.00  0.00    +0.230 A 
ATOM     26  N   LIG    1        7.266   6.513  -4.655  0.00  0.00    -0.430 NA
ATOM     27  C   LIG    1        6.215   5.741  -4.849  0.00  0.00    +0.190 A 
ENDBRANCH  17  19
ENDBRANCH  14  15
ENDBRANCH   1  14
BRANCH   1  28
ATOM     28  C   LIG    1        2.215   6.216   1.450  0.00  0.00    +0.190 C 
BRANCH  28  29
ATOM     29  O   LIG    1        3.385   5.842   2.180  0.00  0.00    -0.570 OA
ATOM     30  H   LIG    1        3.380   6.128   3.104  0.00  0.00    +0.380 HD
ENDBRANCH  28  29
ENDBRANCH   1  28
TORSDOF 7
