REMARK  Name = ZINCnE000001Twq5.0
REMARK                            x       y       z     vdW  Elec       q    Type
REMARK                         _______ _______ _______ _____ _____    ______ ____
ROOT
ATOM      1  O   LIG    1        3.542  -1.733  -0.041  0.00  0.00    -0.620 OA
ATOM      2  C   LIG    1        2.580  -2.476  -0.036  0.00  0.00    +0.660 C 
ATOM      3  N   LIG    1        2.760  -3.812  -0.045  0.00  0.00    -0.550 N 
ATOM      4  C   LIG    1        4.062  -4.484  -0.061  0.00  0.00    +0.280 C 
ATOM      5  C   LIG    1        3.740  -5.987  -0.067  0.00  0.00    +0.050 C 
ATOM      6  C   LIG    1        2.229  -6.053  -0.053  0.00  0.00    -0.160 A 
ATOM      7  C   LIG    1        1.369  -7.134  -0.051  0.00  0.00    +0.050 A 
ATOM      8  C   LIG    1        0.001  -6.933  -0.037  0.00  0.00    -0.060 A 
ATOM      9  C   LIG    1       -0.505  -5.647  -0.025  0.00  0.00    +0.030 A 
ATOM     10  C   LIG    1        0.349  -4.565  -0.027  0.00  0.00    +0.030 A 
ATOM     11  C   LIG    1        1.732  -4.759  -0.035  0.00  0.00    +0.180 A 
ATOM     12  N   LIG    1        1.333  -1.964  -0.022  0.00  0.00    -0.660 NA
ENDROOT
BRANCH  12  13
ATOM     13  C   LIG    1        1.148  -0.592  -0.012  0.00  0.00    +0.430 A 
ATOM     14  N   LIG    1        0.002  -0.004   0.002  0.00  0.00    -0.570 NA
ATOM     15  C   LIG    1       -0.016   1.343   0.009  0.00  0.00    +0.150 A 
ATOM     16  C   LIG    1       -1.128   2.211   0.030  0.00  0.00    +0.010 A 
ATOM     17  C   LIG    1       -0.948   3.572   0.029  0.00  0.00    +0.010 A 
ATOM     18  C   LIG    1        0.328   4.115   0.020  0.00  0.00    -0.040 A 
ATOM     19  C   LIG    1        1.429   3.287   0.006  0.00  0.00    +0.050 A 
ATOM     20  C   LIG    1        1.265   1.904   0.000  0.00  0.00    -0.240 A 
ATOM     21  S   LIG    1        2.445   0.596  -0.018  0.00  0.00    -0.030 S 
ENDBRANCH  12  13
BRANCH   5  22
ATOM     22  C   LIG    1        4.315  -6.660   1.181  0.00  0.00    +0.190 C 
BRANCH  22  23
ATOM     23  O   LIG    1        4.106  -8.072   1.099  0.00  0.00    -0.570 OA
ATOM     24  H   LIG    1        4.446  -8.564   1.859  0.00  0.00    +0.380 HD
ENDBRANCH  22  23
ENDBRANCH   5  22
TORSDOF 3
