REMARK  Name = ZINCpk00000k0kQ2.1
REMARK                            x       y       z     vdW  Elec       q    Type
REMARK                         _______ _______ _______ _____ _____    ______ ____
ROOT
ATOM      1  C   LIG    1       -2.184   3.654  -1.725  0.00  0.00    +0.200 C 
ENDROOT
BRANCH   1   2
ATOM      2  C   LIG    1       -1.726   2.495  -0.837  0.00  0.00    +0.140 C 
ATOM      3  C   LIG    1       -1.076   3.035   0.461  0.00  0.00    +0.040 C 
ATOM      4  C   LIG    1       -0.159   1.849   0.872  0.00  0.00    +0.150 C 
ATOM      5  C   LIG    1        0.322   1.298  -0.487  0.00  0.00    +0.180 C 
ATOM      6  F   LIG    1        0.924   2.299   1.635  0.00  0.00    -0.200 F 
ATOM      7  N   LIG    1       -0.653   1.728  -1.506  0.00  0.00    -0.510 NA
BRANCH   7   8
ATOM      8  C   LIG    1       -1.204   0.573  -2.228  0.00  0.00    +0.290 C 
BRANCH   8   9
ATOM      9  C   LIG    1       -1.995  -0.285  -1.274  0.00  0.00    -0.280 A 
ATOM     10  C   LIG    1       -3.315  -0.163  -1.002  0.00  0.00    +0.240 A 
ATOM     11  N   LIG    1       -3.639  -1.115  -0.101  0.00  0.00    -0.370 N 
ATOM     12  N   LIG    1       -2.479  -1.845   0.189  0.00  0.00    -0.290 NA
ATOM     13  C   LIG    1       -4.968  -1.344   0.471  0.00  0.00    +0.360 C 
ATOM     14  C   LIG    1       -1.496  -1.351  -0.519  0.00  0.00    +0.230 A 
ENDBRANCH   8   9
ENDBRANCH   7   8
ENDBRANCH   1   2
BRANCH   1  16
ATOM     15  C   LIG    1       -4.531   3.502  -1.146  0.00  0.00    +0.180 C 
ATOM     16  N   LIG    1       -3.322   4.335  -1.092  0.00  0.00    -0.530 NA
BRANCH  16  17
ATOM     17  C   LIG    1       -3.558   5.648  -1.708  0.00  0.00    +0.320 C 
BRANCH  17  18
ATOM     18  C   LIG    1       -4.560   6.416  -0.884  0.00  0.00    +0.240 A 
ATOM     19  N   LIG    1       -5.856   6.394  -1.051  0.00  0.00    -0.310 NA
ATOM     20  N   LIG    1       -6.405   7.242  -0.075  0.00  0.00    -0.480 N 
ATOM     21  H   LIG    1       -7.345   7.437   0.064  0.00  0.00    +0.440 HD
ATOM     22  C   LIG    1       -5.368   7.736   0.623  0.00  0.00    +0.320 A 
ATOM     23  N   LIG    1       -4.267   7.232   0.127  0.00  0.00    -0.520 NA
BRANCH  22  24
ATOM     24  C   LIG    1       -5.458   8.702   1.777  0.00  0.00    +0.050 C 
ATOM     25  C   LIG    1       -6.774   9.460   1.962  0.00  0.00    +0.030 C 
ATOM     26  C   LIG    1       -5.533  10.194   1.445  0.00  0.00    +0.060 C 
ENDBRANCH  22  24
ENDBRANCH  17  18
ENDBRANCH  16  17
ENDBRANCH   1  16
TORSDOF 7
