REMARK  Name = ZINCpk00000k0kQ2.0
REMARK                            x       y       z     vdW  Elec       q    Type
REMARK                         _______ _______ _______ _____ _____    ______ ____
ROOT
ATOM      1  C   LIG    1        2.968  -3.466  -1.409  0.00  0.00    +0.170 C 
ENDROOT
BRANCH   1   2
ATOM      2  C   LIG    1        3.410  -3.719  -2.852  0.00  0.00    +0.170 C 
ATOM      3  C   LIG    1        4.474  -4.835  -2.887  0.00  0.00    +0.010 C 
ATOM      4  C   LIG    1        5.460  -4.344  -3.979  0.00  0.00    +0.180 C 
ATOM      5  C   LIG    1        5.437  -2.812  -3.756  0.00  0.00    +0.170 C 
ATOM      6  F   LIG    1        6.742  -4.862  -3.767  0.00  0.00    -0.210 F 
ATOM      7  N   LIG    1        4.034  -2.503  -3.405  0.00  0.00    -0.510 NA
BRANCH   7   8
ATOM      8  C   LIG    1        3.964  -1.392  -2.447  0.00  0.00    +0.290 C 
BRANCH   8   9
ATOM      9  C   LIG    1        4.769  -0.229  -2.966  0.00  0.00    -0.230 A 
ATOM     10  C   LIG    1        4.307   0.771  -3.752  0.00  0.00    +0.250 A 
ATOM     11  N   LIG    1        5.335   1.611  -3.995  0.00  0.00    -0.380 N 
ATOM     12  N   LIG    1        6.466   1.111  -3.337  0.00  0.00    -0.300 NA
ATOM     13  C   LIG    1        5.279   2.830  -4.806  0.00  0.00    +0.350 C 
ATOM     14  C   LIG    1        6.124   0.011  -2.716  0.00  0.00    +0.220 A 
ENDBRANCH   8   9
ENDBRANCH   7   8
ENDBRANCH   1   2
BRANCH   1  16
ATOM     15  C   LIG    1        0.704  -2.899  -2.053  0.00  0.00    +0.180 C 
ATOM     16  N   LIG    1        1.928  -2.429  -1.390  0.00  0.00    -0.520 NA
BRANCH  16  17
ATOM     17  C   LIG    1        1.647  -1.990  -0.016  0.00  0.00    +0.310 C 
BRANCH  17  18
ATOM     18  C   LIG    1        0.765  -0.768  -0.050  0.00  0.00    +0.180 A 
ATOM     19  N   LIG    1        1.162   0.468  -0.180  0.00  0.00    -0.260 NA
ATOM     20  N   LIG    1        0.144   1.253  -0.168  0.00  0.00    -0.280 NA
ATOM     21  C   LIG    1       -0.949   0.553  -0.029  0.00  0.00    +0.210 A 
ATOM     22  N   LIG    1       -0.586  -0.750   0.050  0.00  0.00    -0.580 N 
ATOM     23  H   LIG    1       -1.173  -1.514   0.157  0.00  0.00    +0.420 HD
BRANCH  21  24
ATOM     24  C   LIG    1       -2.355   1.094   0.027  0.00  0.00    +0.060 C 
ATOM     25  C   LIG    1       -3.501   0.105  -0.198  0.00  0.00    +0.030 C 
ATOM     26  C   LIG    1       -3.150   1.129  -1.279  0.00  0.00    +0.060 C 
ENDBRANCH  21  24
ENDBRANCH  17  18
ENDBRANCH  16  17
ENDBRANCH   1  16
TORSDOF 7
