REMARK  Name = ZINCpk00001AZiW7.2
REMARK                            x       y       z     vdW  Elec       q    Type
REMARK                         _______ _______ _______ _____ _____    ______ ____
ROOT
ATOM      1  C   LIG    1        2.301   3.561   1.357  0.00  0.00    -0.010 C 
ATOM      2  C   LIG    1        3.249   2.758   2.251  0.00  0.00    +0.020 C 
ATOM      3  C   LIG    1        3.171   3.299   3.681  0.00  0.00    +0.030 C 
ATOM      4  C   LIG    1        3.523   4.789   3.678  0.00  0.00    +0.180 C 
ATOM      5  N   LIG    1        2.586   5.513   2.810  0.00  0.00    -0.520 NA
ATOM      6  C   LIG    1        2.678   5.043   1.421  0.00  0.00    +0.180 C 
ENDROOT
BRANCH   1   7
ATOM      7  C   LIG    1        2.418   3.067  -0.087  0.00  0.00    +0.330 C 
BRANCH   7  11
ATOM      8  C   LIG    1       -0.540  -0.946  -0.642  0.00  0.00    +0.190 C 
ATOM      9  C   LIG    1        0.651  -0.051  -0.412  0.00  0.00    +0.220 A 
ATOM     10  N   LIG    1        0.633   1.256  -0.427  0.00  0.00    -0.320 NA
ATOM     11  N   LIG    1        1.945   1.683  -0.169  0.00  0.00    -0.370 N 
ATOM     12  C   LIG    1        2.682   0.569  -0.011  0.00  0.00    +0.280 A 
ATOM     13  C   LIG    1        4.159   0.519   0.284  0.00  0.00    +0.190 C 
ATOM     14  N   LIG    1        1.892  -0.464  -0.160  0.00  0.00    -0.540 NA
ENDBRANCH   7  11
ENDBRANCH   1   7
BRANCH   5  15
ATOM     15  C   LIG    1        2.807   6.963   2.890  0.00  0.00    +0.220 C 
BRANCH  15  16
ATOM     16  C   LIG    1        1.677   7.682   2.200  0.00  0.00    +0.510 C 
ATOM     17  N   LIG    1        1.728   9.019   2.038  0.00  0.00    -0.720 N 
ATOM     18  H   LIG    1        2.493   9.518   2.365  0.00  0.00    +0.410 HD
ATOM     19  O   LIG    1        0.721   7.058   1.792  0.00  0.00    -0.500 OA
BRANCH  17  20
ATOM     20  C   LIG    1        0.630   9.719   1.367  0.00  0.00    +0.320 C 
ATOM     21  C   LIG    1       -0.669   9.491   2.143  0.00  0.00    +0.070 C 
BRANCH  20  22
ATOM     22  C   LIG    1        0.936  11.217   1.314  0.00  0.00    -0.050 C 
ATOM     23  C   LIG    1       -0.000  12.156   2.076  0.00  0.00    +0.050 C 
ATOM     24  C   LIG    1       -0.041  12.111   0.547  0.00  0.00    +0.030 C 
ENDBRANCH  20  22
BRANCH  20  25
ATOM     25  C   LIG    1        0.481   9.199  -0.002  0.00  0.00    +0.200 C 
ATOM     26  N   LIG    1        0.366   8.799  -1.059  0.00  0.00    -0.410 NA
ENDBRANCH  20  25
ENDBRANCH  17  20
ENDBRANCH  15  16
ENDBRANCH   5  15
TORSDOF 7
