REMARK  Name = ZINCpe000027pHwN.1
REMARK                            x       y       z     vdW  Elec       q    Type
REMARK                         _______ _______ _______ _____ _____    ______ ____
ROOT
ATOM      1  C   LIG    1       -1.474  -6.913  -1.671  0.00  0.00    +0.010 C 
ATOM      2  C   LIG    1       -1.710  -6.605  -3.157  0.00  0.00    +0.330 C 
ATOM      3  N   LIG    1       -2.216  -5.227  -3.254  0.00  0.00    -0.450 N 
ATOM      4  C   LIG    1       -3.455  -4.821  -3.652  0.00  0.00    +0.140 A 
ATOM      5  C   LIG    1       -3.469  -3.475  -3.553  0.00  0.00    +0.150 A 
ATOM      6  N   LIG    1       -2.264  -3.077  -3.110  0.00  0.00    -0.470 NA
ATOM      7  C   LIG    1       -1.511  -4.120  -2.940  0.00  0.00    +0.170 A 
ATOM      8  C   LIG    1       -0.066  -4.160  -2.472  0.00  0.00    +0.430 C 
ATOM      9  N   LIG    1       -0.044  -4.920  -1.211  0.00  0.00    -0.610 N 
ATOM     10  C   LIG    1        0.059  -4.263  -0.039  0.00  0.00    +0.570 C 
ATOM     11  O   LIG    1        0.153  -4.886   1.001  0.00  0.00    -0.510 OA
ATOM     12  C   LIG    1       -0.128  -6.371  -1.216  0.00  0.00    +0.330 C 
ENDROOT
BRANCH  10  13
ATOM     13  C   LIG    1        0.059  -2.787  -0.018  0.00  0.00    -0.170 A 
ATOM     14  C   LIG    1       -0.950  -2.078  -0.680  0.00  0.00    +0.130 A 
ATOM     15  C   LIG    1       -0.960  -0.701  -0.659  0.00  0.00    -0.020 A 
ATOM     16  C   LIG    1        0.038  -0.004   0.009  0.00  0.00    +0.190 A 
ATOM     17  C   LIG    1        1.058  -0.705   0.678  0.00  0.00    -0.230 A 
ATOM     18  C   LIG    1        1.063  -2.101   0.660  0.00  0.00    +0.140 A 
BRANCH  17  19
ATOM     19  C   LIG    1        2.111   0.028   1.391  0.00  0.00    +0.490 C 
ATOM     20  O   LIG    1        2.104   1.241   1.404  0.00  0.00    -0.440 OA
ENDBRANCH  17  19
BRANCH  16  21
ATOM     21  O   LIG    1        0.026   1.350   0.021  0.00  0.00    -0.480 OA
ATOM     22  H   LIG    1        0.512   1.754  -0.711  0.00  0.00    +0.400 HD
ENDBRANCH  16  21
ENDBRANCH  10  13
BRANCH   1  23
ATOM     23  C   LIG    1       -1.502  -8.405  -1.464  0.00  0.00    +0.470 C 
ATOM     24  O   LIG    1       -0.532  -8.972  -1.019  0.00  0.00    -0.490 OA
BRANCH  23  26
ATOM     25  C   LIG    1       -2.561 -10.539  -1.548  0.00  0.00    +0.280 C 
ATOM     26  O   LIG    1       -2.605  -9.105  -1.774  0.00  0.00    -0.360 OA
ENDBRANCH  23  26
ENDBRANCH   1  23
TORSDOF 5
