REMARK  Name = ZINCpk00000xRNvE.2
REMARK                            x       y       z     vdW  Elec       q    Type
REMARK                         _______ _______ _______ _____ _____    ______ ____
ROOT
ATOM      1  C   LIG    1        1.888   2.885  -0.016  0.00  0.00    +0.230 C 
ENDROOT
BRANCH   1   4
ATOM      2  C   LIG    1        5.245   1.278  -0.590  0.00  0.00    +0.140 C 
ATOM      3  C   LIG    1        4.203   2.397  -0.532  0.00  0.00    +0.190 C 
ATOM      4  N   LIG    1        2.900   1.830  -0.156  0.00  0.00    -0.520 NA
ATOM      5  C   LIG    1        2.471   0.813  -1.126  0.00  0.00    +0.190 C 
ATOM      6  C   LIG    1        3.514  -0.306  -1.184  0.00  0.00    +0.200 C 
ATOM      7  N   LIG    1        4.816   0.261  -1.560  0.00  0.00    -0.530 NA
BRANCH   2   9
ATOM      8  C   LIG    1        7.088   2.842   0.042  0.00  0.00    +0.020 C 
ATOM      9  C   LIG    1        6.594   1.858  -1.020  0.00  0.00    +0.020 C 
ENDBRANCH   2   9
BRANCH   7  10
ATOM     10  C   LIG    1        5.829  -0.794  -1.700  0.00  0.00    +0.150 C 
BRANCH  10  11
ATOM     11  C   LIG    1        5.562  -1.591  -2.978  0.00  0.00    +0.220 C 
ATOM     12  C   LIG    1        6.694  -2.596  -3.198  0.00  0.00    +0.010 C 
BRANCH  11  13
ATOM     13  O   LIG    1        4.322  -2.291  -2.853  0.00  0.00    -0.560 OA
ATOM     14  H   LIG    1        4.296  -2.916  -2.116  0.00  0.00    +0.370 HD
ENDBRANCH  11  13
ENDBRANCH  10  11
ENDBRANCH   7  10
ENDBRANCH   1   4
BRANCH   1  15
ATOM     15  C   LIG    1        2.239   3.767   1.154  0.00  0.00    +0.510 C 
ATOM     16  N   LIG    1        1.507   4.869   1.411  0.00  0.00    -0.630 N 
ATOM     17  H   LIG    1        0.756   5.096   0.841  0.00  0.00    +0.430 HD
ATOM     18  O   LIG    1        3.178   3.482   1.867  0.00  0.00    -0.460 OA
BRANCH  16  19
ATOM     19  C   LIG    1        1.827   5.676   2.490  0.00  0.00    +0.320 A 
ATOM     20  C   LIG    1        1.166   6.835   2.864  0.00  0.00    -0.170 A 
ATOM     21  C   LIG    1        1.876   7.320   4.058  0.00  0.00    -0.120 A 
ATOM     22  C   LIG    1        2.868   6.447   4.282  0.00  0.00    -0.010 A 
ATOM     23  C   LIG    1        3.868   6.538   5.406  0.00  0.00    +0.190 C 
ATOM     24  C   LIG    1        1.555   8.552   4.864  0.00  0.00    +0.140 C 
ATOM     25  O   LIG    1        2.833   5.477   3.352  0.00  0.00    -0.150 OA
BRANCH  20  26
ATOM     26  C   LIG    1        0.032   7.432   2.225  0.00  0.00    +0.280 C 
ATOM     27  N   LIG    1       -0.867   7.906   1.719  0.00  0.00    -0.420 NA
ENDBRANCH  20  26
ENDBRANCH  16  19
ENDBRANCH   1  15
TORSDOF 8
