REMARK  Name = ZINCvU00000009J7.0
REMARK                            x       y       z     vdW  Elec       q    Type
REMARK                         _______ _______ _______ _____ _____    ______ ____
ROOT
ATOM      1  C   LIG    1        5.858  -0.397   1.095  0.00  0.00    +0.560 C 
ATOM      2  N   LIG    1        4.761   0.157   0.542  0.00  0.00    -0.720 N 
ATOM      3  H   LIG    1        4.660   1.122   0.526  0.00  0.00    +0.400 HD
ATOM      4  O   LIG    1        5.984  -1.606   1.115  0.00  0.00    -0.520 OA
ENDROOT
BRANCH   1   8
ATOM      5  C   LIG    1        8.873   2.081   2.772  0.00  0.00    -0.090 A 
ATOM      6  C   LIG    1        9.020   0.706   2.796  0.00  0.00    +0.020 A 
ATOM      7  C   LIG    1        8.044  -0.105   2.253  0.00  0.00    +0.080 A 
ATOM      8  C   LIG    1        6.907   0.466   1.679  0.00  0.00    -0.120 A 
ATOM      9  C   LIG    1        6.768   1.854   1.653  0.00  0.00    +0.040 A 
ATOM     10  C   LIG    1        7.748   2.653   2.204  0.00  0.00    +0.020 A 
BRANCH   5  11
ATOM     11  C   LIG    1        9.942   2.960   3.367  0.00  0.00    +0.320 C 
BRANCH  11  13
ATOM     12  C   LIG    1       11.985   4.074   2.643  0.00  0.00    +0.540 C 
ATOM     13  N   LIG    1       10.930   3.293   2.338  0.00  0.00    -0.720 N 
ATOM     14  H   LIG    1       10.825   2.950   1.436  0.00  0.00    +0.400 HD
ATOM     15  O   LIG    1       12.116   4.504   3.773  0.00  0.00    -0.540 OA
BRANCH  12  17
ATOM     16  C   LIG    1       14.017   5.179   1.911  0.00  0.00    +0.150 C 
ATOM     17  C   LIG    1       12.977   4.408   1.610  0.00  0.00    -0.090 C 
ENDBRANCH  12  17
ENDBRANCH  11  13
ENDBRANCH   5  11
ENDBRANCH   1   8
BRANCH   2  18
ATOM     18  C   LIG    1        3.721  -0.698  -0.037  0.00  0.00    +0.310 C 
BRANCH  18  19
ATOM     19  C   LIG    1        2.403   0.034  -0.021  0.00  0.00    -0.130 A 
ATOM     20  C   LIG    1        2.379   1.415  -0.013  0.00  0.00    +0.040 A 
ATOM     21  C   LIG    1        1.170   2.086   0.002  0.00  0.00    -0.020 A 
ATOM     22  C   LIG    1       -0.017   1.377   0.010  0.00  0.00    +0.050 A 
ATOM     23  C   LIG    1        0.002  -0.004   0.002  0.00  0.00    -0.070 A 
ATOM     24  C   LIG    1        1.213  -0.680  -0.013  0.00  0.00    +0.140 A 
BRANCH  24  25
ATOM     25  O   LIG    1        1.234  -2.039  -0.021  0.00  0.00    -0.310 OA
BRANCH  25  26
ATOM     26  C   LIG    1       -0.029  -2.707  -0.013  0.00  0.00    +0.180 C 
BRANCH  26  27
ATOM     27  C   LIG    1        0.195  -4.221  -0.024  0.00  0.00    -0.010 C 
ATOM     28  C   LIG    1        0.861  -4.629  -1.340  0.00  0.00    +0.020 C 
ATOM     29  C   LIG    1       -1.150  -4.936   0.110  0.00  0.00    +0.040 C 
ENDBRANCH  26  27
ENDBRANCH  25  26
ENDBRANCH  24  25
ENDBRANCH  18  19
BRANCH  18  30
ATOM     30  C   LIG    1        4.092  -1.048  -1.479  0.00  0.00    +0.010 C 
BRANCH  30  31
ATOM     31  C   LIG    1        5.365  -1.897  -1.486  0.00  0.00    -0.020 C 
ATOM     32  C   LIG    1        5.806  -2.143  -2.930  0.00  0.00    +0.000 C 
ATOM     33  C   LIG    1        5.087  -3.238  -0.803  0.00  0.00    +0.020 C 
ENDBRANCH  30  31
ENDBRANCH  18  30
ENDBRANCH   2  18
TORSDOF 11
