REMARK  Name = ZINCqH00000050bv.0
REMARK                            x       y       z     vdW  Elec       q    Type
REMARK                         _______ _______ _______ _____ _____    ______ ____
ROOT
ATOM      1  N   LIG    1        2.701  -3.979  -0.057  0.00  0.00    -0.670 N 
ATOM      2  H   LIG    1        1.738  -4.029  -0.168  0.00  0.00    +0.410 HD
ATOM      3  C   LIG    1        3.299  -2.781   0.101  0.00  0.00    +0.540 C 
ATOM      4  O   LIG    1        4.512  -2.710   0.153  0.00  0.00    -0.480 OA
ENDROOT
BRANCH   1   8
ATOM      5  C   LIG    1        4.985  -7.466  -0.067  0.00  0.00    +0.120 A 
ATOM      6  C   LIG    1        3.726  -7.464   0.515  0.00  0.00    +0.010 A 
ATOM      7  C   LIG    1        2.969  -6.309   0.519  0.00  0.00    +0.030 A 
ATOM      8  C   LIG    1        3.468  -5.150  -0.060  0.00  0.00    +0.110 A 
ATOM      9  C   LIG    1        4.727  -5.154  -0.647  0.00  0.00    +0.060 A 
ATOM     10  C   LIG    1        5.485  -6.309  -0.646  0.00  0.00    -0.060 A 
BRANCH   5  11
ATOM     11  O   LIG    1        5.730  -8.604  -0.070  0.00  0.00    -0.290 OA
BRANCH  11  12
ATOM     12  C   LIG    1        7.018  -8.534  -0.687  0.00  0.00    +0.220 C 
BRANCH  12  15
ATOM     13  C   LIG    1        9.579 -11.359  -1.026  0.00  0.00    +0.300 C 
ATOM     14  N   LIG    1        8.923 -10.052  -1.115  0.00  0.00    -0.620 N 
ATOM     15  C   LIG    1        7.691  -9.879  -0.596  0.00  0.00    +0.510 C 
ATOM     16  O   LIG    1        7.125 -10.806  -0.056  0.00  0.00    -0.510 OA
ATOM     17  C   LIG    1        9.607  -8.933  -1.767  0.00  0.00    +0.280 C 
ENDBRANCH  12  15
ENDBRANCH  11  12
ENDBRANCH   5  11
ENDBRANCH   1   8
BRANCH   3  18
ATOM     18  C   LIG    1        2.481  -1.555   0.209  0.00  0.00    -0.140 A 
ATOM     19  C   LIG    1        1.101  -1.614   0.012  0.00  0.00    +0.040 A 
ATOM     20  C   LIG    1        0.343  -0.465   0.114  0.00  0.00    +0.000 A 
ATOM     21  C   LIG    1        0.949   0.743   0.411  0.00  0.00    +0.040 A 
ATOM     22  C   LIG    1        2.317   0.808   0.608  0.00  0.00    +0.010 A 
ATOM     23  C   LIG    1        3.086  -0.333   0.509  0.00  0.00    -0.000 A 
BRANCH  23  24
ATOM     24  C   LIG    1        4.576  -0.260   0.723  0.00  0.00    -0.020 C 
ATOM     25  C   LIG    1        5.296  -0.787  -0.520  0.00  0.00    +0.050 C 
ATOM     26  C   LIG    1        4.959  -1.113   1.934  0.00  0.00    +0.040 C 
ATOM     27  C   LIG    1        4.985   1.193   0.972  0.00  0.00    +0.030 C 
ENDBRANCH  23  24
ENDBRANCH   3  18
TORSDOF 6
