REMARK  Name = ZINCvU0000000951.0
REMARK                            x       y       z     vdW  Elec       q    Type
REMARK                         _______ _______ _______ _____ _____    ______ ____
ROOT
ATOM      1  C   LIG    1       -0.021   1.708   0.017  0.00  0.00    +0.480 C 
ATOM      2  S   LIG    1        0.001  -0.004   0.006  0.00  0.00    -0.380 S 
ENDROOT
BRANCH   1   4
ATOM      3  C   LIG    1       -2.355   1.677   0.041  0.00  0.00    +0.550 C 
ATOM      4  N   LIG    1       -1.197   2.366   0.033  0.00  0.00    -0.630 N 
ATOM      5  H   LIG    1       -1.210   3.336   0.040  0.00  0.00    +0.410 HD
ATOM      6  O   LIG    1       -2.339   0.462   0.033  0.00  0.00    -0.420 OA
BRANCH   3  10
ATOM      7  C   LIG    1       -6.056   3.749   0.092  0.00  0.00    +0.260 A 
ATOM      8  C   LIG    1       -6.039   2.357   0.083  0.00  0.00    -0.080 A 
ATOM      9  C   LIG    1       -4.844   1.684   0.066  0.00  0.00    +0.140 A 
ATOM     10  C   LIG    1       -3.642   2.397   0.059  0.00  0.00    -0.210 A 
ATOM     11  C   LIG    1       -3.662   3.796   0.073  0.00  0.00    +0.090 A 
ATOM     12  C   LIG    1       -4.860   4.462   0.085  0.00  0.00    -0.080 A 
BRANCH   7  13
ATOM     13  N   LIG    1       -7.269   4.428   0.108  0.00  0.00    -0.610 N 
BRANCH  13  15
ATOM     14  C   LIG    1       -7.309   6.412  -1.321  0.00  0.00    +0.020 C 
ATOM     15  C   LIG    1       -7.288   5.893   0.118  0.00  0.00    +0.270 C 
ENDBRANCH  13  15
BRANCH  13  16
ATOM     16  C   LIG    1       -8.527   3.679   0.117  0.00  0.00    +0.270 C 
ATOM     17  C   LIG    1       -8.951   3.409   1.562  0.00  0.00    +0.020 C 
ENDBRANCH  13  16
ENDBRANCH   7  13
ENDBRANCH   3  10
ENDBRANCH   1   4
BRANCH   1  18
ATOM     18  N   LIG    1        1.137   2.397   0.004  0.00  0.00    -0.560 N 
ATOM     19  H   LIG    1        1.125   3.365  -0.068  0.00  0.00    +0.420 HD
BRANCH  18  20
ATOM     20  C   LIG    1        2.347   1.723   0.094  0.00  0.00    +0.220 A 
ATOM     21  N   LIG    1        3.513   2.284   0.183  0.00  0.00    -0.480 NA
ATOM     22  C   LIG    1        4.564   1.479   0.265  0.00  0.00    +0.110 A 
ATOM     23  C   LIG    1        4.286   0.164   0.234  0.00  0.00    -0.150 A 
ATOM     24  S   LIG    1        2.539  -0.028   0.096  0.00  0.00    +0.300 S 
BRANCH  22  25
ATOM     25  C   LIG    1        5.950   1.994   0.377  0.00  0.00    -0.020 A 
ATOM     26  C   LIG    1        7.021   1.106   0.460  0.00  0.00    +0.020 A 
ATOM     27  C   LIG    1        8.310   1.591   0.557  0.00  0.00    +0.010 A 
ATOM     28  C   LIG    1        8.538   2.955   0.585  0.00  0.00    -0.070 A 
ATOM     29  C   LIG    1        7.478   3.841   0.509  0.00  0.00    +0.000 A 
ATOM     30  C   LIG    1        6.186   3.367   0.405  0.00  0.00    +0.040 A 
BRANCH  28  31
ATOM     31  C   LIG    1        9.947   3.478   0.699  0.00  0.00    +0.020 C 
ATOM     32  C   LIG    1       10.770   2.988  -0.494  0.00  0.00    +0.040 C 
ATOM     33  C   LIG    1       10.576   2.970   1.997  0.00  0.00    +0.040 C 
ENDBRANCH  28  31
ENDBRANCH  22  25
ENDBRANCH  18  20
ENDBRANCH   1  18
TORSDOF 9
