REMARK  Name = ZINCrH000004v247.0
REMARK                            x       y       z     vdW  Elec       q    Type
REMARK                         _______ _______ _______ _____ _____    ______ ____
ROOT
ATOM      1  C   LIG    1        2.292   5.647   0.223  0.00  0.00    -0.160 A 
ATOM      2  C   LIG    1        1.075   6.330   0.232  0.00  0.00    +0.110 A 
ATOM      3  C   LIG    1        1.059   7.705   0.348  0.00  0.00    +0.010 A 
ATOM      4  C   LIG    1        2.247   8.408   0.445  0.00  0.00    +0.160 A 
ATOM      5  C   LIG    1        3.458   7.737   0.431  0.00  0.00    -0.690 A 
ATOM      6  C   LIG    1        3.487   6.362   0.321  0.00  0.00    +0.210 A 
ENDROOT
BRANCH   1   8
ATOM      7  O   LIG    1        3.378   3.583   0.091  0.00  0.00    -0.500 OA
ATOM      8  C   LIG    1        2.316   4.174   0.104  0.00  0.00    +0.560 C 
ATOM      9  N   LIG    1        1.160   3.487   0.009  0.00  0.00    -0.670 N 
ATOM     10  H   LIG    1        0.317   3.962  -0.058  0.00  0.00    +0.420 HD
BRANCH   9  11
ATOM     11  C   LIG    1        1.177   2.089   0.008  0.00  0.00    +0.210 A 
ATOM     12  C   LIG    1        2.133   1.404   0.746  0.00  0.00    -0.010 A 
ATOM     13  C   LIG    1        2.147   0.021   0.744  0.00  0.00    +0.160 A 
ATOM     14  C   LIG    1        1.208  -0.681   0.007  0.00  0.00    -0.060 A 
ATOM     15  C   LIG    1        0.254  -0.000  -0.730  0.00  0.00    +0.160 A 
ATOM     16  F   LIG    1       -0.661  -0.687  -1.449  0.00  0.00    -0.120 F 
ATOM     17  F   LIG    1        3.077  -0.646   1.462  0.00  0.00    -0.120 F 
ATOM     18  C   LIG    1        0.237   1.383  -0.732  0.00  0.00    -0.040 A 
ENDBRANCH   9  11
ENDBRANCH   1   8
BRANCH   5  19
ATOM     19  S   LIG    1        4.965   8.641   0.554  0.00  0.00    +2.700 S 
ATOM     20  O   LIG    1        5.936   7.736   1.060  0.00  0.00    -0.950 OA
ATOM     21  O   LIG    1        4.644   9.871   1.190  0.00  0.00    -0.950 OA
BRANCH  19  22
ATOM     22  N   LIG    1        5.436   9.021  -0.987  0.00  0.00    -1.110 NA
ATOM     23  H   LIG    1        6.255   8.647  -1.350  0.00  0.00    +0.420 HD
BRANCH  22  24
ATOM     24  C   LIG    1        4.618   9.921  -1.803  0.00  0.00    +0.370 C 
BRANCH  24  25
ATOM     25  C   LIG    1        5.420  10.394  -2.988  0.00  0.00    -0.210 A 
ATOM     26  C   LIG    1        5.473   9.784  -4.174  0.00  0.00    +0.030 A 
ATOM     27  C   LIG    1        6.278  10.405  -5.113  0.00  0.00    +0.000 A 
ATOM     28  C   LIG    1        6.879  11.518  -4.691  0.00  0.00    -0.030 A 
ATOM     29  S   LIG    1        6.424  11.838  -3.022  0.00  0.00    +0.120 S 
ENDBRANCH  24  25
ENDBRANCH  22  24
ENDBRANCH  19  22
ENDBRANCH   5  19
TORSDOF 6
