REMARK  Name = ZINCnE000001QLaT.1
REMARK                            x       y       z     vdW  Elec       q    Type
REMARK                         _______ _______ _______ _____ _____    ______ ____
ROOT
ATOM      1  N   LIG    1        3.555   1.472  -0.024  0.00  0.00    -0.670 NA
ATOM      2  C   LIG    1        4.527   0.539  -0.037  0.00  0.00    +0.640 C 
ATOM      3  N   LIG    1        5.822   0.915  -0.047  0.00  0.00    -0.630 N 
ATOM      4  H   LIG    1        6.053   1.857  -0.044  0.00  0.00    +0.410 HD
ATOM      5  O   LIG    1        4.237  -0.642  -0.040  0.00  0.00    -0.630 OA
ENDROOT
BRANCH   1  10
ATOM      6  C   LIG    1       -1.223  -0.882   0.009  0.00  0.00    +0.130 C 
ATOM      7  C   LIG    1        0.002  -0.004   0.002  0.00  0.00    -0.100 A 
ATOM      8  N   LIG    1       -0.015   1.285   0.009  0.00  0.00    -0.440 NA
ATOM      9  C   LIG    1        1.149   1.903   0.001  0.00  0.00    -0.090 A 
ATOM     10  C   LIG    1        2.212   1.081  -0.013  0.00  0.00    +0.160 A 
ATOM     11  S   LIG    1        1.613  -0.576  -0.016  0.00  0.00    +0.040 S 
BRANCH   9  12
ATOM     12  C   LIG    1        1.278   3.405   0.008  0.00  0.00    +0.120 C 
BRANCH  12  13
ATOM     13  C   LIG    1        1.335   3.906   1.452  0.00  0.00    -0.030 C 
ATOM     14  C   LIG    1        1.340   5.436   1.462  0.00  0.00    -0.000 C 
ATOM     15  C   LIG    1        2.610   3.388   2.121  0.00  0.00    +0.020 C 
ENDBRANCH  12  13
ENDBRANCH   9  12
ENDBRANCH   1  10
BRANCH   3  16
ATOM     16  C   LIG    1        6.833  -0.055  -0.061  0.00  0.00    +0.340 A 
ATOM     17  N   LIG    1        8.125   0.178  -0.071  0.00  0.00    -0.350 NA
ATOM     18  N   LIG    1        8.791  -1.054  -0.082  0.00  0.00    -0.390 N 
ATOM     19  C   LIG    1        7.861  -2.033  -0.079  0.00  0.00    +0.220 A 
ATOM     20  C   LIG    1        6.642  -1.446  -0.060  0.00  0.00    -0.090 A 
BRANCH  18  21
ATOM     21  C   LIG    1       10.243  -1.248  -0.095  0.00  0.00    +0.340 C 
BRANCH  21  22
ATOM     22  C   LIG    1       10.848  -0.489  -1.278  0.00  0.00    +0.190 C 
BRANCH  22  23
ATOM     23  C   LIG    1       12.307  -0.683  -1.291  0.00  0.00    +0.210 C 
ATOM     24  N   LIG    1       13.433  -0.833  -1.301  0.00  0.00    -0.430 NA
ENDBRANCH  22  23
ENDBRANCH  21  22
ENDBRANCH  18  21
ENDBRANCH   3  16
TORSDOF 7
