REMARK  Name = ZINCpe00000zgGoV.0
REMARK                            x       y       z     vdW  Elec       q    Type
REMARK                         _______ _______ _______ _____ _____    ______ ____
ROOT
ATOM      1  N   LIG    1       -2.707   1.353  -0.347  0.00  0.00    -0.460 N 
ATOM      2  C   LIG    1       -1.958   0.146   0.025  0.00  0.00    +0.190 C 
ATOM      3  C   LIG    1       -0.455   0.425  -0.074  0.00  0.00    +0.050 C 
ATOM      4  C   LIG    1       -0.113   0.841  -1.507  0.00  0.00    +0.020 C 
ATOM      5  C   LIG    1       -0.942   2.072  -1.885  0.00  0.00    +0.300 C 
ATOM      6  C   LIG    1       -2.429   1.744  -1.735  0.00  0.00    +0.220 C 
ENDROOT
BRANCH   5   7
ATOM      7  N   LIG    1       -0.661   2.442  -3.275  0.00  0.00    -0.980 NA
ATOM      8  C   LIG    1       -0.876   1.599  -4.452  0.00  0.00    +0.240 C 
ATOM      9  C   LIG    1       -0.523   2.286  -5.775  0.00  0.00    +0.090 C 
ATOM     10  C   LIG    1        0.570   3.341  -5.439  0.00  0.00    -0.310 C 
ATOM     11  S   LIG    1       -0.044   3.906  -3.799  0.00  0.00    +2.560 S 
ATOM     12  O   LIG    1        1.029   4.202  -2.916  0.00  0.00    -0.950 OA
ATOM     13  O   LIG    1       -1.169   4.764  -3.930  0.00  0.00    -0.950 OA
ENDBRANCH   5   7
BRANCH   1  17
ATOM     14  C   LIG    1       -6.069   1.139   0.729  0.00  0.00    +0.260 A 
ATOM     15  N   LIG    1       -6.102   0.657  -0.494  0.00  0.00    -0.280 NA
ATOM     16  N   LIG    1       -4.924   0.685  -1.007  0.00  0.00    -0.300 NA
ATOM     17  C   LIG    1       -4.066   1.176  -0.144  0.00  0.00    +0.350 A 
ATOM     18  N   LIG    1       -4.762   1.486   0.990  0.00  0.00    -0.460 N 
ATOM     19  C   LIG    1       -4.230   2.066   2.225  0.00  0.00    +0.360 C 
BRANCH  14  25
ATOM     20  C   LIG    1       -8.941   0.092   0.238  0.00  0.00    +0.340 C 
ATOM     21  N   LIG    1       -8.486   0.816   1.428  0.00  0.00    -0.420 N 
ATOM     22  C   LIG    1       -9.257   1.141   2.504  0.00  0.00    +0.180 A 
ATOM     23  C   LIG    1       -8.490   1.803   3.398  0.00  0.00    -0.060 A 
ATOM     24  C   LIG    1       -7.194   1.891   2.867  0.00  0.00    -0.030 A 
ATOM     25  C   LIG    1       -7.212   1.280   1.646  0.00  0.00    +0.070 A 
ENDBRANCH  14  25
ENDBRANCH   1  17
TORSDOF 3
