REMARK  Name = ZINCvU00000006OQ.0
REMARK                            x       y       z     vdW  Elec       q    Type
REMARK                         _______ _______ _______ _____ _____    ______ ____
ROOT
ATOM      1  C   LIG    1        2.880   0.711   0.506  0.00  0.00    +0.150 A 
ATOM      2  N   LIG    1        2.456  -0.500   0.218  0.00  0.00    -0.290 NA
ATOM      3  N   LIG    1        1.229  -0.458  -0.164  0.00  0.00    -0.230 NA
ATOM      4  C   LIG    1        0.796   0.781  -0.144  0.00  0.00    +0.220 A 
ATOM      5  N   LIG    1        1.840   1.567   0.286  0.00  0.00    -0.450 N 
ENDROOT
BRANCH   4   6
ATOM      6  C   LIG    1       -0.557   1.245  -0.518  0.00  0.00    +0.010 A 
ATOM      7  C   LIG    1       -0.837   2.610  -0.585  0.00  0.00    +0.020 A 
ATOM      8  C   LIG    1       -2.100   3.037  -0.940  0.00  0.00    +0.040 A 
ATOM      9  C   LIG    1       -3.092   2.114  -1.218  0.00  0.00    +0.040 A 
ATOM     10  C   LIG    1       -2.824   0.758  -1.149  0.00  0.00    +0.050 A 
ATOM     11  C   LIG    1       -1.563   0.318  -0.801  0.00  0.00    -0.060 A 
ATOM     12 BR   LIG    1       -1.198  -1.535  -0.706  0.00  0.00    -0.000 Br
ENDBRANCH   4   6
BRANCH   1  13
ATOM     13  S   LIG    1        4.492   1.146   1.070  0.00  0.00    +0.060 S 
BRANCH  13  14
ATOM     14  C   LIG    1        5.265  -0.490   1.106  0.00  0.00    +0.090 C 
BRANCH  14  16
ATOM     15  O   LIG    1        7.142   0.730   1.853  0.00  0.00    -0.420 OA
ATOM     16  C   LIG    1        6.692  -0.361   1.573  0.00  0.00    +0.420 C 
BRANCH  16  17
ATOM     17  C   LIG    1        7.536  -1.553   1.687  0.00  0.00    -0.210 A 
ATOM     18  C   LIG    1        7.018  -2.816   1.370  0.00  0.00    +0.100 A 
ATOM     19  C   LIG    1        7.807  -3.924   1.473  0.00  0.00    -0.030 A 
ATOM     20  C   LIG    1        9.127  -3.812   1.903  0.00  0.00    +0.170 A 
ATOM     21  C   LIG    1        9.655  -2.570   2.228  0.00  0.00    -0.050 A 
ATOM     22  C   LIG    1        8.868  -1.437   2.123  0.00  0.00    +0.190 A 
BRANCH  20  23
ATOM     23  O   LIG    1        9.899  -4.922   2.007  0.00  0.00    -0.490 OA
ATOM     24  H   LIG    1        9.859  -5.350   2.873  0.00  0.00    +0.400 HD
ENDBRANCH  20  23
BRANCH  22  25
ATOM     25  O   LIG    1        9.379  -0.221   2.439  0.00  0.00    -0.480 OA
ATOM     26  H   LIG    1        9.263   0.026   3.367  0.00  0.00    +0.400 HD
ENDBRANCH  22  25
ENDBRANCH  16  17
ENDBRANCH  14  16
ENDBRANCH  13  14
ENDBRANCH   1  13
BRANCH   5  27
ATOM     27  C   LIG    1        1.836   3.021   0.469  0.00  0.00    +0.370 C 
BRANCH  27  28
ATOM     28  C   LIG    1        2.186   3.692  -0.834  0.00  0.00    -0.130 A 
ATOM     29  C   LIG    1        3.424   3.477  -1.412  0.00  0.00    +0.030 A 
ATOM     30  C   LIG    1        3.743   4.089  -2.610  0.00  0.00    +0.020 A 
ATOM     31  C   LIG    1        2.829   4.924  -3.224  0.00  0.00    +0.030 A 
ATOM     32  C   LIG    1        1.593   5.144  -2.644  0.00  0.00    +0.010 A 
ATOM     33  C   LIG    1        1.272   4.527  -1.449  0.00  0.00    +0.020 A 
ENDBRANCH  27  28
ENDBRANCH   5  27
TORSDOF 9
