REMARK  Name = ZINCrg00000SjSpi.0
REMARK                            x       y       z     vdW  Elec       q    Type
REMARK                         _______ _______ _______ _____ _____    ______ ____
ROOT
ATOM      1  C   LIG    1        5.934   2.026   3.502  0.00  0.00    +0.060 C 
ATOM      2  C   LIG    1        6.724   1.516   2.295  0.00  0.00    +0.260 C 
ENDROOT
BRANCH   2   3
ATOM      3  N   LIG    1        5.831   1.405   1.139  0.00  0.00    -0.730 N 
ATOM      4  H   LIG    1        5.772   2.133   0.500  0.00  0.00    +0.410 HD
ATOM      5  C   LIG    1        5.092   0.293   0.962  0.00  0.00    +0.730 C 
ATOM      6  N   LIG    1        4.271   0.191  -0.102  0.00  0.00    -0.630 N 
ATOM      7  C   LIG    1        4.084   1.216  -1.146  0.00  0.00    +0.280 C 
ATOM      8  C   LIG    1        2.668   0.934  -1.726  0.00  0.00    +0.190 C 
ATOM      9  O   LIG    1        1.729   1.466  -0.790  0.00  0.00    -0.370 OA
ATOM     10  C   LIG    1        0.400   0.959  -0.901  0.00  0.00    +0.230 C 
ATOM     11  C   LIG    1        0.442  -0.557  -0.674  0.00  0.00    +0.150 C 
ATOM     12  N   LIG    1        1.299  -1.150  -1.708  0.00  0.00    -0.530 NA
ATOM     13  C   LIG    1        1.321  -2.615  -1.598  0.00  0.00    +0.200 C 
ATOM     14  C   LIG    1        2.646  -0.608  -1.700  0.00  0.00    +0.160 C 
ATOM     15  C   LIG    1        3.410  -0.962  -0.416  0.00  0.00    +0.250 C 
ATOM     16  O   LIG    1        5.166  -0.620   1.763  0.00  0.00    -0.590 OA
ENDBRANCH   2   3
BRANCH   2  17
ATOM     17  C   LIG    1        7.838   2.481   1.980  0.00  0.00    +0.530 C 
ATOM     18  N   LIG    1        8.876   2.612   2.829  0.00  0.00    -0.540 N 
ATOM     19  C   LIG    1        9.076   1.838   3.976  0.00  0.00    +0.140 A 
ATOM     20  C   LIG    1        8.296   0.802   4.492  0.00  0.00    -0.020 A 
ATOM     21  C   LIG    1        8.673   0.158   5.651  0.00  0.00    +0.050 A 
ATOM     22  C   LIG    1        9.829   0.534   6.312  0.00  0.00    -0.010 A 
ATOM     23  C   LIG    1       10.607   1.559   5.806  0.00  0.00    +0.060 A 
ATOM     24  C   LIG    1       10.232   2.207   4.645  0.00  0.00    -0.130 A 
ATOM     25  C   LIG    1       10.887   3.340   3.887  0.00  0.00    +0.090 C 
ATOM     26  C   LIG    1        9.965   3.581   2.680  0.00  0.00    +0.230 C 
ATOM     27  C   LIG    1       10.721   3.335   1.373  0.00  0.00    +0.040 C 
ATOM     28  O   LIG    1        7.799   3.139   0.962  0.00  0.00    -0.510 OA
ENDBRANCH   2  17
TORSDOF 2
