REMARK  Name = ZINCvU0000000C6b.0
REMARK                            x       y       z     vdW  Elec       q    Type
REMARK                         _______ _______ _______ _____ _____    ______ ____
ROOT
ATOM      1  C   LIG    1       -0.107   1.357  -0.223  0.00  0.00    +0.100 C 
ENDROOT
BRANCH   1   2
ATOM      2  C   LIG    1       -0.699   2.021  -1.439  0.00  0.00    +0.280 A 
ATOM      3  N   LIG    1       -0.810   1.466  -2.611  0.00  0.00    -0.430 NA
ATOM      4  C   LIG    1       -1.388   2.339  -3.476  0.00  0.00    +0.040 A 
ATOM      5  C   LIG    1       -1.738   2.267  -4.827  0.00  0.00    +0.070 A 
ATOM      6  C   LIG    1       -2.316   3.344  -5.438  0.00  0.00    +0.000 A 
ATOM      7  C   LIG    1       -2.561   4.512  -4.731  0.00  0.00    +0.030 A 
ATOM      8  C   LIG    1       -2.223   4.605  -3.397  0.00  0.00    +0.000 A 
ATOM      9  C   LIG    1       -1.635   3.522  -2.759  0.00  0.00    +0.050 A 
ATOM     10  N   LIG    1       -1.188   3.289  -1.474  0.00  0.00    -0.600 N 
ATOM     11  H   LIG    1       -1.218   3.914  -0.733  0.00  0.00    +0.420 HD
ENDBRANCH   1   2
BRANCH   1  12
ATOM     12  C   LIG    1       -0.840   1.822   1.009  0.00  0.00    +0.410 C 
ATOM     13  O   LIG    1       -0.456   2.803   1.609  0.00  0.00    -0.440 OA
BRANCH  12  18
ATOM     14  C   LIG    1       -5.457  -1.056   2.866  0.00  0.00    +0.100 C 
ATOM     15  C   LIG    1       -4.247  -0.302   2.380  0.00  0.00    -0.040 A 
ATOM     16  C   LIG    1       -3.811   0.818   3.067  0.00  0.00    -0.010 A 
ATOM     17  C   LIG    1       -2.704   1.513   2.628  0.00  0.00    +0.090 A 
ATOM     18  C   LIG    1       -2.022   1.085   1.485  0.00  0.00    -0.190 A 
ATOM     19  C   LIG    1       -2.471  -0.044   0.793  0.00  0.00    +0.080 A 
ATOM     20  C   LIG    1       -3.576  -0.732   1.248  0.00  0.00    +0.000 A 
ENDBRANCH  12  18
ENDBRANCH   1  12
BRANCH   1  21
ATOM     21  C   LIG    1        1.372   1.728  -0.107  0.00  0.00    +0.100 C 
BRANCH  21  22
ATOM     22  C   LIG    1        2.127   1.157  -1.280  0.00  0.00    +0.500 C 
ATOM     23  N   LIG    1        3.455   1.358  -1.389  0.00  0.00    -0.680 N 
ATOM     24  H   LIG    1        3.912   1.934  -0.757  0.00  0.00    +0.420 HD
ATOM     25  O   LIG    1        1.539   0.515  -2.125  0.00  0.00    -0.470 OA
BRANCH  23  26
ATOM     26  C   LIG    1        4.175   0.736  -2.417  0.00  0.00    +0.170 A 
ATOM     27  C   LIG    1        5.267   1.377  -2.986  0.00  0.00    +0.010 A 
ATOM     28  C   LIG    1        5.978   0.762  -3.999  0.00  0.00    +0.050 A 
ATOM     29  C   LIG    1        5.602  -0.492  -4.448  0.00  0.00    +0.050 A 
ATOM     30  C   LIG    1        4.511  -1.134  -3.881  0.00  0.00    +0.090 A 
ATOM     31  F   LIG    1        4.145  -2.359  -4.320  0.00  0.00    -0.120 F 
ATOM     32  F   LIG    1        6.298  -1.091  -5.439  0.00  0.00    -0.130 F 
ATOM     33  C   LIG    1        3.801  -0.524  -2.863  0.00  0.00    +0.030 A 
ENDBRANCH  23  26
ENDBRANCH  21  22
ENDBRANCH   1  21
TORSDOF 6
