REMARK  Name = ZINCrD0000071Q2R.0
REMARK                            x       y       z     vdW  Elec       q    Type
REMARK                         _______ _______ _______ _____ _____    ______ ____
ROOT
ATOM      1  C   LIG    1       -4.708   1.326  -0.707  0.00  0.00    +0.530 C 
ATOM      2  O   LIG    1       -4.745   0.191  -1.140  0.00  0.00    -0.490 OA
ENDROOT
BRANCH   1   3
ATOM      3  C   LIG    1       -5.873   2.205  -0.853  0.00  0.00    -0.100 A 
ATOM      4  C   LIG    1       -6.006   3.031  -1.989  0.00  0.00    +0.000 A 
ATOM      5  C   LIG    1       -5.038   3.023  -3.007  0.00  0.00    +0.000 A 
ATOM      6  C   LIG    1       -5.198   3.827  -4.093  0.00  0.00    +0.040 A 
ATOM      7  C   LIG    1       -6.307   4.661  -4.228  0.00  0.00    +0.010 A 
ATOM      8  C   LIG    1       -7.280   4.711  -3.281  0.00  0.00    +0.050 A 
ATOM      9  C   LIG    1       -7.175   3.902  -2.130  0.00  0.00    -0.060 A 
ATOM     10  C   LIG    1       -8.157   3.929  -1.140  0.00  0.00    +0.090 A 
ATOM     11  C   LIG    1       -8.031   3.119  -0.010  0.00  0.00    -0.060 A 
ATOM     12  C   LIG    1       -9.013   3.129   1.004  0.00  0.00    +0.050 A 
ATOM     13  C   LIG    1       -8.861   2.328   2.091  0.00  0.00    +0.010 A 
ATOM     14  C   LIG    1       -7.755   1.492   2.235  0.00  0.00    +0.040 A 
ATOM     15  C   LIG    1       -6.776   1.436   1.293  0.00  0.00    +0.000 A 
ATOM     16  C   LIG    1       -6.871   2.239   0.143  0.00  0.00    +0.000 A 
ENDBRANCH   1   3
BRANCH   1  17
ATOM     17  O   LIG    1       -3.596   1.777  -0.091  0.00  0.00    -0.320 OA
BRANCH  17  18
ATOM     18  C   LIG    1       -2.482   0.853   0.018  0.00  0.00    +0.190 C 
ATOM     19  C   LIG    1       -2.602   0.061   1.322  0.00  0.00    +0.080 C 
BRANCH  18  25
ATOM     20  N   LIG    1        2.323   0.998  -0.015  0.00  0.00    -0.740 N 
ATOM     21  H   LIG    1        2.336   0.028  -0.020  0.00  0.00    +0.400 HD
ATOM     22  C   LIG    1        1.147   1.655   0.000  0.00  0.00    +0.690 C 
ATOM     23  N   LIG    1       -0.011   0.966   0.007  0.00  0.00    -0.690 N 
ATOM     24  H   LIG    1        0.002  -0.004   0.002  0.00  0.00    +0.410 HD
ATOM     25  C   LIG    1       -1.187   1.624   0.017  0.00  0.00    +0.520 C 
ATOM     26  O   LIG    1       -1.204   2.836   0.023  0.00  0.00    -0.440 OA
ATOM     27  O   LIG    1        1.130   2.871   0.007  0.00  0.00    -0.530 OA
BRANCH  20  29
ATOM     28  C   LIG    1        4.758   0.769  -0.039  0.00  0.00    +0.030 C 
ATOM     29  C   LIG    1        3.582   1.747  -0.023  0.00  0.00    +0.270 C 
ENDBRANCH  20  29
ENDBRANCH  18  25
ENDBRANCH  17  18
ENDBRANCH   1  17
TORSDOF 5
