REMARK  Name = ZINCtj00001n1jVF.0
REMARK                            x       y       z     vdW  Elec       q    Type
REMARK                         _______ _______ _______ _____ _____    ______ ____
ROOT
ATOM      1  N   LIG    1       -3.357   1.426  -1.150  0.00  0.00    -0.550 N 
ATOM      2  C   LIG    1       -3.311   0.330  -1.935  0.00  0.00    +0.600 A 
ATOM      3  C   LIG    1       -3.909   0.367  -3.205  0.00  0.00    -0.170 A 
ATOM      4  C   LIG    1       -4.538   1.538  -3.626  0.00  0.00    +0.380 A 
ATOM      5  N   LIG    1       -4.552   2.632  -2.773  0.00  0.00    -0.510 N 
ATOM      6  C   LIG    1       -5.205   3.876  -3.188  0.00  0.00    +0.360 C 
ATOM      7  N   LIG    1       -5.018   1.318  -4.847  0.00  0.00    -0.510 NA
ATOM      8  C   LIG    1       -4.734   0.081  -5.227  0.00  0.00    +0.440 A 
ATOM      9  N   LIG    1       -4.877  -0.811  -6.257  0.00  0.00    -0.470 N 
ATOM     10  C   LIG    1       -4.264  -1.992  -5.883  0.00  0.00    +0.060 A 
ATOM     11  C   LIG    1       -4.181  -3.247  -6.714  0.00  0.00    +0.190 C 
ATOM     12  C   LIG    1       -3.763  -1.831  -4.662  0.00  0.00    +0.210 A 
ATOM     13  N   LIG    1       -4.048  -0.543  -4.241  0.00  0.00    -0.350 N 
ATOM     14  O   LIG    1       -2.756  -0.683  -1.546  0.00  0.00    -0.510 OA
ATOM     15  C   LIG    1       -3.970   2.549  -1.562  0.00  0.00    +0.710 A 
ATOM     16  O   LIG    1       -3.994   3.516  -0.825  0.00  0.00    -0.510 OA
ENDROOT
BRANCH   1  17
ATOM     17  C   LIG    1       -2.733   1.390   0.175  0.00  0.00    +0.400 C 
BRANCH  17  24
ATOM     18  C   LIG    1       -1.149   1.728   2.568  0.00  0.00    +0.100 C 
ATOM     19  C   LIG    1       -0.555   2.045   1.220  0.00  0.00    -0.070 A 
ATOM     20  C   LIG    1        0.747   2.502   1.129  0.00  0.00    +0.020 A 
ATOM     21  C   LIG    1        1.292   2.794  -0.107  0.00  0.00    +0.020 A 
ATOM     22  C   LIG    1        0.536   2.628  -1.252  0.00  0.00    +0.000 A 
ATOM     23  C   LIG    1       -0.765   2.170  -1.161  0.00  0.00    -0.010 A 
ATOM     24  C   LIG    1       -1.312   1.883   0.075  0.00  0.00    -0.100 A 
ENDBRANCH  17  24
ENDBRANCH   1  17
BRANCH   9  25
ATOM     25  C   LIG    1       -5.557  -0.558  -7.530  0.00  0.00    +0.350 C 
BRANCH  25  26
ATOM     26  C   LIG    1       -4.552  -0.009  -8.544  0.00  0.00    +0.250 C 
BRANCH  26  27
ATOM     27  N   LIG    1       -5.234   0.245  -9.821  0.00  0.00    -0.380 N 
ATOM     28  C   LIG    1       -4.248   0.659 -10.829  0.00  0.00    +0.330 C 
ATOM     29  C   LIG    1       -6.227   1.312  -9.641  0.00  0.00    +0.320 C 
ATOM     30  H   LIG    1       -5.697  -0.597 -10.128  0.00  0.00    +0.430 HD
ENDBRANCH  26  27
ENDBRANCH  25  26
ENDBRANCH   9  25
TORSDOF 5
