REMARK  Name = ZINCpe000000WShN.0
REMARK                            x       y       z     vdW  Elec       q    Type
REMARK                         _______ _______ _______ _____ _____    ______ ____
ROOT
ATOM      1  C   LIG    1       -4.656   2.506   4.894  0.00  0.00    +0.510 C 
ATOM      2  N   LIG    1       -5.461   3.168   5.749  0.00  0.00    -0.730 N 
ATOM      3  H   LIG    1       -5.712   4.087   5.566  0.00  0.00    +0.400 HD
ATOM      4  O   LIG    1       -4.342   1.357   5.122  0.00  0.00    -0.530 OA
ENDROOT
BRANCH   1   6
ATOM      5  C   LIG    1       -3.329   4.425   4.053  0.00  0.00    +0.060 C 
ATOM      6  C   LIG    1       -4.146   3.194   3.654  0.00  0.00    +0.240 C 
BRANCH   6   7
ATOM      7  N   LIG    1       -3.298   2.270   2.896  0.00  0.00    -0.710 N 
ATOM      8  H   LIG    1       -2.851   1.539   3.351  0.00  0.00    +0.410 HD
ATOM      9  C   LIG    1       -3.140   2.435   1.568  0.00  0.00    +0.530 C 
ATOM     10  O   LIG    1       -3.700   3.349   1.000  0.00  0.00    -0.540 OA
BRANCH   9  11
ATOM     11  C   LIG    1       -2.268   1.485   0.789  0.00  0.00    -0.010 C 
ATOM     12  C   LIG    1       -0.789   1.611   1.242  0.00  0.00    +0.030 C 
ATOM     13  C   LIG    1       -0.013   1.086   0.008  0.00  0.00    +0.020 C 
ATOM     14  C   LIG    1       -0.809   1.622  -1.200  0.00  0.00    +0.010 C 
ATOM     15  C   LIG    1       -2.243   1.875  -0.703  0.00  0.00    +0.040 C 
ENDBRANCH   9  11
ENDBRANCH   6   7
ENDBRANCH   1   6
BRANCH   2  16
ATOM     16  C   LIG    1       -5.956   2.499   6.955  0.00  0.00    +0.290 C 
BRANCH  16  17
ATOM     17  C   LIG    1       -6.842   3.464   7.746  0.00  0.00    +0.050 C 
BRANCH  17  18
ATOM     18  C   LIG    1       -7.351   2.776   8.986  0.00  0.00    +0.520 C 
ATOM     19  N   LIG    1       -8.156   3.438   9.841  0.00  0.00    -0.730 N 
ATOM     20  H   LIG    1       -8.407   4.357   9.658  0.00  0.00    +0.400 HD
ATOM     21  O   LIG    1       -7.037   1.627   9.214  0.00  0.00    -0.530 OA
BRANCH  19  22
ATOM     22  C   LIG    1       -8.652   2.769  11.046  0.00  0.00    +0.330 C 
BRANCH  22  23
ATOM     23  C   LIG    1       -9.524   3.719  11.826  0.00  0.00    -0.170 A 
ATOM     24  C   LIG    1       -8.973   4.540  12.798  0.00  0.00    +0.080 A 
ATOM     25  C   LIG    1       -9.813   5.403  13.486  0.00  0.00    -0.030 A 
ATOM     26  C   LIG    1      -11.163   5.408  13.190  0.00  0.00    +0.270 A 
ATOM     27  N   LIG    1      -11.653   4.609  12.262  0.00  0.00    -0.480 NA
ATOM     28  C   LIG    1      -10.883   3.780  11.584  0.00  0.00    +0.280 A 
ENDBRANCH  22  23
ENDBRANCH  19  22
ENDBRANCH  17  18
ENDBRANCH  16  17
ENDBRANCH   2  16
TORSDOF 8
