REMARK  Name = ZINCrg000000oYkP.0
REMARK                            x       y       z     vdW  Elec       q    Type
REMARK                         _______ _______ _______ _____ _____    ______ ____
ROOT
ATOM      1  N   LIG    1        3.572   3.195  -0.014  0.00  0.00    -0.540 N 
ATOM      2  C   LIG    1        3.549   1.853  -0.021  0.00  0.00    +0.710 A 
ATOM      3  N   LIG    1        2.407   1.145  -0.014  0.00  0.00    -0.640 N 
ATOM      4  H   LIG    1        2.443   0.175  -0.019  0.00  0.00    +0.440 HD
ATOM      5  C   LIG    1        1.176   1.787   0.000  0.00  0.00    +0.220 A 
ATOM      6  C   LIG    1       -0.013   1.076   0.008  0.00  0.00    -0.010 A 
ATOM      7  C   LIG    1       -1.219   1.754   0.017  0.00  0.00    +0.150 A 
ATOM      8  C   LIG    1       -1.249   3.144   0.030  0.00  0.00    +0.040 A 
ATOM      9  C   LIG    1       -0.073   3.867   0.022  0.00  0.00    +0.150 A 
ATOM     10  F   LIG    1       -2.435   3.791   0.044  0.00  0.00    -0.120 F 
ATOM     11  F   LIG    1       -2.377   1.059   0.019  0.00  0.00    -0.110 F 
ATOM     12  C   LIG    1        1.147   3.193   0.008  0.00  0.00    -0.180 A 
ATOM     13  O   LIG    1        4.606   1.253  -0.034  0.00  0.00    -0.530 OA
ATOM     14  C   LIG    1        2.430   3.916   0.001  0.00  0.00    +0.580 A 
ATOM     15  O   LIG    1        2.460   5.132   0.007  0.00  0.00    -0.480 OA
ENDROOT
BRANCH   1  16
ATOM     16  C   LIG    1        4.861   3.892  -0.022  0.00  0.00    +0.350 C 
BRANCH  16  19
ATOM     17  C   LIG    1        7.301   5.216  -0.591  0.00  0.00    +0.290 C 
ATOM     18  N   LIG    1        6.453   4.769  -1.699  0.00  0.00    -0.610 N 
ATOM     19  C   LIG    1        5.290   4.138  -1.446  0.00  0.00    +0.510 C 
ATOM     20  O   LIG    1        4.588   3.768  -2.363  0.00  0.00    -0.530 OA
BRANCH  18  21
ATOM     21  C   LIG    1        6.870   5.008  -3.083  0.00  0.00    +0.300 C 
BRANCH  21  22
ATOM     22  C   LIG    1        6.330   6.361  -3.552  0.00  0.00    +0.090 C 
BRANCH  22  23
ATOM     23  C   LIG    1        6.759   6.607  -4.975  0.00  0.00    +0.130 A 
ATOM     24  C   LIG    1        5.806   6.886  -5.937  0.00  0.00    -0.040 A 
ATOM     25  C   LIG    1        6.212   7.111  -7.244  0.00  0.00    +0.070 A 
ATOM     26  C   LIG    1        7.566   7.047  -7.535  0.00  0.00    -0.040 A 
ATOM     27  C   LIG    1        8.460   6.763  -6.521  0.00  0.00    +0.260 A 
ATOM     28  N   LIG    1        8.039   6.560  -5.288  0.00  0.00    -0.480 NA
ENDBRANCH  22  23
ENDBRANCH  21  22
ENDBRANCH  18  21
ENDBRANCH  16  19
ENDBRANCH   1  16
TORSDOF 5
