REMARK  Name = ZINCqH00000078SY.0
REMARK                            x       y       z     vdW  Elec       q    Type
REMARK                         _______ _______ _______ _____ _____    ______ ____
ROOT
ATOM      1  C   LIG    1       -1.510  -1.465   2.083  0.00  0.00    -0.020 C 
ATOM      2  C   LIG    1       -2.297  -2.399   1.160  0.00  0.00    +0.020 C 
ATOM      3  C   LIG    1       -1.562  -3.739   1.051  0.00  0.00    +0.280 C 
ATOM      4  N   LIG    1       -1.344  -4.271   2.403  0.00  0.00    -0.610 N 
ATOM      5  C   LIG    1       -0.677  -3.419   3.397  0.00  0.00    +0.250 C 
ATOM      6  C   LIG    1       -1.747  -5.515   2.725  0.00  0.00    +0.590 C 
ATOM      7  O   LIG    1       -2.406  -6.165   1.935  0.00  0.00    -0.520 OA
ATOM      8  C   LIG    1       -1.421  -2.082   3.480  0.00  0.00    +0.020 C 
ENDROOT
BRANCH   6   9
ATOM      9  C   LIG    1       -1.391  -6.088   4.030  0.00  0.00    -0.060 A 
ATOM     10  C   LIG    1       -2.069  -7.075   4.679  0.00  0.00    +0.110 A 
ATOM     11  C   LIG    1       -1.382  -7.320   5.892  0.00  0.00    -0.260 A 
ATOM     12  C   LIG    1       -0.304  -6.450   5.929  0.00  0.00    +0.280 A 
ATOM     13  N   LIG    1       -0.316  -5.714   4.808  0.00  0.00    -0.530 N 
ATOM     14  H   LIG    1        0.330  -5.027   4.580  0.00  0.00    +0.420 HD
BRANCH  11  15
ATOM     15  C   LIG    1       -1.746  -8.303   6.918  0.00  0.00    +0.420 C 
ATOM     16  O   LIG    1       -2.721  -9.008   6.764  0.00  0.00    -0.470 OA
ATOM     17  C   LIG    1       -0.908  -8.436   8.164  0.00  0.00    +0.060 C 
ENDBRANCH  11  15
ENDBRANCH   6   9
BRANCH   1  18
ATOM     18  C   LIG    1       -2.223  -0.114   2.167  0.00  0.00    +0.020 C 
BRANCH  18  19
ATOM     19  C   LIG    1       -2.202   0.560   0.794  0.00  0.00    +0.060 C 
BRANCH  19  23
ATOM     20  C   LIG    1       -4.191   4.335   1.029  0.00  0.00    +0.120 A 
ATOM     21  C   LIG    1       -2.827   4.253   1.266  0.00  0.00    -0.020 A 
ATOM     22  C   LIG    1       -2.187   3.031   1.190  0.00  0.00    +0.050 A 
ATOM     23  C   LIG    1       -2.904   1.891   0.877  0.00  0.00    -0.120 A 
ATOM     24  C   LIG    1       -4.263   1.972   0.634  0.00  0.00    +0.040 A 
ATOM     25  C   LIG    1       -4.909   3.190   0.715  0.00  0.00    -0.080 A 
BRANCH  20  27
ATOM     26  C   LIG    1       -6.230   5.545   0.846  0.00  0.00    +0.250 C 
ATOM     27  O   LIG    1       -4.824   5.536   1.103  0.00  0.00    -0.320 OA
ENDBRANCH  20  27
ENDBRANCH  19  23
ENDBRANCH  18  19
ENDBRANCH   1  18
TORSDOF 6
