REMARK  Name = ZINCpk00000FaHdF.0
REMARK                            x       y       z     vdW  Elec       q    Type
REMARK                         _______ _______ _______ _____ _____    ______ ____
ROOT
ATOM      1  O   LIG    1        5.930  -1.815  -0.065  0.00  0.00    -0.510 OA
ATOM      2  C   LIG    1        6.040  -0.608  -0.059  0.00  0.00    +0.530 C 
ATOM      3  N   LIG    1        7.264  -0.043  -0.067  0.00  0.00    -0.610 N 
ATOM      4  C   LIG    1        7.542   1.405  -0.068  0.00  0.00    +0.250 C 
ATOM      5  C   LIG    1        8.965   1.534   0.537  0.00  0.00    +0.090 C 
ATOM      6  C   LIG    1        9.668   0.287  -0.062  0.00  0.00    +0.210 C 
ATOM      7  C   LIG    1        8.543  -0.768  -0.084  0.00  0.00    +0.270 C 
ENDROOT
BRANCH   6   8
ATOM      8  C   LIG    1       10.803  -0.161   0.823  0.00  0.00    -0.020 A 
ATOM      9  N   LIG    1       11.188   0.386   1.954  0.00  0.00    -0.260 NA
ATOM     10  N   LIG    1       12.188  -0.280   2.414  0.00  0.00    -0.240 N 
ATOM     11  H   LIG    1       12.654  -0.074   3.240  0.00  0.00    +0.470 HD
ATOM     12  N   LIG    1       12.486  -1.255   1.631  0.00  0.00    -0.280 NA
ATOM     13  C   LIG    1       11.655  -1.248   0.613  0.00  0.00    +0.190 A 
ENDBRANCH   6   8
BRANCH   6  14
ATOM     14  O   LIG    1       10.137   0.554  -1.385  0.00  0.00    -0.530 OA
ATOM     15  H   LIG    1       10.517  -0.216  -1.831  0.00  0.00    +0.390 HD
ENDBRANCH   6  14
BRANCH   2  16
ATOM     16  C   LIG    1        4.809   0.262  -0.042  0.00  0.00    +0.250 C 
BRANCH  16  17
ATOM     17  O   LIG    1        3.643  -0.564  -0.036  0.00  0.00    -0.290 OA
BRANCH  17  18
ATOM     18  C   LIG    1        2.441   0.067  -0.020  0.00  0.00    +0.150 A 
ATOM     19  C   LIG    1        2.380   1.431  -0.012  0.00  0.00    -0.100 A 
ATOM     20  C   LIG    1        1.155   2.093   0.002  0.00  0.00    +0.050 A 
ATOM     21  C   LIG    1       -0.017   1.401   0.010  0.00  0.00    -0.010 A 
ATOM     22  C   LIG    1        0.002  -0.004   0.002  0.00  0.00    -0.020 A 
ATOM     23  C   LIG    1       -1.189  -0.750   0.009  0.00  0.00    +0.010 A 
ATOM     24  C   LIG    1       -1.132  -2.110   0.001  0.00  0.00    +0.030 A 
ATOM     25  C   LIG    1        0.092  -2.776  -0.015  0.00  0.00    +0.000 A 
ATOM     26  C   LIG    1        1.266  -2.086  -0.021  0.00  0.00    +0.050 A 
ATOM     27  C   LIG    1        1.246  -0.682  -0.013  0.00  0.00    -0.070 A 
ENDBRANCH  17  18
ENDBRANCH  16  17
ENDBRANCH   2  16
TORSDOF 5
