REMARK  Name = ZINCpk00000FaHdF.1
REMARK                            x       y       z     vdW  Elec       q    Type
REMARK                         _______ _______ _______ _____ _____    ______ ____
ROOT
ATOM      1  O   LIG    1        6.371  -0.586  -2.831  0.00  0.00    -0.510 OA
ATOM      2  C   LIG    1        6.467   0.464  -2.231  0.00  0.00    +0.540 C 
ATOM      3  N   LIG    1        5.427   0.924  -1.509  0.00  0.00    -0.610 N 
ATOM      4  C   LIG    1        5.407   2.176  -0.737  0.00  0.00    +0.250 C 
ATOM      5  C   LIG    1        4.024   2.273  -0.058  0.00  0.00    +0.090 C 
ATOM      6  C   LIG    1        3.548   0.797  -0.028  0.00  0.00    +0.210 C 
ATOM      7  C   LIG    1        4.120   0.258  -1.362  0.00  0.00    +0.260 C 
ENDROOT
BRANCH   6   8
ATOM      8  C   LIG    1        2.043   0.716  -0.014  0.00  0.00    -0.040 A 
ATOM      9  C   LIG    1        1.293  -0.411  -0.013  0.00  0.00    +0.170 A 
ATOM     10  N   LIG    1        0.002  -0.004   0.002  0.00  0.00    -0.390 N 
ATOM     11  H   LIG    1       -0.776  -0.583   0.006  0.00  0.00    +0.450 HD
ATOM     12  N   LIG    1       -0.015   1.283   0.009  0.00  0.00    -0.070 NA
ATOM     13  N   LIG    1        1.186   1.743   0.000  0.00  0.00    -0.240 NA
ENDBRANCH   6   8
BRANCH   6  14
ATOM     14  O   LIG    1        4.106   0.101   1.089  0.00  0.00    -0.530 OA
ATOM     15  H   LIG    1        3.875  -0.838   1.122  0.00  0.00    +0.380 HD
ENDBRANCH   6  14
BRANCH   2  16
ATOM     16  C   LIG    1        7.750   1.253  -2.294  0.00  0.00    +0.250 C 
BRANCH  16  17
ATOM     17  O   LIG    1        8.694   0.563  -3.115  0.00  0.00    -0.290 OA
BRANCH  17  18
ATOM     18  C   LIG    1        9.911   1.144  -3.277  0.00  0.00    +0.150 A 
ATOM     19  C   LIG    1       10.189   2.338  -2.673  0.00  0.00    -0.090 A 
ATOM     20  C   LIG    1       11.433   2.944  -2.825  0.00  0.00    +0.050 A 
ATOM     21  C   LIG    1       12.405   2.371  -3.587  0.00  0.00    -0.010 A 
ATOM     22  C   LIG    1       12.157   1.145  -4.229  0.00  0.00    -0.020 A 
ATOM     23  C   LIG    1       13.137   0.526  -5.022  0.00  0.00    +0.010 A 
ATOM     24  C   LIG    1       12.861  -0.660  -5.630  0.00  0.00    +0.030 A 
ATOM     25  C   LIG    1       11.619  -1.272  -5.477  0.00  0.00    +0.000 A 
ATOM     26  C   LIG    1       10.646  -0.701  -4.715  0.00  0.00    +0.050 A 
ATOM     27  C   LIG    1       10.894   0.522  -4.073  0.00  0.00    -0.070 A 
ENDBRANCH  17  18
ENDBRANCH  16  17
ENDBRANCH   2  16
TORSDOF 5
