REMARK  Name = ZINCpe000000VfTO.0
REMARK                            x       y       z     vdW  Elec       q    Type
REMARK                         _______ _______ _______ _____ _____    ______ ____
ROOT
ATOM      1  S   LIG    1        5.856   1.212  -0.026  0.00  0.00    +2.640 S 
ATOM      2  O   LIG    1        4.831   0.285   0.306  0.00  0.00    -0.870 OA
ATOM      3  O   LIG    1        5.916   2.528   0.506  0.00  0.00    -0.920 OA
ENDROOT
BRANCH   1   4
ATOM      4  C   LIG    1        7.382   0.436   0.391  0.00  0.00    -0.580 A 
ATOM      5  C   LIG    1        8.383   0.326  -0.557  0.00  0.00    +0.100 A 
ATOM      6  C   LIG    1        9.580  -0.282  -0.229  0.00  0.00    +0.080 A 
ATOM      7  C   LIG    1        9.777  -0.781   1.045  0.00  0.00    +0.060 A 
ATOM      8  C   LIG    1        8.776  -0.670   1.992  0.00  0.00    +0.140 A 
ATOM      9  C   LIG    1        7.581  -0.057   1.667  0.00  0.00    -0.570 A 
BRANCH   9  10
ATOM     10  S   LIG    1        6.308   0.090   2.876  0.00  0.00    +2.400 S 
ATOM     11  O   LIG    1        6.842  -0.551   4.027  0.00  0.00    -0.880 OA
ATOM     12  O   LIG    1        5.149  -0.415   2.228  0.00  0.00    -0.820 OA
BRANCH  10  13
ATOM     13  C   LIG    1        6.154   1.876   3.156  0.00  0.00    -0.050 C 
ATOM     14  F   LIG    1        4.910   2.315   2.692  0.00  0.00    -0.150 F 
ATOM     15  F   LIG    1        7.172   2.545   2.468  0.00  0.00    -0.150 F 
ENDBRANCH  10  13
ENDBRANCH   9  10
ENDBRANCH   1   4
BRANCH   1  19
ATOM     16  C   LIG    1        5.506   0.951  -4.043  0.00  0.00    +0.270 C 
ATOM     17  C   LIG    1        5.454   2.478  -3.769  0.00  0.00    +0.050 C 
ATOM     18  C   LIG    1        6.219   2.579  -2.426  0.00  0.00    +0.290 C 
ATOM     19  N   LIG    1        5.823   1.375  -1.674  0.00  0.00    -1.000 NA
ATOM     20  C   LIG    1        5.393   0.343  -2.629  0.00  0.00    +0.280 C 
BRANCH  16  22
ATOM     21  C   LIG    1        4.469   0.606  -6.220  0.00  0.00    +0.650 C 
ATOM     22  N   LIG    1        4.376   0.536  -4.878  0.00  0.00    -0.700 N 
ATOM     23  H   LIG    1        3.561   0.210  -4.464  0.00  0.00    +0.410 HD
ATOM     24  O   LIG    1        5.490   1.013  -6.738  0.00  0.00    -0.570 OA
BRANCH  21  26
ATOM     25  C   LIG    1        3.601   0.326  -8.426  0.00  0.00    +0.280 C 
ATOM     26  O   LIG    1        3.431   0.224  -6.987  0.00  0.00    -0.370 OA
ENDBRANCH  21  26
ENDBRANCH  16  22
ENDBRANCH   1  19
TORSDOF 6
