REMARK  Name = ZINCqH00000014Fi.0
REMARK                            x       y       z     vdW  Elec       q    Type
REMARK                         _______ _______ _______ _____ _____    ______ ____
ROOT
ATOM      1  N   LIG    1       -0.702   1.560   1.211  0.00  0.00    -0.700 N 
ATOM      2  H   LIG    1       -1.244   2.364   1.174  0.00  0.00    +0.410 HD
ENDROOT
BRANCH   1   9
ATOM      3  C   LIG    1        0.960  -2.070   3.977  0.00  0.00    +0.220 A 
ATOM      4  N   LIG    1        0.733  -2.296   5.248  0.00  0.00    -0.260 NA
ATOM      5  N   LIG    1       -0.039  -1.385   5.729  0.00  0.00    -0.250 NA
ATOM      6  C   LIG    1       -0.344  -0.522   4.773  0.00  0.00    +0.110 A 
ATOM      7  C   LIG    1       -1.133   0.643   4.729  0.00  0.00    +0.190 A 
ATOM      8  C   LIG    1       -1.246   1.321   3.556  0.00  0.00    -0.020 A 
ATOM      9  C   LIG    1       -0.579   0.858   2.405  0.00  0.00    +0.420 A 
ATOM     10  N   LIG    1        0.152  -0.232   2.444  0.00  0.00    -0.330 NA
ATOM     11  N   LIG    1        0.292  -0.949   3.634  0.00  0.00    -0.270 N 
BRANCH   3  13
ATOM     12  C   LIG    1        2.959  -2.060   2.509  0.00  0.00    +0.050 C 
ATOM     13  C   LIG    1        1.814  -2.911   3.063  0.00  0.00    +0.030 C 
ATOM     14  C   LIG    1        0.961  -3.434   1.906  0.00  0.00    +0.050 C 
ATOM     15  C   LIG    1        2.390  -4.092   3.847  0.00  0.00    +0.080 C 
ENDBRANCH   3  13
ENDBRANCH   1   9
BRANCH   1  16
ATOM     16  C   LIG    1       -0.013   1.086   0.008  0.00  0.00    +0.250 C 
ATOM     17  C   LIG    1        1.424   1.618  -0.003  0.00  0.00    -0.000 C 
ATOM     18  C   LIG    1        1.393   3.147  -0.074  0.00  0.00    +0.210 C 
ATOM     19  O   LIG    1        0.672   3.554  -1.239  0.00  0.00    -0.370 OA
ATOM     20  C   LIG    1       -0.691   3.125  -1.261  0.00  0.00    +0.200 C 
ATOM     21  C   LIG    1       -0.744   1.595  -1.238  0.00  0.00    +0.020 C 
BRANCH  20  22
ATOM     22  C   LIG    1       -1.357   3.632  -2.515  0.00  0.00    -0.090 A 
ATOM     23  C   LIG    1       -0.667   3.628  -3.713  0.00  0.00    +0.040 A 
ATOM     24  C   LIG    1       -1.279   4.090  -4.864  0.00  0.00    +0.000 A 
ATOM     25  C   LIG    1       -2.577   4.562  -4.814  0.00  0.00    +0.000 A 
ATOM     26  C   LIG    1       -3.265   4.570  -3.615  0.00  0.00    +0.000 A 
ATOM     27  C   LIG    1       -2.654   4.105  -2.465  0.00  0.00    +0.010 A 
ENDBRANCH  20  22
ENDBRANCH   1  16
TORSDOF 4
