REMARK  Name = ZINCqH0000004ucv.0
REMARK                            x       y       z     vdW  Elec       q    Type
REMARK                         _______ _______ _______ _____ _____    ______ ____
ROOT
ATOM      1  C   LIG    1        4.090   9.996   0.013  0.00  0.00    +0.320 C 
ATOM      2  C   LIG    1        5.028  10.610  -1.014  0.00  0.00    -0.110 A 
ATOM      3  C   LIG    1        6.024   9.913  -1.593  0.00  0.00    -0.180 A 
ATOM      4  S   LIG    1        6.904  10.948  -2.710  0.00  0.00    +0.110 S 
ATOM      5  C   LIG    1        5.852  12.305  -2.337  0.00  0.00    -0.040 A 
ATOM      6  C   LIG    1        6.339   8.457  -1.325  0.00  0.00    +0.110 C 
ATOM      7  C   LIG    1        5.681   8.038  -0.006  0.00  0.00    +0.290 C 
ATOM      8  C   LIG    1        4.945  11.931  -1.440  0.00  0.00    +0.020 A 
ATOM      9  N   LIG    1        4.300   8.542   0.009  0.00  0.00    -0.600 N 
ATOM     10  C   LIG    1        3.254   7.692   0.014  0.00  0.00    +0.520 C 
ATOM     11  O   LIG    1        2.121   8.125   0.027  0.00  0.00    -0.500 OA
ENDROOT
BRANCH   1  13
ATOM     12  C   LIG    1        3.403  10.009   2.416  0.00  0.00    +0.020 C 
ATOM     13  C   LIG    1        4.405  10.562   1.400  0.00  0.00    +0.020 C 
ENDBRANCH   1  13
BRANCH  10  14
ATOM     14  C   LIG    1        3.492   6.204   0.003  0.00  0.00    +0.240 C 
BRANCH  14  15
ATOM     15  O   LIG    1        2.237   5.521   0.011  0.00  0.00    -0.280 OA
BRANCH  15  16
ATOM     16  C   LIG    1        2.274   4.164   0.003  0.00  0.00    +0.190 A 
ATOM     17  C   LIG    1        3.502   3.506  -0.012  0.00  0.00    -0.090 A 
ATOM     18  C   LIG    1        3.556   2.142  -0.020  0.00  0.00    +0.140 A 
ATOM     19  C   LIG    1        2.370   1.400  -0.013  0.00  0.00    -0.200 A 
ATOM     20  C   LIG    1        2.397  -0.065  -0.021  0.00  0.00    +0.160 A 
ATOM     21  C   LIG    1        1.212  -0.728  -0.013  0.00  0.00    -0.080 A 
ATOM     22  C   LIG    1        0.002  -0.004   0.002  0.00  0.00    +0.510 A 
ATOM     23  O   LIG    1       -0.016   1.338   0.009  0.00  0.00    -0.270 OA
ATOM     24  O   LIG    1       -1.053  -0.612   0.009  0.00  0.00    -0.460 OA
ATOM     25  C   LIG    1        1.126   2.058   0.002  0.00  0.00    +0.190 A 
ATOM     26  C   LIG    1        1.090   3.444   0.010  0.00  0.00    -0.010 A 
ENDBRANCH  15  16
ENDBRANCH  14  15
ENDBRANCH  10  14
TORSDOF 4
