REMARK  Name = ZINCrH000004lBmE.0
REMARK                            x       y       z     vdW  Elec       q    Type
REMARK                         _______ _______ _______ _____ _____    ______ ____
ROOT
ATOM      1  C   LIG    1       -4.868   0.898   0.263  0.00  0.00    +0.270 C 
ENDROOT
BRANCH   1   4
ATOM      2  N   LIG    1       -2.411   1.074   0.493  0.00  0.00    -0.670 N 
ATOM      3  H   LIG    1       -2.397   0.137   0.741  0.00  0.00    +0.420 HD
ATOM      4  C   LIG    1       -3.574   1.663   0.150  0.00  0.00    +0.520 C 
ATOM      5  O   LIG    1       -3.580   2.808  -0.249  0.00  0.00    -0.510 OA
BRANCH   2   9
ATOM      6  C   LIG    1        1.123   3.279   0.488  0.00  0.00    -0.110 A 
ATOM      7  C   LIG    1       -0.075   3.897   0.795  0.00  0.00    +0.050 A 
ATOM      8  C   LIG    1       -1.249   3.170   0.794  0.00  0.00    +0.020 A 
ATOM      9  C   LIG    1       -1.224   1.815   0.489  0.00  0.00    +0.150 A 
ATOM     10  C   LIG    1       -0.020   1.198   0.176  0.00  0.00    -0.020 A 
ATOM     11  C   LIG    1        1.150   1.931   0.178  0.00  0.00    +0.050 A 
BRANCH   6  12
ATOM     12  C   LIG    1        2.402   4.076   0.489  0.00  0.00    +0.220 C 
BRANCH  12  14
ATOM     13  C   LIG    1        4.213   4.761   1.903  0.00  0.00    +0.200 C 
ATOM     14  O   LIG    1        2.989   4.033   1.792  0.00  0.00    -0.390 OA
ENDBRANCH  12  14
ENDBRANCH   6  12
ENDBRANCH   2   9
ENDBRANCH   1   4
BRANCH   1  15
ATOM     15  N   LIG    1       -5.991   1.838   0.280  0.00  0.00    -0.690 N 
ATOM     16  H   LIG    1       -5.897   2.714  -0.125  0.00  0.00    +0.420 HD
ATOM     17  C   LIG    1       -7.156   1.486   0.860  0.00  0.00    +0.650 C 
ATOM     18  O   LIG    1       -7.275   0.389   1.368  0.00  0.00    -0.560 OA
BRANCH  17  19
ATOM     19  O   LIG    1       -8.188   2.350   0.875  0.00  0.00    -0.360 OA
BRANCH  19  20
ATOM     20  C   LIG    1       -9.412   1.904   1.517  0.00  0.00    +0.290 C 
BRANCH  20  21
ATOM     21  C   LIG    1      -10.448   2.995   1.437  0.00  0.00    -0.100 A 
ATOM     22  C   LIG    1      -10.541   3.934   2.447  0.00  0.00    +0.030 A 
ATOM     23  C   LIG    1      -11.488   4.939   2.373  0.00  0.00    +0.010 A 
ATOM     24  C   LIG    1      -12.349   4.998   1.292  0.00  0.00    +0.020 A 
ATOM     25  C   LIG    1      -12.259   4.056   0.285  0.00  0.00    +0.010 A 
ATOM     26  C   LIG    1      -11.309   3.054   0.357  0.00  0.00    +0.030 A 
ENDBRANCH  20  21
ENDBRANCH  19  20
ENDBRANCH  17  19
ENDBRANCH   1  15
BRANCH   1  27
ATOM     27  C   LIG    1       -5.010  -0.044  -0.934  0.00  0.00    -0.010 C 
ATOM     28  C   LIG    1       -5.147   0.779  -2.217  0.00  0.00    +0.030 C 
ATOM     29  C   LIG    1       -6.253  -0.916  -0.752  0.00  0.00    +0.050 C 
ENDBRANCH   1  27
TORSDOF 9
