REMARK  Name = ZINCtV00000L6kUq.0
REMARK                            x       y       z     vdW  Elec       q    Type
REMARK                         _______ _______ _______ _____ _____    ______ ____
ROOT
ATOM      1  N   LIG    1       -1.038   2.467   0.392  0.00  0.00    -0.470 N 
ATOM      2  C   LIG    1       -1.078   3.811   0.308  0.00  0.00    +0.560 C 
ATOM      3  O   LIG    1       -0.110   4.424  -0.097  0.00  0.00    -0.460 OA
ENDROOT
BRANCH   1   4
ATOM      4  C   LIG    1       -2.184   1.754   0.761  0.00  0.00    +0.090 A 
ATOM      5  C   LIG    1       -3.000   1.194  -0.214  0.00  0.00    -0.070 A 
ATOM      6  C   LIG    1       -4.127   0.486   0.154  0.00  0.00    +0.010 A 
ATOM      7  C   LIG    1       -4.451   0.344   1.491  0.00  0.00    +0.040 A 
ATOM      8  C   LIG    1       -3.644   0.905   2.464  0.00  0.00    +0.010 A 
ATOM      9  C   LIG    1       -2.651   1.353  -1.671  0.00  0.00    +0.100 C 
ATOM     10  C   LIG    1       -2.512   1.609   2.103  0.00  0.00    -0.050 A 
ATOM     11  C   LIG    1       -1.633   2.220   3.164  0.00  0.00    +0.100 C 
ENDBRANCH   1   4
BRANCH   2  12
ATOM     12  C   LIG    1       -2.299   4.540   0.709  0.00  0.00    -0.130 A 
ATOM     13  C   LIG    1       -3.553   4.091   0.290  0.00  0.00    +0.040 A 
ATOM     14  C   LIG    1       -4.689   4.773   0.672  0.00  0.00    +0.010 A 
ATOM     15  C   LIG    1       -4.588   5.906   1.460  0.00  0.00    +0.040 A 
ATOM     16  C   LIG    1       -3.348   6.360   1.873  0.00  0.00    +0.010 A 
ATOM     17  C   LIG    1       -2.204   5.684   1.503  0.00  0.00    +0.060 A 
ENDBRANCH   2  12
BRANCH   1  21
ATOM     18  C   LIG    1        2.285   1.535  -0.477  0.00  0.00    +0.140 A 
ATOM     19  C   LIG    1        2.035   0.223  -0.313  0.00  0.00    -0.080 A 
ATOM     20  S   LIG    1        0.352   0.041   0.176  0.00  0.00    +0.100 S 
ATOM     21  C   LIG    1        0.142   1.788   0.111  0.00  0.00    +0.310 A 
ATOM     22  N   LIG    1        1.260   2.342  -0.244  0.00  0.00    -0.460 NA
BRANCH  18  27
ATOM     23  C   LIG    1        7.454   3.507  -2.076  0.00  0.00    +0.090 C 
ATOM     24  C   LIG    1        6.101   2.991  -1.657  0.00  0.00    -0.080 A 
ATOM     25  C   LIG    1        5.066   3.879  -1.428  0.00  0.00    +0.010 A 
ATOM     26  C   LIG    1        3.825   3.412  -1.045  0.00  0.00    +0.060 A 
ATOM     27  C   LIG    1        3.616   2.043  -0.889  0.00  0.00    -0.030 A 
ATOM     28  C   LIG    1        4.665   1.153  -1.116  0.00  0.00    +0.020 A 
ATOM     29  C   LIG    1        5.900   1.631  -1.504  0.00  0.00    +0.010 A 
ENDBRANCH  18  27
ENDBRANCH   1  21
TORSDOF 4
