REMARK  Name = ZINCb70000002AwX.0
REMARK                            x       y       z     vdW  Elec       q    Type
REMARK                         _______ _______ _______ _____ _____    ______ ____
ROOT
ATOM      1  C   LIG    1       -2.550  -0.097   0.624  0.00  0.00    -0.470 C 
ATOM      2  C   LIG    1       -1.754   0.554   1.770  0.00  0.00    +0.080 C 
ATOM      3  C   LIG    1       -0.722   1.574   1.246  0.00  0.00    +0.050 C 
ATOM      4  C   LIG    1       -0.013   1.086   0.008  0.00  0.00    +0.060 C 
ATOM      5  C   LIG    1       -0.762   1.599  -1.239  0.00  0.00    +0.230 C 
ATOM      6  N   LIG    1       -1.906   0.845  -1.509  0.00  0.00    -0.480 N 
ATOM      7  H   LIG    1       -1.636  -0.119  -1.637  0.00  0.00    +0.430 HD
ATOM      8  H   LIG    1       -2.321   1.181  -2.365  0.00  0.00    +0.440 HD
ATOM      9  C   LIG    1       -2.917   0.912  -0.435  0.00  0.00    +0.320 C 
ENDROOT
BRANCH   1  11
ATOM     10  C   LIG    1       -3.419  -1.874   2.631  0.00  0.00    -0.240 C 
ATOM     11  S   LIG    1       -4.067  -0.830   1.296  0.00  0.00    +2.430 S 
ATOM     12  O   LIG    1       -4.644  -1.668   0.304  0.00  0.00    -0.920 OA
ATOM     13  O   LIG    1       -4.853   0.205   1.873  0.00  0.00    -0.910 OA
ENDBRANCH   1  11
TORSDOF 1
