REMARK  Name = ZINCtV00000L6jya.0
REMARK                            x       y       z     vdW  Elec       q    Type
REMARK                         _______ _______ _______ _____ _____    ______ ____
ROOT
ATOM      1  P   LIG    1        2.426  -0.535  -0.024  0.00  0.00    +2.420 P 
ATOM      2  O   LIG    1        3.829  -1.007  -0.040  0.00  0.00    -1.010 OA
ENDROOT
BRANCH   1   3
ATOM      3  N   LIG    1        2.401   1.105  -0.015  0.00  0.00    -1.090 N 
ATOM      4  H   LIG    1        3.234   1.603  -0.020  0.00  0.00    +0.430 HD
BRANCH   3  10
ATOM      5  C   LIG    1        1.155   3.179   0.008  0.00  0.00    +0.090 A 
ATOM      6  C   LIG    1       -0.057   3.848   0.022  0.00  0.00    -0.030 A 
ATOM      7  C   LIG    1       -1.242   3.133   0.030  0.00  0.00    +0.020 A 
ATOM      8  C   LIG    1       -1.219   1.751   0.017  0.00  0.00    +0.030 A 
ATOM      9  C   LIG    1       -0.013   1.076   0.008  0.00  0.00    -0.040 A 
ATOM     10  C   LIG    1        1.179   1.786   0.000  0.00  0.00    +0.150 A 
BRANCH   5  12
ATOM     11  C   LIG    1        2.220   5.306   0.009  0.00  0.00    +0.250 C 
ATOM     12  O   LIG    1        2.321   3.881   0.001  0.00  0.00    -0.320 OA
ENDBRANCH   5  12
ENDBRANCH   3  10
ENDBRANCH   1   3
BRANCH   1  13
ATOM     13  O   LIG    1        1.663  -1.076  -1.334  0.00  0.00    -0.640 OA
BRANCH  13  14
ATOM     14  C   LIG    1        2.375  -0.940  -2.484  0.00  0.00    +0.090 A 
ATOM     15  C   LIG    1        3.437  -1.793  -2.749  0.00  0.00    +0.030 A 
ATOM     16  C   LIG    1        4.159  -1.653  -3.918  0.00  0.00    +0.040 A 
ATOM     17  C   LIG    1        3.824  -0.664  -4.825  0.00  0.00    +0.020 A 
ATOM     18  C   LIG    1        2.765   0.187  -4.563  0.00  0.00    -0.080 A 
ATOM     19  C   LIG    1        2.402   1.264  -5.553  0.00  0.00    +0.090 C 
ATOM     20  C   LIG    1        2.037   0.048  -3.398  0.00  0.00    -0.090 A 
ATOM     21  C   LIG    1        0.880   0.971  -3.116  0.00  0.00    +0.100 C 
ENDBRANCH  13  14
ENDBRANCH   1  13
BRANCH   1  22
ATOM     22  O   LIG    1        1.688  -1.090   1.295  0.00  0.00    -0.640 OA
BRANCH  22  23
ATOM     23  C   LIG    1        2.375  -0.870   2.447  0.00  0.00    +0.100 A 
ATOM     24  C   LIG    1        2.412   0.401   3.001  0.00  0.00    -0.030 A 
ATOM     25  C   LIG    1        3.111   0.622   4.172  0.00  0.00    +0.030 A 
ATOM     26  C   LIG    1        3.773  -0.422   4.792  0.00  0.00    +0.010 A 
ATOM     27  C   LIG    1        3.737  -1.690   4.241  0.00  0.00    -0.070 A 
ATOM     28  C   LIG    1        4.459  -2.826   4.919  0.00  0.00    +0.100 C 
ATOM     29  C   LIG    1        3.035  -1.917   3.073  0.00  0.00    -0.070 A 
ATOM     30  C   LIG    1        2.991  -3.301   2.477  0.00  0.00    +0.110 C 
ENDBRANCH  22  23
ENDBRANCH   1  22
TORSDOF 7
