REMARK  Name = ZINCpk00000kduDK.0
REMARK                            x       y       z     vdW  Elec       q    Type
REMARK                         _______ _______ _______ _____ _____    ______ ____
ROOT
ATOM      1  C   LIG    1       -1.730   2.276   1.444  0.00  0.00    +0.500 C 
ATOM      2  N   LIG    1       -2.887   2.917   1.699  0.00  0.00    -0.610 N 
ATOM      3  C   LIG    1       -3.735   3.397   0.599  0.00  0.00    +0.280 C 
ATOM      4  C   LIG    1       -4.021   4.884   0.804  0.00  0.00    +0.030 C 
ATOM      5  C   LIG    1       -4.616   5.100   2.197  0.00  0.00    +0.070 C 
ATOM      6  C   LIG    1       -3.610   4.649   3.259  0.00  0.00    +0.020 C 
ATOM      7  C   LIG    1       -3.322   3.154   3.082  0.00  0.00    +0.280 C 
ATOM      8  O   LIG    1       -1.036   1.889   2.360  0.00  0.00    -0.520 OA
ENDROOT
BRANCH   5   9
ATOM      9  C   LIG    1       -4.927   6.562   2.389  0.00  0.00    +0.100 A 
ATOM     10  C   LIG    1       -6.123   7.158   2.176  0.00  0.00    -0.120 A 
ATOM     11  C   LIG    1       -5.985   8.518   2.472  0.00  0.00    +0.080 A 
ATOM     12  N   LIG    1       -4.750   8.730   2.850  0.00  0.00    -0.290 NA
ATOM     13  C   LIG    1       -7.071   9.558   2.374  0.00  0.00    +0.150 C 
ATOM     14  N   LIG    1       -4.064   7.510   2.811  0.00  0.00    -0.470 N 
ATOM     15  H   LIG    1       -3.133   7.371   3.044  0.00  0.00    +0.440 HD
ENDBRANCH   5   9
BRANCH   1  16
ATOM     16  C   LIG    1       -1.297   2.040   0.019  0.00  0.00    +0.310 C 
BRANCH  16  22
ATOM     17  C   LIG    1        1.321  -0.748  -0.009  0.00  0.00    +0.170 C 
ATOM     18  C   LIG    1        1.980  -0.588   1.364  0.00  0.00    +0.060 C 
ATOM     19  C   LIG    1        2.770   0.706   1.433  0.00  0.00    +0.010 C 
ATOM     20  C   LIG    1        1.908   1.954   1.373  0.00  0.00    +0.030 C 
ATOM     21  C   LIG    1        1.243   2.092   0.001  0.00  0.00    +0.280 C 
ATOM     22  N   LIG    1       -0.016   1.329   0.009  0.00  0.00    -0.590 N 
ATOM     23  C   LIG    1        0.002  -0.004   0.002  0.00  0.00    +0.500 C 
ATOM     24  O   LIG    1       -1.041  -0.623   0.004  0.00  0.00    -0.530 OA
BRANCH  17  26
ATOM     25  C   LIG    1        1.112  -2.469  -1.664  0.00  0.00    +0.200 C 
ATOM     26  O   LIG    1        1.089  -2.133  -0.275  0.00  0.00    -0.360 OA
ENDBRANCH  17  26
ENDBRANCH  16  22
ENDBRANCH   1  16
TORSDOF 4
