REMARK  Name = ZINCpk00000kduDK.1
REMARK                            x       y       z     vdW  Elec       q    Type
REMARK                         _______ _______ _______ _____ _____    ______ ____
ROOT
ATOM      1  C   LIG    1       -7.415   4.018   2.468  0.00  0.00    +0.500 C 
ATOM      2  N   LIG    1       -6.291   3.566   3.056  0.00  0.00    -0.610 N 
ATOM      3  C   LIG    1       -5.262   4.504   3.527  0.00  0.00    +0.280 C 
ATOM      4  C   LIG    1       -3.915   4.105   2.916  0.00  0.00    +0.030 C 
ATOM      5  C   LIG    1       -3.625   2.639   3.244  0.00  0.00    +0.090 C 
ATOM      6  C   LIG    1       -4.713   1.753   2.633  0.00  0.00    +0.030 C 
ATOM      7  C   LIG    1       -6.069   2.125   3.240  0.00  0.00    +0.280 C 
ATOM      8  O   LIG    1       -7.587   5.210   2.322  0.00  0.00    -0.530 OA
ENDROOT
BRANCH   5   9
ATOM      9  C   LIG    1       -2.284   2.253   2.675  0.00  0.00    +0.090 A 
ATOM     10  N   LIG    1       -1.145   2.265   3.318  0.00  0.00    -0.290 NA
ATOM     11  N   LIG    1       -0.141   1.839   2.438  0.00  0.00    -0.480 N 
ATOM     12  H   LIG    1        0.802   1.751   2.648  0.00  0.00    +0.440 HD
ATOM     13  C   LIG    1       -0.718   1.572   1.248  0.00  0.00    +0.090 A 
ATOM     14  C   LIG    1       -0.013   1.086   0.008  0.00  0.00    +0.140 C 
ATOM     15  C   LIG    1       -2.042   1.824   1.365  0.00  0.00    -0.120 A 
ENDBRANCH   5   9
BRANCH   1  16
ATOM     16  C   LIG    1       -8.461   3.043   1.991  0.00  0.00    +0.310 C 
BRANCH  16  22
ATOM     17  C   LIG    1      -10.710   4.824  -0.539  0.00  0.00    +0.160 C 
ATOM     18  C   LIG    1      -10.642   6.277  -0.063  0.00  0.00    +0.060 C 
ATOM     19  C   LIG    1      -11.337   6.437   1.277  0.00  0.00    +0.010 C 
ATOM     20  C   LIG    1      -10.639   5.720   2.419  0.00  0.00    +0.020 C 
ATOM     21  C   LIG    1      -10.711   4.198   2.233  0.00  0.00    +0.280 C 
ATOM     22  N   LIG    1       -9.578   3.779   1.392  0.00  0.00    -0.590 N 
ATOM     23  C   LIG    1       -9.563   4.060   0.089  0.00  0.00    +0.500 C 
ATOM     24  O   LIG    1       -8.629   3.701  -0.597  0.00  0.00    -0.530 OA
BRANCH  17  26
ATOM     25  C   LIG    1      -11.262   3.670  -2.566  0.00  0.00    +0.200 C 
ATOM     26  O   LIG    1      -10.594   4.780  -1.963  0.00  0.00    -0.360 OA
ENDBRANCH  17  26
ENDBRANCH  16  22
ENDBRANCH   1  16
TORSDOF 4
