REMARK  Name = ZINCvU00000005Mh.0
REMARK                            x       y       z     vdW  Elec       q    Type
REMARK                         _______ _______ _______ _____ _____    ______ ____
ROOT
ATOM      1  C   LIG    1        5.199   0.729  -1.694  0.00  0.00    +0.010 A 
ATOM      2  C   LIG    1        4.828  -0.620  -1.542  0.00  0.00    -0.200 A 
ATOM      3  C   LIG    1        5.810  -1.571  -1.224  0.00  0.00    +0.300 A 
ATOM      4  O   LIG    1        5.190  -2.766  -1.138  0.00  0.00    -0.070 OA
ATOM      5  N   LIG    1        3.809  -2.603  -1.392  0.00  0.00    -0.260 NA
ATOM      6  N   LIG    1        7.071  -1.196  -1.070  0.00  0.00    -0.460 NA
ATOM      7  C   LIG    1        7.448   0.057  -1.206  0.00  0.00    +0.240 A 
ATOM      8  C   LIG    1        3.555  -1.346  -1.641  0.00  0.00    +0.200 A 
ATOM      9  C   LIG    1        6.543   1.058  -1.519  0.00  0.00    -0.010 A 
ENDROOT
BRANCH   8  10
ATOM     10  C   LIG    1        2.230  -0.761  -1.959  0.00  0.00    -0.040 A 
ATOM     11  C   LIG    1        2.102   0.158  -3.000  0.00  0.00    +0.050 A 
ATOM     12  C   LIG    1        0.866   0.698  -3.291  0.00  0.00    +0.010 A 
ATOM     13  C   LIG    1       -0.245   0.330  -2.553  0.00  0.00    +0.040 A 
ATOM     14  C   LIG    1       -0.124  -0.582  -1.519  0.00  0.00    +0.010 A 
ATOM     15  C   LIG    1        1.107  -1.129  -1.219  0.00  0.00    +0.060 A 
ENDBRANCH   8  10
BRANCH   1  17
ATOM     16  O   LIG    1        3.119   1.772  -1.465  0.00  0.00    -0.490 OA
ATOM     17  C   LIG    1        4.195   1.764  -2.029  0.00  0.00    +0.560 C 
ATOM     18  N   LIG    1        4.476   2.698  -2.959  0.00  0.00    -0.720 N 
ATOM     19  H   LIG    1        5.335   2.692  -3.409  0.00  0.00    +0.410 HD
BRANCH  18  20
ATOM     20  C   LIG    1        3.483   3.723  -3.291  0.00  0.00    +0.410 C 
BRANCH  20  21
ATOM     21  C   LIG    1        4.039   4.638  -4.351  0.00  0.00    +0.060 A 
ATOM     22  N   LIG    1        3.912   4.443  -5.609  0.00  0.00    -0.440 NA
ATOM     23  C   LIG    1        4.459   5.347  -6.444  0.00  0.00    +0.070 A 
ATOM     24  C   LIG    1        4.465   5.382  -7.853  0.00  0.00    +0.080 A 
ATOM     25  C   LIG    1        5.089   6.396  -8.515  0.00  0.00    +0.030 A 
ATOM     26  C   LIG    1        5.727   7.412  -7.818  0.00  0.00    +0.050 A 
ATOM     27  C   LIG    1        5.736   7.404  -6.441  0.00  0.00    +0.060 A 
ATOM     28  C   LIG    1        5.104   6.375  -5.747  0.00  0.00    -0.180 A 
ATOM     29  S   LIG    1        4.925   6.059  -4.024  0.00  0.00    +0.130 S 
ENDBRANCH  20  21
ENDBRANCH  18  20
ENDBRANCH   1  17
BRANCH   7  30
ATOM     30  C   LIG    1        8.901   0.412  -1.018  0.00  0.00    +0.020 C 
ATOM     31  C   LIG    1        9.370   1.769  -1.545  0.00  0.00    +0.040 C 
ATOM     32  C   LIG    1        9.779   0.483  -2.268  0.00  0.00    +0.060 C 
ENDBRANCH   7  30
TORSDOF 5
