REMARK  Name = ZINCkj000005jAy1.1
REMARK                            x       y       z     vdW  Elec       q    Type
REMARK                         _______ _______ _______ _____ _____    ______ ____
ROOT
ATOM      1  C   LIG    1       -0.443   2.006   6.135  0.00  0.00    +0.030 C 
ATOM      2  C   LIG    1        0.046   1.216   4.920  0.00  0.00    +0.250 C 
ENDROOT
BRANCH   2   3
ATOM      3  N   LIG    1       -0.290  -0.200   5.091  0.00  0.00    -0.710 N 
ATOM      4  H   LIG    1       -1.105  -0.555   4.704  0.00  0.00    +0.410 HD
BRANCH   3   5
ATOM      5  C   LIG    1        0.556  -1.030   5.806  0.00  0.00    +0.450 A 
ATOM      6  N   LIG    1        1.671  -0.543   6.328  0.00  0.00    -0.540 NA
ATOM      7  C   LIG    1        2.502  -1.298   7.020  0.00  0.00    +0.350 A 
ATOM      8  C   LIG    1        2.250  -2.643   7.222  0.00  0.00    -0.080 A 
ATOM      9  C   LIG    1        1.102  -3.208   6.694  0.00  0.00    +0.170 A 
ATOM     10  C   LIG    1        0.231  -2.388   5.968  0.00  0.00    -0.150 A 
BRANCH  10  11
ATOM     11  C   LIG    1       -0.971  -2.923   5.401  0.00  0.00    +0.250 C 
ATOM     12  N   LIG    1       -1.924  -3.346   4.952  0.00  0.00    -0.410 NA
ENDBRANCH  10  11
ENDBRANCH   3   5
ENDBRANCH   2   3
BRANCH   2  13
ATOM     13  C   LIG    1       -0.631   1.751   3.657  0.00  0.00    +0.020 C 
BRANCH  13  14
ATOM     14  C   LIG    1       -0.051   1.046   2.429  0.00  0.00    +0.200 C 
BRANCH  14  15
ATOM     15  N   LIG    1       -0.702   1.560   1.216  0.00  0.00    -0.540 NA
ATOM     16  C   LIG    1       -0.013   1.086   0.008  0.00  0.00    +0.200 C 
ATOM     17  C   LIG    1       -0.754   1.593  -1.231  0.00  0.00    +0.280 C 
ATOM     18  N   LIG    1       -0.791   3.062  -1.212  0.00  0.00    -0.390 N 
ATOM     19  C   LIG    1       -1.504   3.520  -0.013  0.00  0.00    +0.280 C 
ATOM     20  C   LIG    1       -1.487   3.549  -2.411  0.00  0.00    +0.310 C 
ATOM     21  H   LIG    1        0.151   3.421  -1.201  0.00  0.00    +0.420 HD
ATOM     22  C   LIG    1       -0.769   3.028   1.236  0.00  0.00    +0.210 C 
ENDBRANCH  14  15
ENDBRANCH  13  14
ENDBRANCH   2  13
TORSDOF 6
