REMARK  Name = ZINCkj000005jAy1.0
REMARK                            x       y       z     vdW  Elec       q    Type
REMARK                         _______ _______ _______ _____ _____    ______ ____
ROOT
ATOM      1  C   LIG    1       -2.083   5.956  -1.385  0.00  0.00    +0.040 C 
ATOM      2  C   LIG    1       -1.556   5.836   0.046  0.00  0.00    +0.270 C 
ENDROOT
BRANCH   2   3
ATOM      3  N   LIG    1       -0.243   5.187   0.031  0.00  0.00    -0.720 N 
ATOM      4  H   LIG    1        0.564   5.725   0.026  0.00  0.00    +0.410 HD
BRANCH   3   5
ATOM      5  C   LIG    1       -0.154   3.806   0.023  0.00  0.00    +0.440 A 
ATOM      6  N   LIG    1       -1.257   3.075   0.029  0.00  0.00    -0.540 NA
ATOM      7  C   LIG    1       -1.216   1.756   0.017  0.00  0.00    +0.350 A 
ATOM      8  C   LIG    1       -0.013   1.076   0.008  0.00  0.00    -0.070 A 
ATOM      9  C   LIG    1        1.174   1.789   0.001  0.00  0.00    +0.170 A 
ATOM     10  C   LIG    1        1.109   3.187   0.008  0.00  0.00    -0.150 A 
BRANCH  10  11
ATOM     11  C   LIG    1        2.306   3.973   0.001  0.00  0.00    +0.250 C 
ATOM     12  N   LIG    1        3.256   4.596  -0.004  0.00  0.00    -0.410 NA
ENDBRANCH  10  11
ENDBRANCH   3   5
ENDBRANCH   2   3
BRANCH   2  13
ATOM     13  C   LIG    1       -1.429   7.231   0.662  0.00  0.00    +0.040 C 
BRANCH  13  14
ATOM     14  C   LIG    1       -1.022   7.104   2.131  0.00  0.00    +0.260 C 
BRANCH  14  15
ATOM     15  N   LIG    1       -0.900   8.444   2.722  0.00  0.00    -0.390 N 
ATOM     16  C   LIG    1        0.203   9.166   2.074  0.00  0.00    +0.270 C 
ATOM     17  C   LIG    1        0.318  10.568   2.676  0.00  0.00    +0.210 C 
ATOM     18  N   LIG    1        0.564  10.459   4.121  0.00  0.00    -0.540 NA
ATOM     19  C   LIG    1       -0.519   9.716   4.780  0.00  0.00    +0.200 C 
ATOM     20  C   LIG    1        0.738  11.785   4.727  0.00  0.00    +0.220 C 
ATOM     21  C   LIG    1       -0.628   8.321   4.161  0.00  0.00    +0.280 C 
ATOM     22  H   LIG    1       -1.761   8.952   2.585  0.00  0.00    +0.420 HD
ENDBRANCH  14  15
ENDBRANCH  13  14
ENDBRANCH   2  13
TORSDOF 6
