REMARK  Name = ZINC650000002teq.0
REMARK                            x       y       z     vdW  Elec       q    Type
REMARK                         _______ _______ _______ _____ _____    ______ ____
ROOT
ATOM      1  C   LIG    1        1.145   3.085   0.008  0.00  0.00    +0.040 C 
ENDROOT
BRANCH   1   3
ATOM      2  C   LIG    1        2.650   5.218   0.005  0.00  0.00    +0.080 C 
ATOM      3  C   LIG    1        2.513   3.717  -0.002  0.00  0.00    +0.360 C 
ATOM      4  O   LIG    1        3.500   3.020  -0.015  0.00  0.00    -0.460 OA
ENDBRANCH   1   3
BRANCH   1   5
ATOM      5  C   LIG    1        1.286   1.562  -0.002  0.00  0.00    +0.180 C 
BRANCH   5   6
ATOM      6  O   LIG    1       -0.011   0.963   0.007  0.00  0.00    -0.580 OA
ATOM      7  H   LIG    1        0.002  -0.004   0.002  0.00  0.00    +0.390 HD
ENDBRANCH   5   6
ENDBRANCH   1   5
TORSDOF 3
