REMARK  Name = ZINCpe000000Zwq8.0
REMARK                            x       y       z     vdW  Elec       q    Type
REMARK                         _______ _______ _______ _____ _____    ______ ____
ROOT
ATOM      1  O   LIG    1        3.045  -1.855   1.407  0.00  0.00    -0.520 OA
ATOM      2  C   LIG    1        3.149  -0.646   1.466  0.00  0.00    +0.610 C 
ATOM      3  N   LIG    1        2.046   0.122   1.567  0.00  0.00    -0.590 N 
ATOM      4  C   LIG    1        2.159   1.573   1.771  0.00  0.00    +0.270 C 
ATOM      5  C   LIG    1        1.346   2.288   0.688  0.00  0.00    +0.020 C 
ATOM      6  C   LIG    1       -0.091   1.761   0.703  0.00  0.00    +0.020 C 
ATOM      7  C   LIG    1       -0.090   0.262   0.396  0.00  0.00    +0.270 C 
ATOM      8  C   LIG    1        0.707  -0.476   1.476  0.00  0.00    +0.290 C 
ENDROOT
BRANCH   7   9
ATOM      9  N   LIG    1       -1.468  -0.235   0.379  0.00  0.00    -0.630 N 
ATOM     10  C   LIG    1       -2.134  -0.861  -0.772  0.00  0.00    +0.250 C 
ATOM     11  C   LIG    1       -3.545  -1.191  -0.248  0.00  0.00    +0.250 C 
ATOM     12  N   LIG    1       -3.527  -0.707   1.141  0.00  0.00    -0.740 N 
ATOM     13  H   LIG    1       -4.269  -0.757   1.763  0.00  0.00    +0.430 HD
ATOM     14  C   LIG    1       -2.323  -0.185   1.409  0.00  0.00    +0.700 C 
ATOM     15  O   LIG    1       -2.032   0.290   2.490  0.00  0.00    -0.580 OA
ENDBRANCH   7   9
BRANCH   2  16
ATOM     16  C   LIG    1        4.486  -0.017   1.427  0.00  0.00    -0.050 A 
ATOM     17  N   LIG    1        4.733   1.279   1.362  0.00  0.00    -0.200 NA
ATOM     18  N   LIG    1        6.006   1.471   1.344  0.00  0.00    -0.160 N 
ATOM     19  N   LIG    1        6.652   0.230   1.400  0.00  0.00    -0.270 NA
ATOM     20  C   LIG    1        5.719  -0.691   1.458  0.00  0.00    +0.300 A 
BRANCH  18  21
ATOM     21  C   LIG    1        6.641   2.719   1.278  0.00  0.00    +0.150 A 
ATOM     22  C   LIG    1        5.885   3.882   1.219  0.00  0.00    +0.030 A 
ATOM     23  C   LIG    1        6.513   5.110   1.160  0.00  0.00    +0.040 A 
ATOM     24  C   LIG    1        7.894   5.182   1.147  0.00  0.00    +0.020 A 
ATOM     25  C   LIG    1        8.650   4.025   1.200  0.00  0.00    +0.040 A 
ATOM     26  C   LIG    1        8.027   2.794   1.265  0.00  0.00    +0.040 A 
ENDBRANCH  18  21
ENDBRANCH   2  16
TORSDOF 3
