REMARK  Name = ZINCkj00000hb0iB.1
REMARK                            x       y       z     vdW  Elec       q    Type
REMARK                         _______ _______ _______ _____ _____    ______ ____
ROOT
ATOM      1  N   LIG    1        0.038   0.145  -2.322  0.00  0.00    -0.380 N 
ATOM      2  C   LIG    1        0.139  -1.192  -1.727  0.00  0.00    +0.250 C 
ATOM      3  C   LIG    1        0.728  -2.167  -2.749  0.00  0.00    +0.050 C 
ATOM      4  C   LIG    1       -0.184  -2.222  -3.978  0.00  0.00    +0.040 C 
ATOM      5  C   LIG    1       -0.342  -0.809  -4.547  0.00  0.00    +0.050 C 
ATOM      6  C   LIG    1       -0.892   0.114  -3.458  0.00  0.00    +0.180 C 
ATOM      7  H   LIG    1        0.948   0.439  -2.643  0.00  0.00    +0.430 HD
ENDROOT
BRANCH   1   8
ATOM      8  C   LIG    1       -0.454   1.093  -1.314  0.00  0.00    +0.280 C 
BRANCH   8   9
ATOM      9  C   LIG    1        0.581   1.231  -0.196  0.00  0.00    +0.190 C 
BRANCH   9  10
ATOM     10  C   LIG    1        0.017   2.120   0.914  0.00  0.00    -0.070 C 
ATOM     11  C   LIG    1        0.729   3.447   1.187  0.00  0.00    +0.050 C 
ATOM     12  C   LIG    1        0.859   2.289   2.180  0.00  0.00    +0.030 C 
ENDBRANCH   9  10
BRANCH   9  13
ATOM     13  O   LIG    1        1.772   1.821  -0.720  0.00  0.00    -0.380 OA
BRANCH  13  15
ATOM     14  C   LIG    1        4.181   2.003  -0.777  0.00  0.00    +0.060 C 
ATOM     15  C   LIG    1        2.978   1.248  -0.210  0.00  0.00    +0.160 C 
ENDBRANCH  13  15
ENDBRANCH   9  13
ENDBRANCH   8   9
ENDBRANCH   1   8
BRANCH   6  16
ATOM     16  C   LIG    1       -1.054   1.527  -4.023  0.00  0.00    +0.080 C 
BRANCH  16  17
ATOM     17  C   LIG    1       -2.070   1.505  -5.166  0.00  0.00    -0.340 C 
BRANCH  17  18
ATOM     18  S   LIG    1       -2.188   3.160  -5.900  0.00  0.00    +2.620 S 
ATOM     19  O   LIG    1       -0.985   3.492  -6.579  0.00  0.00    -0.950 OA
ATOM     20  O   LIG    1       -2.789   4.068  -4.988  0.00  0.00    -0.950 OA
BRANCH  18  21
ATOM     21  N   LIG    1       -3.308   2.996  -7.110  0.00  0.00    -1.250 NA
ATOM     22  H   LIG    1       -3.546   3.761  -7.657  0.00  0.00    +0.430 HD
ATOM     23  H   LIG    1       -3.725   2.135  -7.271  0.00  0.00    +0.410 HD
ENDBRANCH  18  21
ENDBRANCH  17  18
ENDBRANCH  16  17
ENDBRANCH   6  16
TORSDOF 9
