REMARK  Name = ZINCkj00000hb0iB.0
REMARK                            x       y       z     vdW  Elec       q    Type
REMARK                         _______ _______ _______ _____ _____    ______ ____
ROOT
ATOM      1  N   LIG    1       -1.072   1.096   1.926  0.00  0.00    -0.380 N 
ATOM      2  C   LIG    1       -1.254   2.546   2.063  0.00  0.00    +0.250 C 
ATOM      3  C   LIG    1        0.110   3.221   2.224  0.00  0.00    +0.070 C 
ATOM      4  C   LIG    1        0.968   2.927   0.989  0.00  0.00    +0.040 C 
ATOM      5  C   LIG    1        1.088   1.411   0.814  0.00  0.00    +0.060 C 
ATOM      6  C   LIG    1       -0.312   0.802   0.705  0.00  0.00    +0.170 C 
ATOM      7  H   LIG    1       -0.570   0.743   2.727  0.00  0.00    +0.430 HD
ENDROOT
BRANCH   1   8
ATOM      8  C   LIG    1       -2.387   0.444   1.851  0.00  0.00    +0.270 C 
BRANCH   8   9
ATOM      9  C   LIG    1       -2.204  -1.075   1.857  0.00  0.00    +0.180 C 
BRANCH   9  10
ATOM     10  C   LIG    1       -3.567  -1.753   1.703  0.00  0.00    -0.060 C 
ATOM     11  C   LIG    1       -3.717  -2.792   0.590  0.00  0.00    +0.040 C 
ATOM     12  C   LIG    1       -4.384  -1.420   0.453  0.00  0.00    +0.040 C 
ENDBRANCH   9  10
BRANCH   9  13
ATOM     13  O   LIG    1       -1.609  -1.478   3.092  0.00  0.00    -0.380 OA
BRANCH  13  15
ATOM     14  C   LIG    1       -0.264  -3.027   4.370  0.00  0.00    +0.050 C 
ATOM     15  C   LIG    1       -0.745  -2.611   2.978  0.00  0.00    +0.170 C 
ENDBRANCH  13  15
ENDBRANCH   9  13
ENDBRANCH   8   9
ENDBRANCH   1   8
BRANCH   6  16
ATOM     16  C   LIG    1       -1.036   1.402  -0.502  0.00  0.00    +0.070 C 
BRANCH  16  17
ATOM     17  C   LIG    1       -0.331   0.966  -1.788  0.00  0.00    -0.340 C 
BRANCH  17  18
ATOM     18  S   LIG    1       -1.135   1.748  -3.213  0.00  0.00    +2.620 S 
ATOM     19  O   LIG    1       -0.903   3.150  -3.209  0.00  0.00    -0.950 OA
ATOM     20  O   LIG    1       -2.442   1.222  -3.399  0.00  0.00    -0.950 OA
BRANCH  18  21
ATOM     21  N   LIG    1       -0.283   1.197  -4.522  0.00  0.00    -1.250 NA
ATOM     22  H   LIG    1       -0.529   1.482  -5.416  0.00  0.00    +0.430 HD
ATOM     23  H   LIG    1        0.463   0.590  -4.395  0.00  0.00    +0.410 HD
ENDBRANCH  18  21
ENDBRANCH  17  18
ENDBRANCH  16  17
ENDBRANCH   6  16
TORSDOF 9
