REMARK  Name = ZINCpk00000eaGF7.0
REMARK                            x       y       z     vdW  Elec       q    Type
REMARK                         _______ _______ _______ _____ _____    ______ ____
ROOT
ATOM      1  C   LIG    1        1.465  -7.153  -4.598  0.00  0.00    +0.040 C 
ATOM      2  C   LIG    1        2.184  -8.237  -3.793  0.00  0.00    +0.210 C 
ATOM      3  C   LIG    1        1.285  -9.467  -3.679  0.00  0.00    +0.020 C 
ATOM      4  C   LIG    1        1.945 -10.495  -2.756  0.00  0.00    +0.040 C 
ATOM      5  C   LIG    1        2.121  -9.891  -1.361  0.00  0.00    -0.020 C 
ATOM      6  C   LIG    1        3.034  -8.664  -1.451  0.00  0.00    +0.290 C 
ATOM      7  N   LIG    1        2.481  -7.735  -2.445  0.00  0.00    -0.610 N 
ATOM      8  C   LIG    1        2.246  -6.447  -2.125  0.00  0.00    +0.520 C 
ATOM      9  O   LIG    1        1.703  -5.713  -2.924  0.00  0.00    -0.510 OA
ENDROOT
BRANCH   5  10
ATOM     10  C   LIG    1        0.777  -9.478  -0.818  0.00  0.00    +0.520 C 
ATOM     11  O   LIG    1       -0.224  -9.653  -1.481  0.00  0.00    -0.530 OA
ATOM     12  N   LIG    1        0.687  -8.915   0.403  0.00  0.00    -0.860 N 
ATOM     13  H   LIG    1       -0.178  -8.650   0.752  0.00  0.00    +0.400 HD
ATOM     14  H   LIG    1        1.487  -8.776   0.933  0.00  0.00    +0.400 HD
ENDBRANCH   5  10
BRANCH   8  15
ATOM     15  C   LIG    1        2.658  -5.919  -0.775  0.00  0.00    +0.100 C 
BRANCH  15  16
ATOM     16  C   LIG    1        2.285  -4.462  -0.670  0.00  0.00    -0.090 A 
ATOM     17  C   LIG    1        1.044  -4.102  -0.177  0.00  0.00    +0.040 A 
ATOM     18  C   LIG    1        0.699  -2.768  -0.079  0.00  0.00    -0.040 A 
ATOM     19  C   LIG    1        1.599  -1.788  -0.478  0.00  0.00    +0.170 A 
ATOM     20  C   LIG    1        2.842  -2.154  -0.979  0.00  0.00    +0.000 A 
ATOM     21  C   LIG    1        3.183  -3.490  -1.069  0.00  0.00    +0.050 A 
BRANCH  19  22
ATOM     22  N   LIG    1        1.253  -0.436  -0.382  0.00  0.00    -0.560 N 
ATOM     23  C   LIG    1       -0.075   0.052   0.010  0.00  0.00    +0.260 C 
ATOM     24  C   LIG    1       -0.119   1.530  -0.439  0.00  0.00    +0.060 C 
ATOM     25  C   LIG    1        1.382   1.903  -0.442  0.00  0.00    +0.070 C 
ATOM     26  C   LIG    1        2.092   0.582  -0.636  0.00  0.00    +0.510 C 
ATOM     27  O   LIG    1        3.251   0.459  -0.973  0.00  0.00    -0.510 OA
ENDBRANCH  19  22
ENDBRANCH  15  16
ENDBRANCH   8  15
TORSDOF 4
