REMARK  Name = ZINCrH000004sRS4.0
REMARK                            x       y       z     vdW  Elec       q    Type
REMARK                         _______ _______ _______ _____ _____    ______ ____
ROOT
ATOM      1  C   LIG    1        4.821   2.429  -0.029  0.00  0.00    +0.280 C 
ENDROOT
BRANCH   1   2
ATOM      2  N   LIG    1        5.572   3.692  -0.011  0.00  0.00    -0.460 N 
ATOM      3  C   LIG    1        7.007   3.447   0.141  0.00  0.00    +0.200 C 
ATOM      4  C   LIG    1        7.733   4.798   0.184  0.00  0.00    +0.040 C 
ATOM      5  C   LIG    1        7.348   5.498   1.489  0.00  0.00    +0.080 C 
ATOM      6  C   LIG    1        5.854   5.435   1.678  0.00  0.00    -0.070 A 
ATOM      7  C   LIG    1        5.278   6.281   2.612  0.00  0.00    +0.020 A 
ATOM      8  C   LIG    1        3.910   6.259   2.829  0.00  0.00    +0.080 A 
ATOM      9  C   LIG    1        3.112   5.385   2.107  0.00  0.00    -0.030 A 
ATOM     10  C   LIG    1        3.682   4.544   1.176  0.00  0.00    +0.000 A 
ATOM     11  C   LIG    1        5.059   4.565   0.952  0.00  0.00    +0.120 A 
BRANCH   8  12
ATOM     12  O   LIG    1        3.352   7.093   3.748  0.00  0.00    -0.320 OA
BRANCH  12  13
ATOM     13  C   LIG    1        1.935   7.015   3.918  0.00  0.00    +0.590 C 
ATOM     14  F   LIG    1        1.584   5.722   4.322  0.00  0.00    -0.200 F 
ATOM     15  F   LIG    1        1.303   7.313   2.707  0.00  0.00    -0.200 F 
ENDBRANCH  12  13
ENDBRANCH   8  12
ENDBRANCH   1   2
BRANCH   1  18
ATOM     16  N   LIG    1        4.115   0.705   1.598  0.00  0.00    -0.630 N 
ATOM     17  H   LIG    1        3.588   0.299   0.891  0.00  0.00    +0.430 HD
ATOM     18  C   LIG    1        4.835   1.816   1.347  0.00  0.00    +0.480 C 
ATOM     19  O   LIG    1        5.494   2.324   2.230  0.00  0.00    -0.470 OA
BRANCH  16  24
ATOM     20  C   LIG    1        5.216   0.040   6.358  0.00  0.00    +0.190 C 
ATOM     21  C   LIG    1        4.605  -0.180   4.998  0.00  0.00    -0.010 A 
ATOM     22  C   LIG    1        3.770  -1.178   4.677  0.00  0.00    -0.120 A 
ATOM     23  C   LIG    1        3.439  -0.994   3.256  0.00  0.00    -0.170 A 
ATOM     24  C   LIG    1        4.128   0.142   2.862  0.00  0.00    +0.320 A 
ATOM     25  C   LIG    1        3.274  -2.271   5.588  0.00  0.00    +0.140 C 
ATOM     26  O   LIG    1        4.810   0.599   3.921  0.00  0.00    -0.150 OA
BRANCH  23  27
ATOM     27  C   LIG    1        2.581  -1.811   2.451  0.00  0.00    +0.280 C 
ATOM     28  N   LIG    1        1.901  -2.459   1.813  0.00  0.00    -0.420 NA
ENDBRANCH  23  27
ENDBRANCH  16  24
ENDBRANCH   1  18
TORSDOF 6
