REMARK  Name = ZINCrD000006VpQf.0
REMARK                            x       y       z     vdW  Elec       q    Type
REMARK                         _______ _______ _______ _____ _____    ______ ____
ROOT
ATOM      1  O   LIG    1       -0.196  -1.800  -1.925  0.00  0.00    -0.510 OA
ATOM      2  C   LIG    1       -1.137  -1.850  -1.161  0.00  0.00    +0.520 C 
ATOM      3  N   LIG    1       -2.118  -2.752  -1.359  0.00  0.00    -0.620 N 
ATOM      4  C   LIG    1       -3.265  -2.832  -0.442  0.00  0.00    +0.290 C 
ATOM      5  C   LIG    1       -4.555  -2.787  -1.277  0.00  0.00    +0.190 C 
ATOM      6  N   LIG    1       -4.505  -3.838  -2.302  0.00  0.00    -0.490 N 
ATOM      7  C   LIG    1       -3.402  -3.611  -3.245  0.00  0.00    +0.190 C 
ATOM      8  C   LIG    1       -2.068  -3.686  -2.494  0.00  0.00    +0.300 C 
ENDROOT
BRANCH   6   9
ATOM      9  C   LIG    1       -5.725  -3.940  -2.974  0.00  0.00    +0.110 A 
ATOM     10  C   LIG    1       -5.769  -3.825  -4.358  0.00  0.00    +0.000 A 
ATOM     11  C   LIG    1       -6.978  -3.927  -5.019  0.00  0.00    +0.050 A 
ATOM     12  C   LIG    1       -8.142  -4.143  -4.306  0.00  0.00    +0.040 A 
ATOM     13  C   LIG    1       -8.102  -4.258  -2.928  0.00  0.00    -0.160 A 
ATOM     14  C   LIG    1       -6.896  -4.162  -2.261  0.00  0.00    +0.050 A 
BRANCH  13  15
ATOM     15  C   LIG    1       -9.373  -4.494  -2.155  0.00  0.00    +0.510 C 
ATOM     16  F   LIG    1       -9.573  -3.443  -1.254  0.00  0.00    -0.180 F 
ATOM     17  F   LIG    1       -9.274  -5.699  -1.450  0.00  0.00    -0.170 F 
ATOM     18  F   LIG    1      -10.453  -4.560  -3.042  0.00  0.00    -0.180 F 
ENDBRANCH  13  15
ENDBRANCH   6   9
BRANCH   2  19
ATOM     19  C   LIG    1       -1.208  -0.902   0.008  0.00  0.00    +0.170 C 
BRANCH  19  20
ATOM     20  C   LIG    1        0.002  -0.004   0.002  0.00  0.00    +0.060 A 
ATOM     21  C   LIG    1       -0.016   1.339   0.009  0.00  0.00    +0.140 A 
ATOM     22  N   LIG    1        1.305   1.774  -0.001  0.00  0.00    -0.420 N 
ATOM     23  C   LIG    1        2.007   2.958  -0.001  0.00  0.00    +0.220 A 
ATOM     24  C   LIG    1        3.328   2.913  -0.013  0.00  0.00    +0.010 A 
ATOM     25  S   LIG    1        3.746   1.190  -0.027  0.00  0.00    +0.160 S 
ATOM     26  C   LIG    1        2.062   0.643  -0.014  0.00  0.00    +0.160 A 
ATOM     27  N   LIG    1        1.280  -0.410  -0.012  0.00  0.00    -0.420 NA
ENDBRANCH  19  20
ENDBRANCH   2  19
TORSDOF 4
