REMARK  Name = ZINCtV000002Fhf8.0
REMARK                            x       y       z     vdW  Elec       q    Type
REMARK                         _______ _______ _______ _____ _____    ______ ____
ROOT
ATOM      1  C   LIG    1        8.238  -1.405  -0.239  0.00  0.00    +0.610 C 
ATOM      2  N   LIG    1        7.225  -0.516  -0.246  0.00  0.00    -0.610 N 
ATOM      3  H   LIG    1        7.413   0.432  -0.323  0.00  0.00    +0.430 HD
ATOM      4  O   LIG    1        8.002  -2.595  -0.144  0.00  0.00    -0.470 OA
ENDROOT
BRANCH   1   7
ATOM      5  C   LIG    1       10.747  -3.243  -0.245  0.00  0.00    +0.170 C 
ATOM      6  C   LIG    1       10.723  -1.740  -0.349  0.00  0.00    -0.040 A 
ATOM      7  C   LIG    1        9.627  -0.938  -0.346  0.00  0.00    -0.050 A 
ATOM      8  O   LIG    1       10.005   0.352  -0.462  0.00  0.00    -0.180 OA
ATOM      9  C   LIG    1       11.347   0.454  -0.536  0.00  0.00    +0.090 A 
ATOM     10  C   LIG    1       12.214   1.533  -0.658  0.00  0.00    +0.050 A 
ATOM     11  C   LIG    1       13.574   1.317  -0.716  0.00  0.00    +0.080 A 
ATOM     12  C   LIG    1       14.092   0.030  -0.654  0.00  0.00    -0.050 A 
ATOM     13  C   LIG    1       13.258  -1.047  -0.534  0.00  0.00    +0.100 A 
ATOM     14 CL   LIG    1       15.809  -0.214  -0.730  0.00  0.00    -0.050 Cl
ATOM     15  C   LIG    1       11.876  -0.849  -0.473  0.00  0.00    -0.140 A 
ENDBRANCH   1   7
BRANCH   2  16
ATOM     16  C   LIG    1        5.913  -0.958  -0.145  0.00  0.00    +0.270 A 
ATOM     17  N   LIG    1        4.865  -0.195  -0.142  0.00  0.00    -0.490 NA
ATOM     18  C   LIG    1        3.686  -0.793  -0.037  0.00  0.00    +0.130 A 
ATOM     19  C   LIG    1        3.727  -2.136   0.060  0.00  0.00    -0.100 A 
ATOM     20  S   LIG    1        5.415  -2.640  -0.001  0.00  0.00    +0.210 S 
BRANCH  18  21
ATOM     21  C   LIG    1        2.413  -0.037  -0.021  0.00  0.00    -0.010 A 
ATOM     22  C   LIG    1        1.357  -0.428  -0.826  0.00  0.00    +0.040 A 
ATOM     23  C   LIG    1        0.158   0.276  -0.817  0.00  0.00    +0.010 A 
ATOM     24  C   LIG    1       -0.011   1.367  -0.019  0.00  0.00    +0.030 A 
ATOM     25  C   LIG    1        1.035   1.799   0.815  0.00  0.00    -0.050 A 
ATOM     26  C   LIG    1        0.885   2.922   1.647  0.00  0.00    +0.020 A 
ATOM     27  C   LIG    1        1.918   3.314   2.442  0.00  0.00    +0.010 A 
ATOM     28  C   LIG    1        3.125   2.618   2.444  0.00  0.00    +0.000 A 
ATOM     29  C   LIG    1        3.304   1.526   1.649  0.00  0.00    +0.040 A 
ATOM     30  C   LIG    1        2.262   1.093   0.818  0.00  0.00    -0.030 A 
ENDBRANCH  18  21
ENDBRANCH   2  16
TORSDOF 3
