REMARK  Name = ZINCpk000000ozXN.0
REMARK                            x       y       z     vdW  Elec       q    Type
REMARK                         _______ _______ _______ _____ _____    ______ ____
ROOT
ATOM      1  N   LIG    1       -4.426  -1.297   5.296  0.00  0.00    -0.630 N 
ATOM      2  C   LIG    1       -5.046  -0.973   4.144  0.00  0.00    +0.710 C 
ATOM      3  N   LIG    1       -4.377  -0.303   3.184  0.00  0.00    -0.640 N 
ATOM      4  C   LIG    1       -4.780  -0.402   1.773  0.00  0.00    +0.300 C 
ATOM      5  C   LIG    1       -3.546  -0.757   0.938  0.00  0.00    +0.190 C 
ATOM      6  N   LIG    1       -2.478   0.214   1.212  0.00  0.00    -0.550 NA
ATOM      7  C   LIG    1       -2.051   0.154   2.616  0.00  0.00    +0.170 C 
ATOM      8  C   LIG    1       -3.224   0.546   3.520  0.00  0.00    +0.270 C 
ATOM      9  O   LIG    1       -6.208  -1.286   3.970  0.00  0.00    -0.580 OA
ENDROOT
BRANCH   1  11
ATOM     10  C   LIG    1       -5.311  -3.389   6.203  0.00  0.00    +0.010 C 
ATOM     11  C   LIG    1       -5.193  -1.876   6.402  0.00  0.00    +0.290 C 
ENDBRANCH   1  11
BRANCH   1  12
ATOM     12  C   LIG    1       -2.986  -1.069   5.443  0.00  0.00    +0.260 C 
ATOM     13  C   LIG    1       -2.751   0.136   6.355  0.00  0.00    +0.020 C 
ENDBRANCH   1  12
BRANCH   6  14
ATOM     14  C   LIG    1       -1.339   0.013   0.306  0.00  0.00    +0.480 C 
BRANCH  14  15
ATOM     15  N   LIG    1       -0.597   1.269   0.169  0.00  0.00    -0.420 N 
ATOM     16  N   LIG    1       -1.134   2.293  -0.611  0.00  0.00    -0.220 NA
ATOM     17  C   LIG    1       -0.533   3.433  -0.785  0.00  0.00    +0.310 A 
ATOM     18  C   LIG    1        0.759   3.683  -0.145  0.00  0.00    -0.070 A 
ATOM     19  C   LIG    1        1.438   4.892  -0.308  0.00  0.00    +0.040 A 
ATOM     20  C   LIG    1        2.651   5.078   0.316  0.00  0.00    +0.050 A 
ATOM     21  C   LIG    1        3.207   4.078   1.103  0.00  0.00    +0.030 A 
ATOM     22  C   LIG    1        2.555   2.877   1.277  0.00  0.00    +0.080 A 
ATOM     23  C   LIG    1        1.326   2.666   0.656  0.00  0.00    -0.130 A 
ATOM     24  C   LIG    1        0.586   1.406   0.804  0.00  0.00    +0.530 A 
ATOM     25  O   LIG    1        1.033   0.500   1.484  0.00  0.00    -0.520 OA
ENDBRANCH  14  15
ENDBRANCH   6  14
TORSDOF 4
