REMARK  Name = ZINCqH0000038QbJ.0
REMARK                            x       y       z     vdW  Elec       q    Type
REMARK                         _______ _______ _______ _____ _____    ______ ____
ROOT
ATOM      1  C   LIG    1        2.592   2.977  -1.699  0.00  0.00    +0.240 C 
ENDROOT
BRANCH   1   2
ATOM      2  N   LIG    1        1.677   1.854  -1.452  0.00  0.00    -0.450 N 
ATOM      3  C   LIG    1        1.204   1.852  -0.036  0.00  0.00    +0.230 C 
ATOM      4  C   LIG    1       -0.192   1.210  -0.150  0.00  0.00    +0.050 C 
ATOM      5  C   LIG    1       -1.226   1.861   0.772  0.00  0.00    +0.060 C 
ATOM      6  C   LIG    1       -2.625   1.359   0.384  0.00  0.00    +0.040 C 
ATOM      7  C   LIG    1       -2.959   1.627  -1.065  0.00  0.00    +0.410 C 
ATOM      8  C   LIG    1       -1.875   1.746  -2.044  0.00  0.00    -0.130 A 
ATOM      9  C   LIG    1       -1.999   2.066  -3.393  0.00  0.00    +0.060 A 
ATOM     10  C   LIG    1       -0.864   2.297  -4.152  0.00  0.00    +0.020 A 
ATOM     11  C   LIG    1        0.423   2.255  -3.627  0.00  0.00    +0.040 A 
ATOM     12  O   LIG    1       -4.114   1.742  -1.415  0.00  0.00    -0.450 OA
ATOM     13  C   LIG    1       -0.575   1.601  -1.556  0.00  0.00    -0.100 A 
ATOM     14  C   LIG    1        0.563   1.930  -2.274  0.00  0.00    +0.090 A 
ENDBRANCH   1   2
BRANCH   1  17
ATOM     15  N   LIG    1        4.908   3.607  -1.101  0.00  0.00    -0.630 N 
ATOM     16  H   LIG    1        4.740   4.477  -1.496  0.00  0.00    +0.420 HD
ATOM     17  C   LIG    1        3.938   2.671  -1.094  0.00  0.00    +0.510 C 
ATOM     18  O   LIG    1        4.147   1.584  -0.600  0.00  0.00    -0.470 OA
BRANCH  15  23
ATOM     19  C   LIG    1        9.240   1.569   1.253  0.00  0.00    +0.150 C 
ATOM     20  C   LIG    1        8.192   2.397   0.554  0.00  0.00    -0.250 A 
ATOM     21  C   LIG    1        8.370   3.644   0.139  0.00  0.00    -0.050 A 
ATOM     22  C   LIG    1        7.199   4.202  -0.500  0.00  0.00    -0.110 A 
ATOM     23  C   LIG    1        6.148   3.325  -0.544  0.00  0.00    +0.060 A 
ATOM     24  C   LIG    1        9.660   4.401   0.315  0.00  0.00    +0.120 C 
ATOM     25  S   LIG    1        6.568   1.843   0.185  0.00  0.00    +0.320 S 
BRANCH  22  26
ATOM     26  C   LIG    1        7.145   5.531  -1.031  0.00  0.00    +0.270 C 
ATOM     27  N   LIG    1        7.102   6.585  -1.452  0.00  0.00    -0.420 NA
ENDBRANCH  22  26
ENDBRANCH  15  23
ENDBRANCH   1  17
TORSDOF 4
