REMARK  Name = ZINCrD0000075pnA.0
REMARK                            x       y       z     vdW  Elec       q    Type
REMARK                         _______ _______ _______ _____ _____    ______ ____
ROOT
ATOM      1  C   LIG    1       -2.451  -5.938   3.206  0.00  0.00    +0.110 C 
ENDROOT
BRANCH   1   2
ATOM      2  C   LIG    1       -3.192  -7.266   3.379  0.00  0.00    +0.100 C 
BRANCH   2   4
ATOM      3  O   LIG    1       -2.889  -6.806   5.674  0.00  0.00    -0.510 OA
ATOM      4  C   LIG    1       -3.335  -7.573   4.847  0.00  0.00    +0.520 C 
ATOM      5  N   LIG    1       -3.958  -8.701   5.242  0.00  0.00    -0.670 N 
ATOM      6  H   LIG    1       -4.374  -9.281   4.585  0.00  0.00    +0.420 HD
BRANCH   5   7
ATOM      7  C   LIG    1       -4.006  -9.035   6.601  0.00  0.00    +0.160 A 
ATOM      8  C   LIG    1       -4.117  -8.036   7.559  0.00  0.00    +0.060 A 
ATOM      9  C   LIG    1       -4.164  -8.367   8.899  0.00  0.00    +0.050 A 
ATOM     10  C   LIG    1       -4.102  -9.693   9.289  0.00  0.00    +0.050 A 
ATOM     11  C   LIG    1       -3.992 -10.694   8.335  0.00  0.00    +0.090 A 
ATOM     12  F   LIG    1       -3.931 -11.988   8.716  0.00  0.00    -0.120 F 
ATOM     13  F   LIG    1       -4.149 -10.014  10.601  0.00  0.00    -0.130 F 
ATOM     14  C   LIG    1       -3.950 -10.366   6.992  0.00  0.00    +0.000 A 
ENDBRANCH   5   7
ENDBRANCH   2   4
ENDBRANCH   1   2
BRANCH   1  15
ATOM     15  S   LIG    1       -2.279  -5.568   1.438  0.00  0.00    -0.230 S 
BRANCH  15  16
ATOM     16  C   LIG    1       -1.393  -3.985   1.437  0.00  0.00    +0.070 C 
BRANCH  16  17
ATOM     17  C   LIG    1       -1.166  -3.529  -0.006  0.00  0.00    +0.350 C 
BRANCH  17  18
ATOM     18  N   LIG    1       -0.450  -2.250  -0.006  0.00  0.00    -0.580 N 
ATOM     19  C   LIG    1       -1.046  -1.044   0.013  0.00  0.00    +0.570 C 
ATOM     20  C   LIG    1        0.001  -0.002   0.006  0.00  0.00    -0.140 A 
ATOM     21  C   LIG    1       -0.013   1.384   0.018  0.00  0.00    +0.100 A 
ATOM     22  C   LIG    1        1.184   2.083   0.005  0.00  0.00    +0.050 A 
ATOM     23  C   LIG    1        2.390   1.408  -0.018  0.00  0.00    +0.050 A 
ATOM     24  C   LIG    1        2.419   0.022  -0.031  0.00  0.00    +0.100 A 
ATOM     25  C   LIG    1        1.231  -0.690  -0.019  0.00  0.00    -0.140 A 
ATOM     26  O   LIG    1       -2.244  -0.846   0.034  0.00  0.00    -0.460 OA
ATOM     27  C   LIG    1        0.889  -2.128  -0.026  0.00  0.00    +0.570 C 
ATOM     28  O   LIG    1        1.685  -3.046  -0.047  0.00  0.00    -0.460 OA
ENDBRANCH  17  18
ENDBRANCH  16  17
ENDBRANCH  15  16
ENDBRANCH   1  15
TORSDOF 7
