REMARK  Name = ZINCrH000004qXsu.1
REMARK                            x       y       z     vdW  Elec       q    Type
REMARK                         _______ _______ _______ _____ _____    ______ ____
ROOT
ATOM      1  C   LIG    1        0.010   3.842  -0.000  0.00  0.00    +0.030 A 
ATOM      2  C   LIG    1       -1.057   2.952  -0.122  0.00  0.00    +0.050 A 
ATOM      3  C   LIG    1       -0.815   1.606  -0.303  0.00  0.00    +0.040 A 
ATOM      4  C   LIG    1        0.484   1.127  -0.355  0.00  0.00    +0.040 A 
ATOM      5  C   LIG    1        1.554   1.990  -0.237  0.00  0.00    +0.050 A 
ATOM      6  C   LIG    1        1.331   3.355  -0.059  0.00  0.00    -0.080 A 
ENDROOT
BRANCH   6   7
ATOM      7  C   LIG    1        2.472   4.283   0.068  0.00  0.00    +0.570 C 
ATOM      8  N   LIG    1        3.421   4.320  -0.889  0.00  0.00    -0.610 N 
ATOM      9  C   LIG    1        3.281   3.527  -2.120  0.00  0.00    +0.230 C 
ATOM     10  C   LIG    1        3.500   4.461  -3.322  0.00  0.00    +0.220 C 
ATOM     11  N   LIG    1        4.787   5.152  -3.171  0.00  0.00    -0.680 NA
ATOM     12  H   LIG    1        5.551   4.493  -3.144  0.00  0.00    +0.340 HD
ATOM     13  C   LIG    1        4.793   6.013  -1.981  0.00  0.00    +0.160 C 
ATOM     14  C   LIG    1        6.120   6.770  -1.904  0.00  0.00    +0.050 C 
ATOM     15  C   LIG    1        4.625   5.148  -0.727  0.00  0.00    +0.250 C 
ATOM     16  O   LIG    1        2.556   5.015   1.035  0.00  0.00    -0.490 OA
ENDBRANCH   6   7
BRANCH   1  20
ATOM     17  C   LIG    1       -1.260   7.181   0.500  0.00  0.00    +0.000 A 
ATOM     18  C   LIG    1        0.080   7.404   0.403  0.00  0.00    +0.180 A 
ATOM     19  N   LIG    1        0.675   6.224   0.213  0.00  0.00    -0.430 NA
ATOM     20  C   LIG    1       -0.242   5.283   0.188  0.00  0.00    +0.210 A 
ATOM     21  O   LIG    1       -1.450   5.851   0.358  0.00  0.00    -0.190 OA
BRANCH  17  26
ATOM     22  C   LIG    1       -5.342  11.151   1.327  0.00  0.00    +0.090 C 
ATOM     23  C   LIG    1       -4.273  10.111   1.111  0.00  0.00    -0.070 A 
ATOM     24  C   LIG    1       -4.623   8.778   0.990  0.00  0.00    +0.010 A 
ATOM     25  C   LIG    1       -3.650   7.821   0.791  0.00  0.00    +0.040 A 
ATOM     26  C   LIG    1       -2.308   8.200   0.712  0.00  0.00    -0.020 A 
ATOM     27  C   LIG    1       -1.961   9.546   0.841  0.00  0.00    +0.040 A 
ATOM     28  C   LIG    1       -2.945  10.493   1.034  0.00  0.00    +0.010 A 
ENDBRANCH  17  26
ENDBRANCH   1  20
TORSDOF 3
