REMARK  Name = ZINCpk00000eaA38.0
REMARK                            x       y       z     vdW  Elec       q    Type
REMARK                         _______ _______ _______ _____ _____    ______ ____
ROOT
ATOM      1  N   LIG    1       -2.659   2.869  -5.085  0.00  0.00    -0.350 N 
ATOM      2  N   LIG    1       -3.174   4.127  -5.446  0.00  0.00    -0.060 NA
ATOM      3  N   LIG    1       -3.671   3.997  -6.629  0.00  0.00    -0.020 NA
ATOM      4  N   LIG    1       -3.521   2.791  -7.043  0.00  0.00    -0.310 NA
ATOM      5  C   LIG    1       -2.906   2.067  -6.144  0.00  0.00    +0.280 A 
ENDROOT
BRANCH   1   9
ATOM      6  C   LIG    1       -0.761   1.838  -1.519  0.00  0.00    -0.650 A 
ATOM      7  C   LIG    1       -1.700   0.987  -2.072  0.00  0.00    +0.160 A 
ATOM      8  C   LIG    1       -2.335   1.329  -3.250  0.00  0.00    +0.010 A 
ATOM      9  C   LIG    1       -2.021   2.522  -3.885  0.00  0.00    +0.170 A 
ATOM     10  C   LIG    1       -1.074   3.372  -3.331  0.00  0.00    +0.040 A 
ATOM     11  C   LIG    1       -0.446   3.028  -2.149  0.00  0.00    +0.160 A 
BRANCH   6  13
ATOM     12  C   LIG    1       -1.015   2.105   1.283  0.00  0.00    -0.250 C 
ATOM     13  S   LIG    1        0.042   1.402  -0.012  0.00  0.00    +2.500 S 
ATOM     14  O   LIG    1        1.286   2.087  -0.067  0.00  0.00    -0.930 OA
ATOM     15  O   LIG    1       -0.013  -0.018   0.016  0.00  0.00    -0.930 OA
ENDBRANCH   6  13
ENDBRANCH   1   9
BRANCH   5  16
ATOM     16  C   LIG    1       -2.544   0.610  -6.265  0.00  0.00    -0.110 C 
BRANCH  16  17
ATOM     17  S   LIG    1       -0.829   0.459  -6.837  0.00  0.00    +1.380 S 
ATOM     18  O   LIG    1       -0.727   0.957  -8.164  0.00  0.00    -0.780 OA
BRANCH  17  19
ATOM     19  C   LIG    1       -0.635  -1.280  -7.051  0.00  0.00    -0.250 A 
ATOM     20  C   LIG    1       -0.182  -2.051  -5.998  0.00  0.00    +0.070 A 
ATOM     21  C   LIG    1       -0.037  -3.418  -6.175  0.00  0.00    +0.080 A 
ATOM     22  C   LIG    1       -0.344  -3.960  -7.415  0.00  0.00    -0.050 A 
ATOM     23  C   LIG    1       -0.786  -3.124  -8.424  0.00  0.00    +0.270 A 
ATOM     24 CL   LIG    1       -0.175  -5.665  -7.696  0.00  0.00    -0.040 Cl
ATOM     25  N   LIG    1       -0.917  -1.828  -8.217  0.00  0.00    -0.400 NA
ENDBRANCH  17  19
ENDBRANCH  16  17
ENDBRANCH   5  16
TORSDOF 5
