REMARK  Name = ZINCrg000015uZJs.0
REMARK                            x       y       z     vdW  Elec       q    Type
REMARK                         _______ _______ _______ _____ _____    ______ ____
ROOT
ATOM      1  N   LIG    1        0.917   0.812  -2.695  0.00  0.00    -0.760 N 
ATOM      2  H   LIG    1        0.366   1.605  -2.600  0.00  0.00    +0.390 HD
ATOM      3  C   LIG    1        0.864   0.086  -3.829  0.00  0.00    +0.710 C 
ATOM      4  N   LIG    1        0.122   0.515  -4.869  0.00  0.00    -0.620 N 
ATOM      5  C   LIG    1       -0.552   1.820  -4.820  0.00  0.00    +0.240 C 
ATOM      6  C   LIG    1       -0.111   2.641  -6.044  0.00  0.00    +0.280 C 
ATOM      7  N   LIG    1       -0.265   1.809  -7.245  0.00  0.00    -0.600 N 
ATOM      8  C   LIG    1        0.405   0.502  -7.293  0.00  0.00    +0.250 C 
ATOM      9  C   LIG    1       -1.008   2.237  -8.286  0.00  0.00    +0.460 C 
ATOM     10  O   LIG    1       -1.237   1.492  -9.215  0.00  0.00    -0.540 OA
ATOM     11  C   LIG    1       -0.031  -0.317  -6.071  0.00  0.00    +0.290 C 
ATOM     12  O   LIG    1        1.486  -0.955  -3.914  0.00  0.00    -0.580 OA
ENDROOT
BRANCH   9  13
ATOM     13  C   LIG    1       -1.550   3.632  -8.294  0.00  0.00    +0.500 C 
ATOM     14  O   LIG    1       -1.217   4.421  -7.425  0.00  0.00    -0.660 OA
ATOM     15  O   LIG    1       -2.324   3.981  -9.170  0.00  0.00    -0.630 OA
ENDBRANCH   9  13
BRANCH   1  16
ATOM     16  C   LIG    1        1.807   0.405  -1.605  0.00  0.00    +0.310 C 
BRANCH  16  17
ATOM     17  C   LIG    1        3.208   0.876  -1.897  0.00  0.00    -0.120 A 
ATOM     18  C   LIG    1        3.415   2.123  -2.457  0.00  0.00    +0.020 A 
ATOM     19  C   LIG    1        4.700   2.558  -2.721  0.00  0.00    +0.010 A 
ATOM     20  C   LIG    1        5.779   1.742  -2.434  0.00  0.00    +0.030 A 
ATOM     21  C   LIG    1        5.572   0.492  -1.879  0.00  0.00    +0.010 A 
ATOM     22  C   LIG    1        4.286   0.060  -1.611  0.00  0.00    +0.020 A 
ENDBRANCH  16  17
BRANCH  16  23
ATOM     23  C   LIG    1        1.324   1.025  -0.292  0.00  0.00    +0.270 C 
BRANCH  23  24
ATOM     24  N   LIG    1       -0.072   0.635  -0.052  0.00  0.00    -0.390 N 
ATOM     25  H   LIG    1       -0.633   0.884  -0.853  0.00  0.00    +0.420 HD
BRANCH  24  27
ATOM     26  C   LIG    1       -0.650   2.837   0.852  0.00  0.00    +0.080 C 
ATOM     27  C   LIG    1       -0.578   1.336   1.137  0.00  0.00    +0.240 C 
ENDBRANCH  24  27
BRANCH  24  28
ATOM     28  C   LIG    1       -0.145  -0.815   0.167  0.00  0.00    +0.240 C 
ATOM     29  C   LIG    1       -1.610  -1.239   0.293  0.00  0.00    +0.080 C 
ENDBRANCH  24  28
ENDBRANCH  23  24
ENDBRANCH  16  23
ENDBRANCH   1  16
TORSDOF 7
