REMARK  Name = ZINCqH0000035kKW.0
REMARK                            x       y       z     vdW  Elec       q    Type
REMARK                         _______ _______ _______ _____ _____    ______ ____
ROOT
ATOM      1  C   LIG    1        2.490   1.046  -0.016  0.00  0.00    +0.290 C 
ATOM      2  C   LIG    1        3.044   1.022  -1.442  0.00  0.00    +0.040 C 
ENDROOT
BRANCH   1   6
ATOM      3  C   LIG    1       -1.237   3.144   0.030  0.00  0.00    +0.110 A 
ATOM      4  C   LIG    1       -0.043   3.847   0.022  0.00  0.00    -0.030 A 
ATOM      5  C   LIG    1        1.160   3.166   0.007  0.00  0.00    +0.020 A 
ATOM      6  C   LIG    1        1.175   1.784   0.000  0.00  0.00    -0.090 A 
ATOM      7  C   LIG    1       -0.013   1.076   0.008  0.00  0.00    -0.020 A 
ATOM      8  C   LIG    1       -1.222   1.752   0.017  0.00  0.00    +0.110 A 
BRANCH   8   9
ATOM      9  O   LIG    1       -2.391   1.058   0.019  0.00  0.00    -0.300 OA
ATOM     10  C   LIG    1       -2.298  -0.368   0.012  0.00  0.00    +0.240 C 
ENDBRANCH   8   9
BRANCH   3  11
ATOM     11  O   LIG    1       -2.421   3.812   0.044  0.00  0.00    -0.290 OA
BRANCH  11  12
ATOM     12  C   LIG    1       -2.360   5.240   0.049  0.00  0.00    +0.210 C 
BRANCH  12  13
ATOM     13  C   LIG    1       -3.780   5.811   0.065  0.00  0.00    +0.190 C 
BRANCH  13  15
ATOM     14  C   LIG    1       -5.761   5.942   1.408  0.00  0.00    +0.200 C 
ATOM     15  O   LIG    1       -4.423   5.455   1.291  0.00  0.00    -0.380 OA
ENDBRANCH  13  15
ENDBRANCH  12  13
ENDBRANCH  11  12
ENDBRANCH   3  11
ENDBRANCH   1   6
BRANCH   1  16
ATOM     16  N   LIG    1        3.442   1.726   0.867  0.00  0.00    -0.720 N 
ATOM     17  H   LIG    1        3.337   2.671   1.058  0.00  0.00    +0.400 HD
ATOM     18  C   LIG    1        4.463   1.037   1.413  0.00  0.00    +0.600 C 
ATOM     19  O   LIG    1        4.595  -0.148   1.174  0.00  0.00    -0.530 OA
BRANCH  18  20
ATOM     20  C   LIG    1        5.421   1.721   2.301  0.00  0.00    -0.230 A 
ATOM     21  C   LIG    1        6.578   2.346   1.940  0.00  0.00    +0.040 A 
ATOM     22  O   LIG    1        7.154   2.837   3.042  0.00  0.00    -0.170 OA
ATOM     23  C   LIG    1        6.418   2.561   4.130  0.00  0.00    -0.010 A 
ATOM     24  C   LIG    1        6.762   2.961   5.542  0.00  0.00    +0.190 C 
ATOM     25  C   LIG    1        7.117   2.462   0.538  0.00  0.00    +0.190 C 
ATOM     26  C   LIG    1        5.325   1.877   3.760  0.00  0.00    -0.150 A 
ATOM     27  C   LIG    1        4.225   1.370   4.656  0.00  0.00    +0.130 C 
ENDBRANCH  18  20
ENDBRANCH   1  16
TORSDOF 8
