REMARK  Name = ZINCpk00000xI6ja.0
REMARK                            x       y       z     vdW  Elec       q    Type
REMARK                         _______ _______ _______ _____ _____    ______ ____
ROOT
ATOM      1  N   LIG    1        5.476   1.744   4.080  0.00  0.00    -0.540 N 
ATOM      2  C   LIG    1        4.258   2.082   4.554  0.00  0.00    +0.600 A 
ATOM      3  C   LIG    1        3.123   1.872   3.747  0.00  0.00    -0.140 A 
ATOM      4  C   LIG    1        3.284   1.320   2.480  0.00  0.00    +0.340 A 
ATOM      5  N   LIG    1        4.560   0.994   2.051  0.00  0.00    -0.510 N 
ATOM      6  C   LIG    1        4.758   0.411   0.722  0.00  0.00    +0.350 C 
ATOM      7  N   LIG    1        2.072   1.222   1.931  0.00  0.00    -0.500 NA
ATOM      8  C   LIG    1        1.165   1.683   2.765  0.00  0.00    +0.530 A 
ATOM      9  N   LIG    1        1.765   2.094   3.905  0.00  0.00    -0.390 N 
ATOM     10  O   LIG    1        4.142   2.563   5.667  0.00  0.00    -0.500 OA
ATOM     11  C   LIG    1        5.618   1.211   2.854  0.00  0.00    +0.710 A 
ATOM     12  O   LIG    1        6.731   0.919   2.461  0.00  0.00    -0.530 OA
ENDROOT
BRANCH   8  13
ATOM     13  N   LIG    1       -0.200   1.734   2.515  0.00  0.00    -0.320 N 
ATOM     14  N   LIG    1       -1.193   2.113   3.428  0.00  0.00    -0.300 NA
ATOM     15  C   LIG    1       -2.352   2.035   2.828  0.00  0.00    +0.110 A 
ATOM     16  C   LIG    1       -2.141   1.610   1.511  0.00  0.00    -0.090 A 
ATOM     17  C   LIG    1       -3.688   2.356   3.447  0.00  0.00    +0.180 C 
ATOM     18  C   LIG    1       -0.812   1.425   1.340  0.00  0.00    +0.130 A 
ATOM     19  C   LIG    1       -0.132   0.967   0.076  0.00  0.00    +0.170 C 
ENDBRANCH   8  13
BRANCH   9  20
ATOM     20  C   LIG    1        1.106   2.665   5.082  0.00  0.00    +0.250 C 
ATOM     21  C   LIG    1        1.648   4.072   5.338  0.00  0.00    +0.050 C 
ATOM     22  C   LIG    1        1.383   1.782   6.300  0.00  0.00    +0.060 C 
ENDBRANCH   9  20
BRANCH   1  23
ATOM     23  C   LIG    1        6.660   1.960   4.915  0.00  0.00    +0.360 C 
BRANCH  23  25
ATOM     24  C   LIG    1        7.391   4.171   5.647  0.00  0.00    +0.050 C 
ATOM     25  C   LIG    1        7.215   3.336   4.654  0.00  0.00    -0.070 C 
ENDBRANCH  23  25
ENDBRANCH   1  23
TORSDOF 4
