REMARK  Name = ZINCvU0000000BFH.0
REMARK                            x       y       z     vdW  Elec       q    Type
REMARK                         _______ _______ _______ _____ _____    ______ ____
ROOT
ATOM      1  O   LIG    1        2.819   3.546   0.247  0.00  0.00    -0.480 OA
ATOM      2  C   LIG    1        1.645   3.235   0.169  0.00  0.00    +0.610 C 
ATOM      3  N   LIG    1        0.715   4.176  -0.085  0.00  0.00    -0.510 N 
ENDROOT
BRANCH   3   4
ATOM      4  C   LIG    1        1.101   5.477  -0.356  0.00  0.00    +0.320 A 
ATOM      5  N   LIG    1        0.293   6.446  -0.616  0.00  0.00    -0.510 NA
ATOM      6  C   LIG    1        0.822   7.661  -0.857  0.00  0.00    +0.110 A 
ATOM      7  C   LIG    1        0.158   8.870  -1.157  0.00  0.00    +0.060 A 
ATOM      8  C   LIG    1        0.874  10.019  -1.380  0.00  0.00    +0.030 A 
ATOM      9  C   LIG    1        2.259  10.012  -1.313  0.00  0.00    +0.020 A 
ATOM     10  C   LIG    1        2.929   8.845  -1.021  0.00  0.00    +0.070 A 
ATOM     11  C   LIG    1        2.219   7.669  -0.793  0.00  0.00    -0.220 A 
ATOM     12  S   LIG    1        2.766   6.040  -0.403  0.00  0.00    +0.170 S 
ENDBRANCH   3   4
BRANCH   2  13
ATOM     13  C   LIG    1        1.244   1.837   0.352  0.00  0.00    -0.050 A 
ATOM     14  C   LIG    1        2.087   0.773   0.497  0.00  0.00    +0.060 A 
ATOM     15  C   LIG    1        1.278  -0.365   0.642  0.00  0.00    -0.020 A 
ATOM     16  C   LIG    1       -0.007   0.049   0.580  0.00  0.00    +0.010 A 
ATOM     17  O   LIG    1       -0.023   1.377   0.405  0.00  0.00    -0.130 OA
BRANCH  16  18
ATOM     18  C   LIG    1       -1.221  -0.837   0.689  0.00  0.00    +0.320 C 
BRANCH  18  19
ATOM     19  O   LIG    1       -1.613  -0.941   2.059  0.00  0.00    -0.310 OA
BRANCH  19  20
ATOM     20  C   LIG    1       -2.700  -1.710   2.333  0.00  0.00    +0.130 A 
ATOM     21  C   LIG    1       -3.378  -2.346   1.303  0.00  0.00    -0.080 A 
ATOM     22  C   LIG    1       -4.479  -3.132   1.585  0.00  0.00    +0.050 A 
ATOM     23  C   LIG    1       -4.911  -3.275   2.890  0.00  0.00    -0.040 A 
ATOM     24  C   LIG    1       -4.240  -2.638   3.917  0.00  0.00    +0.050 A 
ATOM     25  C   LIG    1       -3.136  -1.856   3.642  0.00  0.00    -0.020 A 
ENDBRANCH  19  20
ENDBRANCH  18  19
ENDBRANCH  16  18
ENDBRANCH   2  13
BRANCH   3  26
ATOM     26  C   LIG    1       -0.707   3.822  -0.072  0.00  0.00    +0.330 C 
BRANCH  26  27
ATOM     27  C   LIG    1       -1.249   3.935   1.354  0.00  0.00    +0.130 C 
ATOM     28  C   LIG    1       -2.744   3.564   1.377  0.00  0.00    +0.020 C 
ATOM     29  C   LIG    1       -2.826   2.377   2.368  0.00  0.00    +0.010 C 
ATOM     30  C   LIG    1       -1.523   2.551   3.191  0.00  0.00    +0.200 C 
ATOM     31  O   LIG    1       -0.565   3.005   2.211  0.00  0.00    -0.360 OA
ENDBRANCH  26  27
ENDBRANCH   3  26
TORSDOF 7
