REMARK  Name = ZINCtV000002wXxM.0
REMARK                            x       y       z     vdW  Elec       q    Type
REMARK                         _______ _______ _______ _____ _____    ______ ____
ROOT
ATOM      1  C   LIG    1        1.139   1.954   0.097  0.00  0.00    +0.310 A 
ATOM      2  N   LIG    1       -0.021   1.387   0.214  0.00  0.00    -0.340 NA
ATOM      3  N   LIG    1       -0.008   0.012   0.287  0.00  0.00    -0.260 NA
ATOM      4  C   LIG    1        1.164  -0.541   0.229  0.00  0.00    +0.010 A 
ATOM      5  S   LIG    1        2.388   0.713   0.070  0.00  0.00    +0.090 S 
ENDROOT
BRANCH   1   6
ATOM      6  N   LIG    1        1.362   3.323   0.006  0.00  0.00    -0.620 N 
ATOM      7  H   LIG    1        2.268   3.668   0.006  0.00  0.00    +0.430 HD
BRANCH   6  11
ATOM      8  C   LIG    1       -1.867   5.946  -0.267  0.00  0.00    +0.120 A 
ATOM      9  C   LIG    1       -0.685   6.360   0.331  0.00  0.00    +0.010 A 
ATOM     10  C   LIG    1        0.385   5.492   0.421  0.00  0.00    +0.030 A 
ATOM     11  C   LIG    1        0.278   4.203  -0.085  0.00  0.00    +0.120 A 
ATOM     12  C   LIG    1       -0.904   3.791  -0.687  0.00  0.00    +0.060 A 
ATOM     13  C   LIG    1       -1.974   4.659  -0.773  0.00  0.00    -0.050 A 
BRANCH   8  14
ATOM     14  O   LIG    1       -2.920   6.802  -0.356  0.00  0.00    -0.320 OA
BRANCH  14  16
ATOM     15  C   LIG    1       -5.172   7.405  -0.991  0.00  0.00    +0.070 C 
ATOM     16  C   LIG    1       -4.105   6.309  -0.983  0.00  0.00    +0.170 C 
ENDBRANCH  14  16
ENDBRANCH   8  14
ENDBRANCH   6  11
ENDBRANCH   1   6
BRANCH   4  17
ATOM     17  S   LIG    1        1.480  -2.273   0.299  0.00  0.00    +0.040 S 
BRANCH  17  18
ATOM     18  C   LIG    1       -0.181  -2.985   0.461  0.00  0.00    +0.210 C 
BRANCH  18  19
ATOM     19  C   LIG    1       -0.079  -4.487   0.535  0.00  0.00    +0.080 A 
ATOM     20  C   LIG    1        0.053  -5.133   1.698  0.00  0.00    -0.030 A 
ATOM     21  S   LIG    1        0.137  -6.861   1.361  0.00  0.00    +0.120 S 
ATOM     22  C   LIG    1       -0.019  -6.528  -0.362  0.00  0.00    +0.120 A 
ATOM     23  N   LIG    1       -0.120  -5.242  -0.539  0.00  0.00    -0.450 NA
BRANCH  22  24
ATOM     24  C   LIG    1       -0.037  -7.546  -1.435  0.00  0.00    -0.030 A 
ATOM     25  C   LIG    1       -0.172  -7.156  -2.768  0.00  0.00    +0.090 A 
ATOM     26  C   LIG    1       -0.185  -8.109  -3.764  0.00  0.00    +0.030 A 
ATOM     27  C   LIG    1       -0.074  -9.452  -3.443  0.00  0.00    -0.020 A 
ATOM     28  C   LIG    1        0.055  -9.845  -2.122  0.00  0.00    +0.030 A 
ATOM     29 CL   LIG    1       -0.098 -10.647  -4.702  0.00  0.00    -0.060 Cl
ATOM     30  C   LIG    1        0.073  -8.900  -1.117  0.00  0.00    +0.060 A 
ENDBRANCH  22  24
ENDBRANCH  18  19
ENDBRANCH  17  18
ENDBRANCH   4  17
TORSDOF 8
