REMARK  Name = ZINCpe00000ccpDt.0
REMARK                            x       y       z     vdW  Elec       q    Type
REMARK                         _______ _______ _______ _____ _____    ______ ____
ROOT
ATOM      1  C   LIG    1       -1.859   4.251  -0.374  0.00  0.00    -0.010 C 
ATOM      2  C   LIG    1       -1.369   5.700  -0.422  0.00  0.00    +0.040 C 
ATOM      3  C   LIG    1       -1.536   6.244  -1.844  0.00  0.00    +0.280 C 
ATOM      4  N   LIG    1       -2.935   6.067  -2.257  0.00  0.00    -0.600 N 
ATOM      5  C   LIG    1       -3.535   4.729  -2.164  0.00  0.00    +0.280 C 
ATOM      6  C   LIG    1       -3.655   7.112  -2.711  0.00  0.00    +0.570 C 
ATOM      7  O   LIG    1       -4.788   6.940  -3.114  0.00  0.00    -0.520 OA
ATOM      8  C   LIG    1       -3.345   4.201  -0.739  0.00  0.00    +0.030 C 
ENDROOT
BRANCH   6   9
ATOM      9  C   LIG    1       -3.064   8.469  -2.720  0.00  0.00    -0.140 A 
ATOM     10  C   LIG    1       -3.760   9.547  -2.155  0.00  0.00    +0.310 A 
ATOM     11  N   LIG    1       -3.258  10.760  -2.151  0.00  0.00    -0.420 NA
ATOM     12  C   LIG    1       -2.069  11.022  -2.680  0.00  0.00    +0.070 A 
ATOM     13  C   LIG    1       -1.505  12.383  -2.675  0.00  0.00    +0.550 A 
ATOM     14  N   LIG    1       -0.294  12.597  -3.225  0.00  0.00    -0.630 N 
ATOM     15  H   LIG    1        0.070  13.495  -3.218  0.00  0.00    +0.420 HD
ATOM     16  C   LIG    1        0.438  11.594  -3.791  0.00  0.00    +0.300 A 
ATOM     17  C   LIG    1        0.000  10.325  -3.840  0.00  0.00    -0.050 A 
ATOM     18  O   LIG    1       -2.127  13.304  -2.179  0.00  0.00    -0.490 OA
ATOM     19  C   LIG    1       -1.304   9.991  -3.269  0.00  0.00    -0.050 A 
ATOM     20  C   LIG    1       -1.809   8.687  -3.285  0.00  0.00    +0.100 A 
ENDBRANCH   6   9
BRANCH   1  25
ATOM     21  O   LIG    1       -0.898   0.360   1.552  0.00  0.00    -0.520 OA
ATOM     22  C   LIG    1       -0.908   1.569   1.436  0.00  0.00    +0.640 C 
ATOM     23  N   LIG    1       -1.997   2.260   1.075  0.00  0.00    -0.730 N 
ATOM     24  H   LIG    1       -2.866   1.879   0.874  0.00  0.00    +0.440 HD
ATOM     25  C   LIG    1       -1.661   3.692   1.036  0.00  0.00    +0.210 C 
ATOM     26  C   LIG    1       -0.172   3.730   1.430  0.00  0.00    +0.260 C 
ATOM     27  O   LIG    1        0.170   2.332   1.652  0.00  0.00    -0.330 OA
ENDBRANCH   1  25
TORSDOF 2
