REMARK  Name = ZINCfA000000boWm.1
REMARK                            x       y       z     vdW  Elec       q    Type
REMARK                         _______ _______ _______ _____ _____    ______ ____
ROOT
ATOM      1  C   LIG    1       -2.274   3.848  -0.125  0.00  0.00    +0.420 C 
ENDROOT
BRANCH   1   2
ATOM      2  C   LIG    1       -1.088   2.951  -0.373  0.00  0.00    -0.110 A 
ATOM      3  C   LIG    1        0.170   3.499  -0.538  0.00  0.00    +0.050 A 
ATOM      4  C   LIG    1        1.258   2.677  -0.766  0.00  0.00    +0.070 A 
ATOM      5  C   LIG    1        1.090   1.307  -0.830  0.00  0.00    +0.040 A 
ATOM      6  C   LIG    1       -0.170   0.756  -0.666  0.00  0.00    +0.120 A 
ATOM      7  F   LIG    1       -0.335  -0.583  -0.728  0.00  0.00    -0.110 F 
ATOM      8  C   LIG    1       -1.261   1.580  -0.443  0.00  0.00    -0.060 A 
ATOM      9 CL   LIG    1       -2.842   0.892  -0.243  0.00  0.00    -0.030 Cl
ENDBRANCH   1   2
BRANCH   1  16
ATOM     10  C   LIG    1       -1.449   6.107  -2.078  0.00  0.00    +0.240 C 
ATOM     11  C   LIG    1       -2.585   5.134  -2.262  0.00  0.00    +0.320 C 
ATOM     12  N   LIG    1       -3.398   5.098  -3.282  0.00  0.00    -0.480 N 
ATOM     13  C   LIG    1       -4.281   4.104  -3.108  0.00  0.00    +0.240 C 
ATOM     14  C   LIG    1       -4.002   3.498  -1.939  0.00  0.00    +0.250 C 
ATOM     15  H   LIG    1       -3.368   5.696  -4.045  0.00  0.00    +0.460 HD
ATOM     16  N   LIG    1       -2.929   4.154  -1.399  0.00  0.00    -0.400 N 
ENDBRANCH   1  16
TORSDOF 2
