REMARK  Name = ZINCkj00000y7Hb2.1
REMARK                            x       y       z     vdW  Elec       q    Type
REMARK                         _______ _______ _______ _____ _____    ______ ____
ROOT
ATOM      1  S   LIG    1       -3.364   5.620   5.857  0.00  0.00    +2.690 S 
ATOM      2  O   LIG    1       -2.804   6.923   5.949  0.00  0.00    -0.940 OA
ATOM      3  O   LIG    1       -3.332   4.684   6.925  0.00  0.00    -0.940 OA
ENDROOT
BRANCH   1   7
ATOM      4  C   LIG    1       -1.352   3.611   2.332  0.00  0.00    +0.200 A 
ATOM      5  C   LIG    1       -1.919   2.843   3.339  0.00  0.00    -0.090 A 
ATOM      6  C   LIG    1       -2.527   3.459   4.416  0.00  0.00    +0.150 A 
ATOM      7  C   LIG    1       -2.581   4.839   4.486  0.00  0.00    -0.730 A 
ATOM      8  C   LIG    1       -2.021   5.606   3.481  0.00  0.00    +0.170 A 
ATOM      9  C   LIG    1       -1.407   4.995   2.404  0.00  0.00    -0.020 A 
BRANCH   4  10
ATOM     10  O   LIG    1       -0.748   3.008   1.275  0.00  0.00    -0.310 OA
BRANCH  10  12
ATOM     11  C   LIG    1       -0.013   1.086   0.008  0.00  0.00    +0.070 C 
ATOM     12  C   LIG    1       -0.729   1.579   1.267  0.00  0.00    +0.190 C 
ENDBRANCH  10  12
ENDBRANCH   4  10
ENDBRANCH   1   7
BRANCH   1  13
ATOM     13  N   LIG    1       -4.958   5.824   5.461  0.00  0.00    -1.120 NA
ATOM     14  H   LIG    1       -5.324   6.717   5.363  0.00  0.00    +0.420 HD
BRANCH  13  15
ATOM     15  C   LIG    1       -5.817   4.654   5.258  0.00  0.00    +0.270 C 
ATOM     16  C   LIG    1       -5.912   4.313   3.755  0.00  0.00    +0.260 C 
ATOM     17  N   LIG    1       -7.151   4.992   3.294  0.00  0.00    -0.400 N 
ATOM     18  C   LIG    1       -8.112   4.795   4.410  0.00  0.00    +0.280 C 
ATOM     19  C   LIG    1       -7.653   4.365   2.064  0.00  0.00    +0.330 C 
ATOM     20  H   LIG    1       -6.980   5.975   3.145  0.00  0.00    +0.430 HD
ATOM     21  C   LIG    1       -7.264   4.971   5.689  0.00  0.00    +0.010 C 
ATOM     22  C   LIG    1       -7.723   3.991   6.770  0.00  0.00    +0.070 C 
ENDBRANCH  13  15
ENDBRANCH   1  13
TORSDOF 5
