REMARK  Name = ZINCkj00000y7Hb2.0
REMARK                            x       y       z     vdW  Elec       q    Type
REMARK                         _______ _______ _______ _____ _____    ______ ____
ROOT
ATOM      1  S   LIG    1       -4.490   1.508   0.060  0.00  0.00    +2.690 S 
ATOM      2  O   LIG    1       -4.035   0.645  -0.974  0.00  0.00    -0.940 OA
ATOM      3  O   LIG    1       -5.251   2.682  -0.187  0.00  0.00    -0.940 OA
ENDROOT
BRANCH   1   7
ATOM      4  C   LIG    1       -6.960  -1.051   2.864  0.00  0.00    +0.200 A 
ATOM      5  C   LIG    1       -7.166   0.320   2.811  0.00  0.00    -0.020 A 
ATOM      6  C   LIG    1       -6.411   1.098   1.955  0.00  0.00    +0.170 A 
ATOM      7  C   LIG    1       -5.452   0.512   1.151  0.00  0.00    -0.730 A 
ATOM      8  C   LIG    1       -5.249  -0.855   1.197  0.00  0.00    +0.150 A 
ATOM      9  C   LIG    1       -5.997  -1.637   2.055  0.00  0.00    -0.090 A 
BRANCH   4  10
ATOM     10  O   LIG    1       -7.701  -1.819   3.705  0.00  0.00    -0.300 OA
BRANCH  10  12
ATOM     11  C   LIG    1       -8.360  -3.917   4.708  0.00  0.00    +0.070 C 
ATOM     12  C   LIG    1       -7.435  -3.223   3.706  0.00  0.00    +0.190 C 
ENDBRANCH  10  12
ENDBRANCH   4  10
ENDBRANCH   1   7
BRANCH   1  13
ATOM     13  N   LIG    1       -3.144   1.990   0.895  0.00  0.00    -1.100 NA
ATOM     14  H   LIG    1       -3.007   2.929   1.093  0.00  0.00    +0.430 HD
BRANCH  13  15
ATOM     15  C   LIG    1       -2.159   0.997   1.333  0.00  0.00    +0.270 C 
ATOM     16  C   LIG    1       -2.335   0.680   2.840  0.00  0.00    +0.260 C 
ATOM     17  N   LIG    1       -0.991   0.193   3.243  0.00  0.00    -0.390 N 
ATOM     18  C   LIG    1       -0.020   1.050   2.527  0.00  0.00    +0.270 C 
ATOM     19  C   LIG    1       -0.815   0.332   4.695  0.00  0.00    +0.330 C 
ATOM     20  H   LIG    1       -0.873  -0.771   2.968  0.00  0.00    +0.430 HD
ATOM     21  C   LIG    1       -0.729   1.579   1.267  0.00  0.00    +0.010 C 
ATOM     22  C   LIG    1       -0.013   1.086   0.008  0.00  0.00    +0.070 C 
ENDBRANCH  13  15
ENDBRANCH   1  13
TORSDOF 5
