REMARK  Name = ZINCrg00000SjSrU.0
REMARK                            x       y       z     vdW  Elec       q    Type
REMARK                         _______ _______ _______ _____ _____    ______ ____
ROOT
ATOM      1  N   LIG    1       -0.022   1.922  -0.514  0.00  0.00    -0.510 NA
ATOM      2  C   LIG    1        1.266   2.627  -0.474  0.00  0.00    +0.170 C 
ATOM      3  C   LIG    1        1.351   3.458   0.811  0.00  0.00    +0.310 C 
ATOM      4  N   LIG    1        1.090   2.573   1.956  0.00  0.00    -1.000 NA
ATOM      5  C   LIG    1       -0.115   1.731   1.926  0.00  0.00    +0.320 C 
ATOM      6  C   LIG    1       -0.142   0.968   0.597  0.00  0.00    +0.170 C 
ENDROOT
BRANCH   4   7
ATOM      7  S   LIG    1        2.127   2.527   3.248  0.00  0.00    +2.690 S 
ATOM      8  O   LIG    1        1.385   1.998   4.338  0.00  0.00    -0.930 OA
ATOM      9  O   LIG    1        2.773   3.792   3.288  0.00  0.00    -0.920 OA
BRANCH   7  10
ATOM     10  C   LIG    1        3.375   1.342   2.872  0.00  0.00    -0.620 A 
ATOM     11  C   LIG    1        3.207   0.473   1.811  0.00  0.00    +0.110 A 
ATOM     12  C   LIG    1        4.189  -0.453   1.513  0.00  0.00    +0.070 A 
ATOM     13  C   LIG    1        5.334  -0.518   2.284  0.00  0.00    +0.090 A 
ATOM     14  C   LIG    1        5.500   0.348   3.349  0.00  0.00    +0.110 A 
ATOM     15  C   LIG    1        4.521   1.278   3.643  0.00  0.00    +0.040 A 
BRANCH  15  16
ATOM     16  N   LIG    1        4.699   2.204   4.784  0.00  0.00    +0.010 N 
ATOM     17  O   LIG    1        3.787   2.938   5.120  0.00  0.00    -0.150 OA
ATOM     18  O   LIG    1        5.757   2.232   5.387  0.00  0.00    -0.110 OA
ENDBRANCH  15  16
ENDBRANCH   7  10
ENDBRANCH   4   7
BRANCH   1  19
ATOM     19  C   LIG    1       -0.216   1.252  -1.807  0.00  0.00    +0.130 C 
BRANCH  19  20
ATOM     20  C   LIG    1       -1.588   0.630  -1.849  0.00  0.00    +0.520 C 
ATOM     21  N   LIG    1       -1.766  -0.570  -2.436  0.00  0.00    -0.630 N 
ATOM     22  C   LIG    1       -0.610  -1.321  -2.933  0.00  0.00    +0.280 C 
ATOM     23  C   LIG    1       -3.115  -1.124  -2.576  0.00  0.00    +0.290 C 
ATOM     24  O   LIG    1       -2.532   1.210  -1.356  0.00  0.00    -0.510 OA
ENDBRANCH  19  20
BRANCH  19  26
ATOM     25  C   LIG    1       -0.355   1.591  -4.278  0.00  0.00    +0.030 C 
ATOM     26  C   LIG    1       -0.084   2.275  -2.937  0.00  0.00    +0.000 C 
ATOM     27  C   LIG    1       -1.097   3.402  -2.725  0.00  0.00    +0.040 C 
ENDBRANCH  19  26
ENDBRANCH   1  19
TORSDOF 6
