REMARK  Name = ZINCnE000008J7sq.0
REMARK                            x       y       z     vdW  Elec       q    Type
REMARK                         _______ _______ _______ _____ _____    ______ ____
ROOT
ATOM      1  S   LIG    1       -2.733   0.849   0.020  0.00  0.00    +2.670 S 
ATOM      2  O   LIG    1       -2.441  -0.427  -0.533  0.00  0.00    -0.940 OA
ATOM      3  O   LIG    1       -3.720   1.720  -0.515  0.00  0.00    -0.940 OA
ENDROOT
BRANCH   1   7
ATOM      4  C   LIG    1        1.156   3.165   0.008  0.00  0.00    -0.020 A 
ATOM      5  C   LIG    1        1.175   1.783   0.000  0.00  0.00    -0.010 A 
ATOM      6  C   LIG    1       -0.013   1.076   0.008  0.00  0.00    +0.130 A 
ATOM      7  C   LIG    1       -1.219   1.751   0.017  0.00  0.00    -0.700 A 
ATOM      8  C   LIG    1       -1.238   3.133   0.030  0.00  0.00    +0.130 A 
ATOM      9  C   LIG    1       -0.050   3.840   0.022  0.00  0.00    +0.000 A 
BRANCH   4  11
ATOM     10  C   LIG    1        3.246   3.584  -1.260  0.00  0.00    +0.040 C 
ATOM     11  C   LIG    1        2.451   3.937  -0.001  0.00  0.00    -0.040 C 
ATOM     12  C   LIG    1        3.270   3.572   1.238  0.00  0.00    +0.040 C 
ATOM     13  C   LIG    1        2.151   5.437   0.009  0.00  0.00    +0.030 C 
ENDBRANCH   4  11
ENDBRANCH   1   7
BRANCH   1  14
ATOM     14  O   LIG    1       -3.113   0.611   1.474  0.00  0.00    -0.660 OA
BRANCH  14  15
ATOM     15  C   LIG    1       -3.601   1.711   2.105  0.00  0.00    +0.030 A 
ATOM     16  C   LIG    1       -2.736   2.568   2.773  0.00  0.00    +0.000 A 
ATOM     17  C   LIG    1       -3.225   3.692   3.413  0.00  0.00    +0.010 A 
ATOM     18  C   LIG    1       -4.577   3.965   3.402  0.00  0.00    +0.080 A 
ATOM     19  C   LIG    1       -5.456   3.105   2.738  0.00  0.00    -0.120 A 
ATOM     20  C   LIG    1       -4.960   1.973   2.088  0.00  0.00    +0.090 A 
BRANCH  19  21
ATOM     21  C   LIG    1       -6.904   3.392   2.724  0.00  0.00    +0.520 C 
ATOM     22  O   LIG    1       -7.336   4.384   3.294  0.00  0.00    -0.680 OA
ATOM     23  O   LIG    1       -7.671   2.638   2.143  0.00  0.00    -0.680 OA
ENDBRANCH  19  21
ENDBRANCH  14  15
ENDBRANCH   1  14
TORSDOF 5
