REMARK  Name = ZINCkj000005g3d0.1
REMARK                            x       y       z     vdW  Elec       q    Type
REMARK                         _______ _______ _______ _____ _____    ______ ____
ROOT
ATOM      1  N   LIG    1        0.537  -0.531   1.760  0.00  0.00    -0.390 N 
ATOM      2  C   LIG    1        1.924  -0.054   1.685  0.00  0.00    +0.270 C 
ATOM      3  C   LIG    1        1.933   1.468   1.530  0.00  0.00    +0.140 C 
ATOM      4  N   LIG    1        1.204   1.836   0.308  0.00  0.00    -0.510 NA
ATOM      5  C   LIG    1       -0.180   1.343   0.357  0.00  0.00    +0.210 C 
ATOM      6  C   LIG    1        3.377   1.963   1.431  0.00  0.00    +0.090 C 
ATOM      7  C   LIG    1       -0.171  -0.178   0.523  0.00  0.00    +0.170 C 
ATOM      8  C   LIG    1        0.539  -0.817  -0.672  0.00  0.00    +0.100 C 
ATOM      9  H   LIG    1        0.075  -0.100   2.547  0.00  0.00    +0.420 HD
ENDROOT
BRANCH   1  11
ATOM     10  C   LIG    1        1.157  -2.352   3.276  0.00  0.00    +0.080 C 
ATOM     11  C   LIG    1        0.530  -1.991   1.928  0.00  0.00    +0.250 C 
ENDBRANCH   1  11
BRANCH   4  12
ATOM     12  C   LIG    1        1.238   3.289   0.092  0.00  0.00    +0.380 C 
BRANCH  12  13
ATOM     13  C   LIG    1        0.598   3.986   1.265  0.00  0.00    +0.130 A 
ATOM     14  N   LIG    1        0.982   3.924   2.517  0.00  0.00    -0.300 NA
ATOM     15  N   LIG    1        0.183   4.655   3.215  0.00  0.00    -0.070 NA
ATOM     16  N   LIG    1       -0.700   5.182   2.441  0.00  0.00    -0.070 NA
ATOM     17  N   LIG    1       -0.475   4.798   1.230  0.00  0.00    -0.280 N 
BRANCH  17  18
ATOM     18  C   LIG    1       -1.244   5.172   0.041  0.00  0.00    +0.160 C 
ATOM     19  C   LIG    1       -0.328   5.883  -0.957  0.00  0.00    +0.080 C 
ATOM     20  C   LIG    1       -2.384   6.110   0.445  0.00  0.00    +0.090 C 
ATOM     21  C   LIG    1       -1.825   3.914  -0.607  0.00  0.00    +0.070 C 
ENDBRANCH  17  18
ENDBRANCH  12  13
ENDBRANCH   4  12
TORSDOF 4
