REMARK  Name = ZINCkj000005g3d0.0
REMARK                            x       y       z     vdW  Elec       q    Type
REMARK                         _______ _______ _______ _____ _____    ______ ____
ROOT
ATOM      1  N   LIG    1       -0.031  -0.443   2.687  0.00  0.00    -0.390 N 
ATOM      2  C   LIG    1       -0.191   1.014   2.785  0.00  0.00    +0.280 C 
ATOM      3  C   LIG    1       -0.869   1.539   1.518  0.00  0.00    +0.200 C 
ATOM      4  N   LIG    1       -2.181   0.894   1.365  0.00  0.00    -0.530 NA
ATOM      5  C   LIG    1       -2.039  -0.567   1.290  0.00  0.00    +0.220 C 
ATOM      6  C   LIG    1        0.002   1.219   0.302  0.00  0.00    +0.030 C 
ATOM      7  C   LIG    1       -1.350  -1.075   2.559  0.00  0.00    +0.170 C 
ATOM      8  C   LIG    1       -1.183  -2.593   2.475  0.00  0.00    +0.100 C 
ATOM      9  H   LIG    1        0.528  -0.666   1.877  0.00  0.00    +0.420 HD
ENDROOT
BRANCH   1  11
ATOM     10  C   LIG    1        2.059  -0.385   3.962  0.00  0.00    +0.080 C 
ATOM     11  C   LIG    1        0.637  -0.945   3.895  0.00  0.00    +0.240 C 
ENDBRANCH   1  11
BRANCH   4  12
ATOM     12  C   LIG    1       -2.890   1.415   0.189  0.00  0.00    +0.340 C 
BRANCH  12  13
ATOM     13  C   LIG    1       -4.187   0.669   0.013  0.00  0.00    +0.170 A 
ATOM     14  N   LIG    1       -4.358  -0.467  -0.619  0.00  0.00    -0.300 NA
ATOM     15  N   LIG    1       -5.606  -0.777  -0.549  0.00  0.00    -0.070 NA
ATOM     16  N   LIG    1       -6.237   0.131   0.111  0.00  0.00    -0.080 NA
ATOM     17  N   LIG    1       -5.395   1.037   0.479  0.00  0.00    -0.280 N 
BRANCH  17  18
ATOM     18  C   LIG    1       -5.698   2.242   1.255  0.00  0.00    +0.160 C 
ATOM     19  C   LIG    1       -4.758   2.323   2.459  0.00  0.00    +0.080 C 
ATOM     20  C   LIG    1       -7.147   2.184   1.742  0.00  0.00    +0.080 C 
ATOM     21  C   LIG    1       -5.506   3.478   0.374  0.00  0.00    +0.070 C 
ENDBRANCH  17  18
ENDBRANCH  12  13
ENDBRANCH   4  12
TORSDOF 4
