REMARK  Name = ZINCtj00000nxSVe.1
REMARK                            x       y       z     vdW  Elec       q    Type
REMARK                         _______ _______ _______ _____ _____    ______ ____
ROOT
ATOM      1  O   LIG    1       -1.612   2.306   3.704  0.00  0.00    -0.560 OA
ATOM      2  C   LIG    1       -0.586   1.658   3.629  0.00  0.00    +0.710 C 
ATOM      3  N   LIG    1        0.059   1.286   4.753  0.00  0.00    -0.620 N 
ATOM      4  C   LIG    1        1.361   0.605   4.685  0.00  0.00    +0.260 C 
ATOM      5  C   LIG    1        2.342   1.348   5.605  0.00  0.00    +0.200 C 
ATOM      6  N   LIG    1        1.763   1.449   6.952  0.00  0.00    -0.480 N 
ATOM      7  C   LIG    1        0.531   2.247   6.943  0.00  0.00    +0.190 C 
ATOM      8  C   LIG    1       -0.523   1.546   6.079  0.00  0.00    +0.320 C 
ATOM      9  N   LIG    1       -0.094   1.311   2.424  0.00  0.00    -0.770 N 
ATOM     10  H   LIG    1        0.680   0.730   2.365  0.00  0.00    +0.390 HD
ENDROOT
BRANCH   6  11
ATOM     11  C   LIG    1        2.692   1.969   7.859  0.00  0.00    +0.080 A 
ATOM     12  C   LIG    1        2.369   2.067   9.205  0.00  0.00    +0.030 A 
ATOM     13  C   LIG    1        3.291   2.575  10.100  0.00  0.00    +0.040 A 
ATOM     14  C   LIG    1        4.529   2.999   9.655  0.00  0.00    +0.030 A 
ATOM     15  C   LIG    1        4.853   2.910   8.313  0.00  0.00    +0.010 A 
ATOM     16  C   LIG    1        3.938   2.396   7.413  0.00  0.00    +0.050 A 
ATOM     17  F   LIG    1        4.255   2.309   6.102  0.00  0.00    -0.140 F 
ENDBRANCH   6  11
BRANCH   9  18
ATOM     18  C   LIG    1       -0.728   1.813   1.202  0.00  0.00    +0.330 C 
BRANCH  18  19
ATOM     19  C   LIG    1        0.091   1.376  -0.014  0.00  0.00    +0.170 C 
BRANCH  19  20
ATOM     20  N   LIG    1        0.178  -0.090  -0.044  0.00  0.00    -0.380 N 
ATOM     21  C   LIG    1        0.979  -0.510  -1.202  0.00  0.00    +0.240 C 
ATOM     22  C   LIG    1        1.069  -2.038  -1.231  0.00  0.00    +0.260 C 
ATOM     23  O   LIG    1       -0.251  -2.587  -1.279  0.00  0.00    -0.350 OA
ATOM     24  C   LIG    1       -1.079  -2.187  -0.183  0.00  0.00    +0.270 C 
ATOM     25  C   LIG    1       -1.172  -0.660  -0.152  0.00  0.00    +0.230 C 
ATOM     26  H   LIG    1        0.615  -0.419   0.804  0.00  0.00    +0.420 HD
ENDBRANCH  19  20
BRANCH  19  27
ATOM     27  C   LIG    1       -0.589   1.872  -1.292  0.00  0.00    -0.030 C 
ATOM     28  C   LIG    1       -0.490   3.414  -1.394  0.00  0.00    +0.040 C 
ATOM     29  C   LIG    1       -1.897   3.792  -1.929  0.00  0.00    +0.220 C 
ATOM     30  O   LIG    1       -2.775   2.861  -1.261  0.00  0.00    -0.360 OA
ATOM     31  C   LIG    1       -2.103   1.590  -1.242  0.00  0.00    +0.190 C 
ENDBRANCH  19  27
ENDBRANCH  18  19
ENDBRANCH   9  18
TORSDOF 5
