REMARK  Name = ZINCkj000005k7Nf.1
REMARK                            x       y       z     vdW  Elec       q    Type
REMARK                         _______ _______ _______ _____ _____    ______ ____
ROOT
ATOM      1  N   LIG    1       -0.698   1.558   1.213  0.00  0.00    -0.710 N 
ATOM      2  H   LIG    1       -1.495   2.106   1.135  0.00  0.00    +0.410 HD
ATOM      3  C   LIG    1       -0.222   1.232   2.431  0.00  0.00    +0.490 C 
ATOM      4  O   LIG    1        0.774   0.548   2.529  0.00  0.00    -0.520 OA
ENDROOT
BRANCH   1   5
ATOM      5  C   LIG    1       -0.013   1.086   0.008  0.00  0.00    +0.370 C 
BRANCH   5   8
ATOM      6  C   LIG    1        0.214   3.950  -1.229  0.00  0.00    +0.150 C 
ATOM      7  C   LIG    1       -0.643   2.824  -1.748  0.00  0.00    +0.110 A 
ATOM      8  C   LIG    1       -0.742   1.585  -1.213  0.00  0.00    -0.280 A 
ATOM      9  C   LIG    1       -1.635   0.848  -1.997  0.00  0.00    +0.260 A 
ATOM     10  N   LIG    1       -2.064   1.619  -2.962  0.00  0.00    -0.290 NA
ATOM     11  N   LIG    1       -1.450   2.871  -2.828  0.00  0.00    -0.370 N 
ATOM     12  C   LIG    1       -1.649   4.027  -3.706  0.00  0.00    +0.360 C 
ENDBRANCH   5   8
ENDBRANCH   1   5
BRANCH   3  13
ATOM     13  C   LIG    1       -0.927   1.718   3.671  0.00  0.00    +0.380 C 
BRANCH  13  14
ATOM     14  N   LIG    1       -0.219   1.233   4.858  0.00  0.00    -0.400 N 
ATOM     15  C   LIG    1       -0.511   0.103   5.573  0.00  0.00    +0.250 C 
ATOM     16  C   LIG    1        0.383   0.035   6.578  0.00  0.00    +0.240 C 
ATOM     17  N   LIG    1        1.199   1.095   6.479  0.00  0.00    -0.470 N 
ATOM     18  H   LIG    1        1.937   1.294   7.077  0.00  0.00    +0.460 HD
ATOM     19  C   LIG    1        0.849   1.814   5.447  0.00  0.00    +0.330 C 
BRANCH  19  20
ATOM     20  C   LIG    1        1.521   3.083   4.992  0.00  0.00    +0.080 C 
ATOM     21  C   LIG    1        2.710   2.737   4.094  0.00  0.00    +0.080 C 
ATOM     22  C   LIG    1        2.013   3.866   6.211  0.00  0.00    +0.080 C 
ENDBRANCH  19  20
ENDBRANCH  13  14
ENDBRANCH   3  13
TORSDOF 5
