REMARK  Name = ZINCrH000004vGPz.0
REMARK                            x       y       z     vdW  Elec       q    Type
REMARK                         _______ _______ _______ _____ _____    ______ ____
ROOT
ATOM      1  C   LIG    1        4.409   3.516   1.816  0.00  0.00    -0.090 A 
ATOM      2  C   LIG    1        4.485   4.897   1.855  0.00  0.00    +0.040 A 
ATOM      3  C   LIG    1        3.427   5.662   1.410  0.00  0.00    +0.080 A 
ATOM      4  C   LIG    1        2.278   5.040   0.919  0.00  0.00    -0.130 A 
ATOM      5  C   LIG    1        2.206   3.646   0.886  0.00  0.00    +0.040 A 
ATOM      6  C   LIG    1        3.274   2.893   1.329  0.00  0.00    +0.040 A 
ENDROOT
BRANCH   4   7
ATOM      7  C   LIG    1        1.141   5.854   0.440  0.00  0.00    +0.560 C 
ATOM      8  N   LIG    1        0.387   5.419  -0.589  0.00  0.00    -0.550 N 
ATOM      9  C   LIG    1        0.812   4.222  -1.310  0.00  0.00    +0.310 C 
ATOM     10  C   LIG    1        0.894   4.555  -2.807  0.00  0.00    +0.100 C 
ATOM     11  S   LIG    1       -0.789   4.913  -3.391  0.00  0.00    -0.090 S 
ATOM     12  C   LIG    1       -1.397   6.015  -2.155  0.00  0.00    -0.110 A 
ATOM     13  C   LIG    1       -2.534   6.768  -2.429  0.00  0.00    +0.070 A 
ATOM     14  C   LIG    1       -3.041   7.634  -1.480  0.00  0.00    +0.030 A 
ATOM     15  C   LIG    1       -2.422   7.746  -0.248  0.00  0.00    -0.020 A 
ATOM     16  C   LIG    1       -1.293   7.001   0.032  0.00  0.00    +0.050 A 
ATOM     17 CL   LIG    1       -3.066   8.827   0.949  0.00  0.00    -0.060 Cl
ATOM     18  C   LIG    1       -0.767   6.131  -0.920  0.00  0.00    +0.160 A 
ATOM     19  O   LIG    1        0.885   6.915   0.975  0.00  0.00    -0.490 OA
ENDBRANCH   4   7
BRANCH   1  20
ATOM     20  C   LIG    1        5.569   2.687   2.304  0.00  0.00    +0.360 C 
BRANCH  20  27
ATOM     21  O   LIG    1        6.520   4.234   4.494  0.00  0.00    -0.480 OA
ATOM     22  C   LIG    1        5.896   3.212   4.687  0.00  0.00    +0.530 C 
ATOM     23  C   LIG    1        5.547   2.643   6.045  0.00  0.00    +0.080 C 
ATOM     24  C   LIG    1        4.769   1.355   5.707  0.00  0.00    +0.080 C 
ATOM     25  C   LIG    1        4.755   1.335   4.194  0.00  0.00    +0.530 C 
ATOM     26  O   LIG    1        4.237   0.481   3.508  0.00  0.00    -0.480 OA
ATOM     27  N   LIG    1        5.404   2.412   3.734  0.00  0.00    -0.570 N 
ENDBRANCH  20  27
ENDBRANCH   1  20
TORSDOF 3
