REMARK  Name = ZINCtV000002OcDu.0
REMARK                            x       y       z     vdW  Elec       q    Type
REMARK                         _______ _______ _______ _____ _____    ______ ____
ROOT
ATOM      1  C   LIG    1        4.873   1.124   0.073  0.00  0.00    +0.130 A 
ATOM      2  C   LIG    1        4.958  -0.262   0.054  0.00  0.00    +0.090 A 
ATOM      3  C   LIG    1        6.192  -0.879   0.120  0.00  0.00    +0.060 A 
ATOM      4  C   LIG    1        7.347  -0.114   0.205  0.00  0.00    +0.190 A 
ATOM      5  C   LIG    1        7.262   1.273   0.223  0.00  0.00    -0.190 A 
ATOM      6  C   LIG    1        6.029   1.889   0.152  0.00  0.00    +0.070 A 
ENDROOT
BRANCH   1   9
ATOM      7  O   LIG    1        2.657   0.093   1.127  0.00  0.00    -0.510 OA
ATOM      8  C   LIG    1        2.554   1.185   0.602  0.00  0.00    +0.570 C 
ATOM      9  N   LIG    1        3.622   1.749   0.005  0.00  0.00    -0.670 N 
ATOM     10  H   LIG    1        3.525   2.588  -0.471  0.00  0.00    +0.410 HD
BRANCH   8  11
ATOM     11  C   LIG    1        1.258   1.893   0.618  0.00  0.00    -0.150 A 
ATOM     12  C   LIG    1        0.148   1.310   1.236  0.00  0.00    +0.130 A 
ATOM     13  C   LIG    1       -1.060   1.972   1.243  0.00  0.00    -0.010 A 
ATOM     14  C   LIG    1       -1.174   3.220   0.648  0.00  0.00    +0.130 A 
ATOM     15  C   LIG    1       -0.076   3.803   0.034  0.00  0.00    -0.010 A 
ATOM     16  F   LIG    1       -2.360   3.867   0.661  0.00  0.00    -0.130 F 
ATOM     17  C   LIG    1        1.136   3.147   0.016  0.00  0.00    +0.090 A 
ENDBRANCH   8  11
ENDBRANCH   1   9
BRANCH   5  18
ATOM     18  C   LIG    1        8.516   2.104   0.314  0.00  0.00    +0.510 C 
ATOM     19  F   LIG    1        9.338   1.830  -0.785  0.00  0.00    -0.170 F 
ATOM     20  F   LIG    1        9.197   1.792   1.495  0.00  0.00    -0.180 F 
ATOM     21  F   LIG    1        8.177   3.461   0.316  0.00  0.00    -0.170 F 
ENDBRANCH   5  18
BRANCH   4  22
ATOM     22  N   LIG    1        8.598  -0.739   0.271  0.00  0.00    -0.680 N 
ATOM     23  H   LIG    1        9.309  -0.347   0.802  0.00  0.00    +0.410 HD
ATOM     24  C   LIG    1        8.814  -1.886  -0.403  0.00  0.00    +0.600 C 
ATOM     25  O   LIG    1        7.900  -2.422  -1.001  0.00  0.00    -0.490 OA
BRANCH  24  26
ATOM     26  C   LIG    1       10.150  -2.487  -0.415  0.00  0.00    -0.270 A 
ATOM     27  C   LIG    1       10.492  -3.646  -1.054  0.00  0.00    +0.130 A 
ATOM     28  C   LIG    1       11.817  -3.979  -0.905  0.00  0.00    +0.050 A 
ATOM     29  C   LIG    1       12.535  -3.128  -0.160  0.00  0.00    -0.220 A 
ATOM     30 BR   LIG    1       14.376  -3.331   0.224  0.00  0.00    +0.030 Br
ATOM     31  S   LIG    1       11.568  -1.838   0.397  0.00  0.00    +0.260 S 
ENDBRANCH  24  26
ENDBRANCH   4  22
TORSDOF 5
