REMARK  Name = ZINCtV00001bB3nX.0
REMARK                            x       y       z     vdW  Elec       q    Type
REMARK                         _______ _______ _______ _____ _____    ______ ____
ROOT
ATOM      1  C   LIG    1       -2.448   1.035   0.019  0.00  0.00    -0.190 A 
ATOM      2  C   LIG    1       -1.219   1.641   0.017  0.00  0.00    +0.050 A 
ATOM      3  S   LIG    1       -1.376   3.338   0.034  0.00  0.00    +0.330 S 
ATOM      4  C   LIG    1       -3.128   3.259   0.035  0.00  0.00    -0.090 A 
ATOM      5  C   LIG    1       -3.546   1.988   0.030  0.00  0.00    -0.010 A 
ENDROOT
BRANCH   5   6
ATOM      6  C   LIG    1       -4.974   1.593   0.036  0.00  0.00    -0.030 A 
ATOM      7  C   LIG    1       -5.448   0.669  -0.894  0.00  0.00    +0.050 A 
ATOM      8  C   LIG    1       -6.778   0.301  -0.882  0.00  0.00    +0.030 A 
ATOM      9  C   LIG    1       -7.644   0.857   0.045  0.00  0.00    -0.030 A 
ATOM     10  C   LIG    1       -7.179   1.778   0.968  0.00  0.00    +0.030 A 
ATOM     11 CL   LIG    1       -9.317   0.395   0.051  0.00  0.00    -0.070 Cl
ATOM     12  C   LIG    1       -5.850   2.149   0.967  0.00  0.00    +0.050 A 
ENDBRANCH   5   6
BRANCH   2  13
ATOM     13  N   LIG    1       -0.011   0.966   0.007  0.00  0.00    -0.630 N 
ATOM     14  H   LIG    1        0.002  -0.004   0.002  0.00  0.00    +0.420 HD
ATOM     15  C   LIG    1        1.147   1.655   0.000  0.00  0.00    +0.550 C 
ATOM     16  O   LIG    1        1.130   2.873   0.007  0.00  0.00    -0.500 OA
BRANCH  15  17
ATOM     17  C   LIG    1        2.424   0.941  -0.016  0.00  0.00    -0.080 C 
ATOM     18  C   LIG    1        3.583   1.631  -0.023  0.00  0.00    +0.160 C 
BRANCH  18  19
ATOM     19  C   LIG    1        4.867   0.913  -0.040  0.00  0.00    -0.070 A 
ATOM     20  C   LIG    1        6.071   1.625  -0.047  0.00  0.00    +0.060 A 
ATOM     21  C   LIG    1        7.270   0.945  -0.062  0.00  0.00    +0.030 A 
ATOM     22  C   LIG    1        7.286  -0.439  -0.068  0.00  0.00    +0.050 A 
ATOM     23  C   LIG    1        6.098  -1.152  -0.061  0.00  0.00    -0.040 A 
ATOM     24 CL   LIG    1        6.130  -2.887  -0.070  0.00  0.00    -0.060 Cl
ATOM     25  C   LIG    1        4.890  -0.486  -0.041  0.00  0.00    +0.050 A 
ENDBRANCH  18  19
ENDBRANCH  15  17
ENDBRANCH   2  13
BRANCH   1  26
ATOM     26  C   LIG    1       -2.634  -0.416   0.012  0.00  0.00    +0.540 C 
ATOM     27  O   LIG    1       -2.707  -1.025   1.063  0.00  0.00    -0.490 OA
BRANCH  26  28
ATOM     28  O   LIG    1       -2.727  -1.078  -1.159  0.00  0.00    -0.350 OA
BRANCH  28  30
ATOM     29  C   LIG    1       -2.991  -3.066  -2.508  0.00  0.00    +0.070 C 
ATOM     30  C   LIG    1       -2.909  -2.494  -1.091  0.00  0.00    +0.200 C 
ENDBRANCH  28  30
ENDBRANCH  26  28
ENDBRANCH   1  26
TORSDOF 7
