REMARK  Name = ZINCnE000004R8n7.0
REMARK                            x       y       z     vdW  Elec       q    Type
REMARK                         _______ _______ _______ _____ _____    ______ ____
ROOT
ATOM      1  C   LIG    1       -2.817   2.463   4.810  0.00  0.00    +0.070 C 
ATOM      2  N   LIG    1       -2.213   2.371   5.955  0.00  0.00    -0.200 NA
ATOM      3  C   LIG    1       -4.285   2.804   4.758  0.00  0.00    +0.080 C 
ENDROOT
BRANCH   1   8
ATOM      4  C   LIG    1        0.102   1.572  -0.064  0.00  0.00    +0.130 C 
ATOM      5  C   LIG    1       -0.663   1.805   1.214  0.00  0.00    -0.020 A 
ATOM      6  C   LIG    1       -2.009   2.123   1.162  0.00  0.00    +0.030 A 
ATOM      7  C   LIG    1       -2.716   2.332   2.327  0.00  0.00    +0.100 A 
ATOM      8  C   LIG    1       -2.069   2.234   3.561  0.00  0.00    -0.020 A 
ATOM      9  C   LIG    1       -0.709   1.918   3.605  0.00  0.00    +0.130 A 
ATOM     10  C   LIG    1       -0.015   1.706   2.432  0.00  0.00    -0.050 A 
BRANCH  10  11
ATOM     11  N   LIG    1        1.426   1.371   2.477  0.00  0.00    +0.030 N 
ATOM     12  O   LIG    1        2.013   1.067   1.454  0.00  0.00    -0.160 OA
ATOM     13  O   LIG    1        2.026   1.401   3.537  0.00  0.00    -0.160 OA
ENDBRANCH  10  11
ENDBRANCH   1   8
BRANCH   2  14
ATOM     14  N   LIG    1       -2.924   2.589   7.143  0.00  0.00    -0.560 N 
ATOM     15  H   LIG    1       -3.868   2.808   7.109  0.00  0.00    +0.390 HD
BRANCH  14  16
ATOM     16  C   LIG    1       -2.277   2.491   8.367  0.00  0.00    +0.180 A 
ATOM     17  C   LIG    1       -0.922   2.170   8.414  0.00  0.00    -0.050 A 
ATOM     18  C   LIG    1       -0.281   2.078   9.616  0.00  0.00    +0.080 A 
ATOM     19  C   LIG    1       -0.990   2.295  10.803  0.00  0.00    -0.160 A 
ATOM     20  C   LIG    1       -2.353   2.611  10.753  0.00  0.00    +0.080 A 
ATOM     21  C   LIG    1       -2.986   2.708   9.547  0.00  0.00    -0.080 A 
BRANCH  19  22
ATOM     22  C   LIG    1       -0.305   2.190  12.101  0.00  0.00    +0.520 C 
ATOM     23  O   LIG    1        0.886   1.913  12.143  0.00  0.00    -0.690 OA
ATOM     24  O   LIG    1       -0.926   2.379  13.138  0.00  0.00    -0.690 OA
ENDBRANCH  19  22
ENDBRANCH  14  16
ENDBRANCH   2  14
TORSDOF 5
