REMARK  Name = ZINCrD0000072lKM.0
REMARK                            x       y       z     vdW  Elec       q    Type
REMARK                         _______ _______ _______ _____ _____    ______ ____
ROOT
ATOM      1  C   LIG    1        3.478   1.724   2.211  0.00  0.00    +0.220 C 
ENDROOT
BRANCH   1   2
ATOM      2  C   LIG    1        3.747   2.964   3.024  0.00  0.00    +0.520 C 
ATOM      3  N   LIG    1        3.320   3.040   4.300  0.00  0.00    -0.560 N 
ATOM      4  C   LIG    1        2.583   1.929   4.920  0.00  0.00    +0.330 C 
ATOM      5  C   LIG    1        1.446   2.482   5.733  0.00  0.00    +0.510 C 
ATOM      6  N   LIG    1        1.525   3.706   6.288  0.00  0.00    -0.660 N 
ATOM      7  H   LIG    1        0.793   4.032   6.836  0.00  0.00    +0.420 HD
ATOM      8  C   LIG    1        2.649   4.513   6.084  0.00  0.00    +0.130 A 
ATOM      9  C   LIG    1        2.869   5.634   6.867  0.00  0.00    +0.000 A 
ATOM     10  C   LIG    1        3.984   6.422   6.645  0.00  0.00    +0.030 A 
ATOM     11  C   LIG    1        4.881   6.096   5.645  0.00  0.00    +0.010 A 
ATOM     12  C   LIG    1        4.671   4.976   4.859  0.00  0.00    +0.060 A 
ATOM     13  O   LIG    1        0.443   1.817   5.887  0.00  0.00    -0.510 OA
ATOM     14  C   LIG    1        3.559   4.184   5.077  0.00  0.00    +0.110 A 
ATOM     15  O   LIG    1        4.349   3.894   2.529  0.00  0.00    -0.490 OA
ENDBRANCH   1   2
BRANCH   1  21
ATOM     16  C   LIG    1        3.596   0.810  -0.028  0.00  0.00    +0.240 C 
ATOM     17  C   LIG    1        4.080   1.092  -1.452  0.00  0.00    +0.040 C 
ATOM     18  C   LIG    1        5.608   1.188  -1.457  0.00  0.00    +0.010 C 
ATOM     19  C   LIG    1        6.046   2.287  -0.484  0.00  0.00    +0.030 C 
ATOM     20  C   LIG    1        5.505   1.970   0.912  0.00  0.00    +0.180 C 
ATOM     21  N   LIG    1        4.040   1.889   0.864  0.00  0.00    -0.510 NA
BRANCH  16  25
ATOM     22  C   LIG    1       -0.016   1.341   0.009  0.00  0.00    -0.010 A 
ATOM     23  C   LIG    1        0.002  -0.004   0.002  0.00  0.00    -0.060 A 
ATOM     24  C   LIG    1        1.361  -0.395  -0.013  0.00  0.00    -0.050 A 
ATOM     25  C   LIG    1        2.091   0.734  -0.014  0.00  0.00    -0.010 A 
ATOM     26  O   LIG    1        1.252   1.783  -0.000  0.00  0.00    -0.160 OA
BRANCH  22  28
ATOM     27  C   LIG    1       -1.661   2.490   1.466  0.00  0.00    +0.030 C 
ATOM     28  C   LIG    1       -1.250   2.205   0.020  0.00  0.00    +0.120 C 
ENDBRANCH  22  28
ENDBRANCH  16  25
ENDBRANCH   1  21
TORSDOF 4
