REMARK  Name = ZINCqH0000008wSb.0
REMARK                            x       y       z     vdW  Elec       q    Type
REMARK                         _______ _______ _______ _____ _____    ______ ____
ROOT
ATOM      1  N   LIG    1        0.135  -6.299  -1.635  0.00  0.00    -0.610 N 
ATOM      2  C   LIG    1       -0.016  -4.988  -1.359  0.00  0.00    +0.520 C 
ATOM      3  O   LIG    1       -0.357  -4.220  -2.232  0.00  0.00    -0.520 OA
ATOM      4  C   LIG    1        0.547  -7.227  -0.580  0.00  0.00    +0.280 C 
ENDROOT
BRANCH   1   6
ATOM      5  C   LIG    1        1.117  -7.560  -3.486  0.00  0.00    +0.040 C 
ATOM      6  C   LIG    1       -0.112  -6.794  -2.991  0.00  0.00    +0.290 C 
BRANCH   6   7
ATOM      7  C   LIG    1       -1.305  -7.714  -2.981  0.00  0.00    -0.110 A 
ATOM      8  C   LIG    1       -1.348  -8.780  -2.102  0.00  0.00    +0.050 A 
ATOM      9  C   LIG    1       -2.445  -9.621  -2.087  0.00  0.00    -0.010 A 
ATOM     10  C   LIG    1       -3.496  -9.402  -2.960  0.00  0.00    +0.100 A 
ATOM     11  C   LIG    1       -3.450  -8.336  -3.844  0.00  0.00    -0.010 A 
ATOM     12  F   LIG    1       -4.566 -10.226  -2.950  0.00  0.00    -0.140 F 
ATOM     13  C   LIG    1       -2.355  -7.494  -3.853  0.00  0.00    +0.050 A 
ENDBRANCH   6   7
ENDBRANCH   1   6
BRANCH   2  14
ATOM     14  C   LIG    1        0.238  -4.479   0.037  0.00  0.00    +0.100 C 
BRANCH  14  15
ATOM     15  C   LIG    1        0.000  -2.991   0.079  0.00  0.00    -0.090 A 
ATOM     16  C   LIG    1       -1.258  -2.502   0.378  0.00  0.00    +0.040 A 
ATOM     17  C   LIG    1       -1.480  -1.139   0.416  0.00  0.00    -0.030 A 
ATOM     18  C   LIG    1       -0.437  -0.260   0.155  0.00  0.00    +0.170 A 
ATOM     19  C   LIG    1        0.824  -0.754  -0.150  0.00  0.00    +0.000 A 
ATOM     20  C   LIG    1        1.041  -2.118  -0.182  0.00  0.00    +0.050 A 
BRANCH  18  21
ATOM     21  N   LIG    1       -0.658   1.121   0.194  0.00  0.00    -0.560 N 
ATOM     22  C   LIG    1       -1.975   1.744   0.371  0.00  0.00    +0.260 C 
ATOM     23  C   LIG    1       -1.801   3.211  -0.081  0.00  0.00    +0.060 C 
ATOM     24  C   LIG    1       -0.289   3.436   0.150  0.00  0.00    +0.070 C 
ATOM     25  C   LIG    1        0.309   2.048   0.078  0.00  0.00    +0.510 C 
ATOM     26  O   LIG    1        1.489   1.806  -0.066  0.00  0.00    -0.510 OA
ENDBRANCH  18  21
ENDBRANCH  14  15
ENDBRANCH   2  14
TORSDOF 5
