REMARK  Name = ZINCvU00000006br.0
REMARK                            x       y       z     vdW  Elec       q    Type
REMARK                         _______ _______ _______ _____ _____    ______ ____
ROOT
ATOM      1  C   LIG    1        4.260   4.955   1.034  0.00  0.00    -0.010 C 
ATOM      2  C   LIG    1        5.331   4.139   0.305  0.00  0.00    +0.070 C 
ATOM      3  C   LIG    1        6.662   4.893   0.358  0.00  0.00    +0.200 C 
ATOM      4  N   LIG    1        7.051   5.106   1.758  0.00  0.00    -0.500 N 
ATOM      5  C   LIG    1        6.060   5.926   2.466  0.00  0.00    +0.190 C 
ATOM      6  C   LIG    1        4.711   5.203   2.476  0.00  0.00    +0.080 C 
ENDROOT
BRANCH   4   7
ATOM      7  C   LIG    1        8.324   5.674   1.843  0.00  0.00    +0.190 A 
ATOM      8  C   LIG    1        8.554   6.946   1.336  0.00  0.00    +0.010 A 
ATOM      9  C   LIG    1        9.814   7.505   1.422  0.00  0.00    +0.150 A 
ATOM     10  C   LIG    1       10.846   6.800   2.011  0.00  0.00    -0.190 A 
ATOM     11  C   LIG    1       10.621   5.532   2.518  0.00  0.00    +0.170 A 
ATOM     12  C   LIG    1        9.362   4.970   2.440  0.00  0.00    -0.030 A 
BRANCH  10  13
ATOM     13  C   LIG    1       12.220   7.413   2.103  0.00  0.00    +0.520 C 
ATOM     14  F   LIG    1       13.137   6.607   1.419  0.00  0.00    -0.170 F 
ATOM     15  F   LIG    1       12.598   7.512   3.446  0.00  0.00    -0.170 F 
ATOM     16  F   LIG    1       12.201   8.688   1.528  0.00  0.00    -0.170 F 
ENDBRANCH  10  13
BRANCH  12  17
ATOM     17  N   LIG    1        9.121   3.616   2.987  0.00  0.00    +0.020 N 
ATOM     18  O   LIG    1        8.012   3.119   2.914  0.00  0.00    -0.080 OA
ATOM     19  O   LIG    1       10.032   2.999   3.511  0.00  0.00    -0.190 OA
ENDBRANCH  12  17
ENDBRANCH   4   7
BRANCH   1  21
ATOM     20  N   LIG    1        2.134   4.262  -0.023  0.00  0.00    -0.580 N 
ATOM     21  C   LIG    1        2.961   4.190   1.038  0.00  0.00    +0.530 C 
ATOM     22  O   LIG    1        2.660   3.510   1.996  0.00  0.00    -0.520 OA
ATOM     23  C   LIG    1        0.834   3.586   0.014  0.00  0.00    +0.300 C 
BRANCH  20  29
ATOM     24  C   LIG    1        4.337   4.378  -4.417  0.00  0.00    +0.090 C 
ATOM     25  C   LIG    1        3.585   5.063  -3.305  0.00  0.00    -0.080 A 
ATOM     26  C   LIG    1        3.267   6.404  -3.412  0.00  0.00    +0.020 A 
ATOM     27  C   LIG    1        2.582   7.039  -2.392  0.00  0.00    +0.020 A 
ATOM     28  C   LIG    1        2.203   6.331  -1.268  0.00  0.00    +0.010 A 
ATOM     29  C   LIG    1        2.516   4.982  -1.161  0.00  0.00    +0.130 A 
ATOM     30  C   LIG    1        3.209   4.349  -2.184  0.00  0.00    -0.080 A 
ATOM     31  C   LIG    1        3.550   2.886  -2.072  0.00  0.00    +0.100 C 
ENDBRANCH  20  29
ENDBRANCH   1  21
TORSDOF 5
