REMARK  Name = ZINCpk00000kKlcy.0
REMARK                            x       y       z     vdW  Elec       q    Type
REMARK                         _______ _______ _______ _____ _____    ______ ____
ROOT
ATOM      1  C   LIG    1        4.916   4.132   5.142  0.00  0.00    +0.160 A 
ATOM      2  C   LIG    1        5.102   2.766   5.316  0.00  0.00    +0.000 A 
ATOM      3  C   LIG    1        4.801   1.887   4.292  0.00  0.00    +0.030 A 
ATOM      4  C   LIG    1        4.310   2.359   3.092  0.00  0.00    +0.020 A 
ATOM      5  C   LIG    1        4.125   3.730   2.906  0.00  0.00    -0.110 A 
ATOM      6  C   LIG    1        4.428   4.617   3.938  0.00  0.00    +0.090 A 
ENDROOT
BRANCH   5   7
ATOM      7  C   LIG    1        3.603   4.240   1.619  0.00  0.00    +0.570 C 
ATOM      8  N   LIG    1        2.770   3.479   0.881  0.00  0.00    -0.610 N 
ATOM      9  C   LIG    1        2.265   2.201   1.401  0.00  0.00    +0.270 C 
ATOM     10  C   LIG    1        0.736   2.203   1.313  0.00  0.00    -0.010 C 
ATOM     11  C   LIG    1        0.312   2.508  -0.125  0.00  0.00    +0.170 C 
ATOM     12  C   LIG    1        0.820   3.895  -0.526  0.00  0.00    +0.050 C 
ATOM     13  C   LIG    1        2.351   3.912  -0.459  0.00  0.00    +0.230 C 
ATOM     14  O   LIG    1        3.925   5.344   1.227  0.00  0.00    -0.510 OA
BRANCH  11  15
ATOM     15  O   LIG    1       -1.114   2.479  -0.218  0.00  0.00    -0.570 OA
ATOM     16  H   LIG    1       -1.506   1.628   0.022  0.00  0.00    +0.380 HD
ENDBRANCH  11  15
BRANCH  13  17
ATOM     17  C   LIG    1        2.860   5.330  -0.725  0.00  0.00    +0.200 C 
BRANCH  17  18
ATOM     18  O   LIG    1        4.270   5.295  -0.953  0.00  0.00    -0.560 OA
ATOM     19  H   LIG    1        4.662   6.161  -1.129  0.00  0.00    +0.380 HD
ENDBRANCH  17  18
ENDBRANCH  13  17
ENDBRANCH   5   7
BRANCH   1  20
ATOM     20  N   LIG    1        5.222   5.017   6.180  0.00  0.00    -0.640 N 
ATOM     21  H   LIG    1        5.921   4.797   6.815  0.00  0.00    +0.430 HD
BRANCH  20  27
ATOM     22  C   LIG    1        4.730   9.251   8.371  0.00  0.00    +0.140 C 
ATOM     23  C   LIG    1        4.277   8.246   7.344  0.00  0.00    +0.220 A 
ATOM     24  C   LIG    1        3.182   8.512   6.537  0.00  0.00    -0.130 A 
ATOM     25  C   LIG    1        2.799   7.560   5.605  0.00  0.00    +0.360 A 
ATOM     26  N   LIG    1        3.488   6.435   5.511  0.00  0.00    -0.560 NA
ATOM     27  C   LIG    1        4.527   6.209   6.302  0.00  0.00    +0.560 A 
ATOM     28  N   LIG    1        4.919   7.098   7.202  0.00  0.00    -0.560 NA
ENDBRANCH  20  27
ENDBRANCH   1  20
TORSDOF 6
