REMARK  Name = ZINCpk00000xI8BR.0
REMARK                            x       y       z     vdW  Elec       q    Type
REMARK                         _______ _______ _______ _____ _____    ______ ____
ROOT
ATOM      1  N   LIG    1        3.350   5.601   2.165  0.00  0.00    -0.510 NA
ATOM      2  C   LIG    1        4.423   4.617   2.035  0.00  0.00    +0.170 C 
ATOM      3  C   LIG    1        4.010   3.342   1.419  0.00  0.00    +0.020 C 
ATOM      4  C   LIG    1        3.518   3.596  -0.029  0.00  0.00    +0.280 C 
ATOM      5  N   LIG    1        2.265   4.318   0.006  0.00  0.00    -0.590 N 
ATOM      6  C   LIG    1        2.188   5.793   0.018  0.00  0.00    +0.280 C 
ATOM      7  C   LIG    1        1.116   3.613   0.023  0.00  0.00    +0.540 C 
ATOM      8  O   LIG    1        0.047   4.193   0.052  0.00  0.00    -0.550 OA
ATOM      9  C   LIG    1        3.245   6.403   0.965  0.00  0.00    +0.190 C 
ENDROOT
BRANCH   7  10
ATOM     10  C   LIG    1        1.154   2.147   0.006  0.00  0.00    -0.030 C 
ATOM     11  C   LIG    1        0.007   1.443   0.023  0.00  0.00    +0.100 C 
BRANCH  11  12
ATOM     12  C   LIG    1        0.045  -0.030   0.006  0.00  0.00    +0.140 A 
ATOM     13  C   LIG    1       -1.148  -0.755   0.029  0.00  0.00    -0.010 A 
ATOM     14  C   LIG    1       -1.094  -2.138   0.007  0.00  0.00    +0.060 A 
ATOM     15  C   LIG    1        0.149  -2.752  -0.026  0.00  0.00    -0.030 A 
ATOM     16  C   LIG    1        1.293  -1.972  -0.042  0.00  0.00    +0.260 A 
ATOM     17  N   LIG    1        1.216  -0.659  -0.026  0.00  0.00    -0.470 NA
ENDBRANCH  11  12
ENDBRANCH   7  10
BRANCH   1  18
ATOM     18  C   LIG    1        3.552   6.448   3.348  0.00  0.00    +0.250 C 
BRANCH  18  20
ATOM     19  N   LIG    1        5.256   8.034   4.186  0.00  0.00    -0.610 N 
ATOM     20  C   LIG    1        4.815   7.253   3.180  0.00  0.00    +0.480 C 
ATOM     21  O   LIG    1        5.434   7.198   2.139  0.00  0.00    -0.540 OA
BRANCH  19  23
ATOM     22  C   LIG    1        6.138  10.192   3.448  0.00  0.00    +0.020 C 
ATOM     23  C   LIG    1        6.483   8.816   4.022  0.00  0.00    +0.270 C 
ENDBRANCH  19  23
BRANCH  19  24
ATOM     24  C   LIG    1        4.508   8.100   5.444  0.00  0.00    +0.260 C 
ATOM     25  C   LIG    1        5.019   7.020   6.399  0.00  0.00    +0.020 C 
ENDBRANCH  19  24
ENDBRANCH  18  20
ENDBRANCH   1  18
TORSDOF 6
