REMARK  Name = ZINCqH00000393ty.0
REMARK                            x       y       z     vdW  Elec       q    Type
REMARK                         _______ _______ _______ _____ _____    ______ ____
ROOT
ATOM      1  C   LIG    1        4.606  -0.204  -0.923  0.00  0.00    -0.220 A 
ATOM      2  C   LIG    1        4.964   1.109  -1.018  0.00  0.00    +0.270 A 
ATOM      3  N   LIG    1        6.314   1.218  -0.993  0.00  0.00    -0.460 N 
ATOM      4  C   LIG    1        6.897  -0.029  -0.891  0.00  0.00    +0.100 A 
ATOM      5  C   LIG    1        8.217  -0.460  -0.833  0.00  0.00    +0.000 A 
ATOM      6  C   LIG    1        8.497  -1.806  -0.730  0.00  0.00    +0.030 A 
ATOM      7  C   LIG    1        7.472  -2.739  -0.682  0.00  0.00    +0.000 A 
ATOM      8  C   LIG    1        6.157  -2.331  -0.738  0.00  0.00    +0.050 A 
ATOM      9  C   LIG    1        5.860  -0.975  -0.842  0.00  0.00    -0.060 A 
ENDROOT
BRANCH   1  16
ATOM     10  C   LIG    1        1.051  -1.034  -1.930  0.00  0.00    +0.380 C 
ATOM     11  C   LIG    1       -0.028   0.026  -1.682  0.00  0.00    +0.130 C 
ATOM     12  S   LIG    1        0.137   1.333  -2.934  0.00  0.00    -0.220 S 
ATOM     13  C   LIG    1        1.875   1.830  -2.748  0.00  0.00    +0.100 C 
ATOM     14  C   LIG    1        2.762   0.588  -2.888  0.00  0.00    +0.300 C 
ATOM     15  N   LIG    1        2.372  -0.405  -1.885  0.00  0.00    -0.620 N 
ATOM     16  C   LIG    1        3.240  -0.744  -0.911  0.00  0.00    +0.590 C 
ATOM     17  O   LIG    1        2.891  -1.497  -0.021  0.00  0.00    -0.510 OA
BRANCH  10  19
ATOM     18  N   LIG    1        0.902  -2.873  -0.088  0.00  0.00    -0.390 NA
ATOM     19  C   LIG    1        0.967  -2.072  -0.890  0.00  0.00    +0.200 C 
ENDBRANCH  10  19
ENDBRANCH   1  16
BRANCH   3  20
ATOM     20  C   LIG    1        7.052   2.481  -1.071  0.00  0.00    +0.350 C 
BRANCH  20  21
ATOM     21  C   LIG    1        7.440   2.749  -2.502  0.00  0.00    -0.120 A 
ATOM     22  C   LIG    1        8.648   2.287  -2.989  0.00  0.00    +0.020 A 
ATOM     23  C   LIG    1        9.002   2.530  -4.303  0.00  0.00    +0.010 A 
ATOM     24  C   LIG    1        8.152   3.242  -5.128  0.00  0.00    +0.020 A 
ATOM     25  C   LIG    1        6.946   3.708  -4.639  0.00  0.00    +0.010 A 
ATOM     26  C   LIG    1        6.590   3.462  -3.326  0.00  0.00    +0.020 A 
ENDBRANCH  20  21
ENDBRANCH   3  20
TORSDOF 4
