REMARK  Name = ZINCtV00000L6jj7.0
REMARK                            x       y       z     vdW  Elec       q    Type
REMARK                         _______ _______ _______ _____ _____    ______ ____
ROOT
ATOM      1  C   LIG    1       -1.427   9.442   0.103  0.00  0.00    -0.320 C 
ATOM      2  C   LIG    1       -0.218   8.829  -0.128  0.00  0.00    +0.160 A 
ATOM      3  S   LIG    1        1.332   9.624  -0.416  0.00  0.00    +0.210 S 
ATOM      4  C   LIG    1        2.244   8.164  -0.448  0.00  0.00    -0.120 A 
ATOM      5  C   LIG    1        1.269   7.098  -0.240  0.00  0.00    +0.120 A 
ATOM      6  N   LIG    1       -0.012   7.482  -0.143  0.00  0.00    -0.460 N 
ATOM      7  C   LIG    1       -1.122   6.506  -0.093  0.00  0.00    +0.300 C 
ATOM      8  C   LIG    1       -1.656   6.388   1.339  0.00  0.00    +0.020 C 
ATOM      9  C   LIG    1       -2.072   7.796   1.804  0.00  0.00    +0.020 C 
ATOM     10  C   LIG    1       -2.582   8.627   0.629  0.00  0.00    +0.090 C 
ENDROOT
BRANCH   5  11
ATOM     11  C   LIG    1        1.667   5.694  -0.136  0.00  0.00    -0.040 A 
ATOM     12  C   LIG    1        1.296   4.934   0.989  0.00  0.00    +0.050 A 
ATOM     13  C   LIG    1        1.671   3.624   1.076  0.00  0.00    +0.030 A 
ATOM     14  C   LIG    1        2.417   3.041   0.059  0.00  0.00    -0.020 A 
ATOM     15  C   LIG    1        2.793   3.784  -1.052  0.00  0.00    +0.030 A 
ATOM     16 CL   LIG    1        2.889   1.375   0.183  0.00  0.00    -0.060 Cl
ATOM     17  C   LIG    1        2.422   5.094  -1.161  0.00  0.00    +0.070 A 
ENDBRANCH   5  11
BRANCH   1  18
ATOM     18  C   LIG    1       -1.593  10.878  -0.160  0.00  0.00    +0.450 C 
ATOM     19  O   LIG    1       -0.682  11.515  -0.652  0.00  0.00    -0.460 OA
BRANCH  18  22
ATOM     20  C   LIG    1       -3.891  10.524  -1.885  0.00  0.00    +0.130 C 
ATOM     21  C   LIG    1       -3.983  11.385  -0.652  0.00  0.00    +0.020 A 
ATOM     22  C   LIG    1       -2.868  11.548   0.173  0.00  0.00    -0.130 A 
ATOM     23  C   LIG    1       -2.964  12.343   1.319  0.00  0.00    +0.120 A 
ATOM     24  C   LIG    1       -4.154  12.970   1.621  0.00  0.00    +0.040 A 
ATOM     25  C   LIG    1       -5.256  12.804   0.798  0.00  0.00    +0.120 A 
ATOM     26  C   LIG    1       -5.169  12.013  -0.334  0.00  0.00    -0.010 A 
BRANCH  26  27
ATOM     27  N   LIG    1       -6.352  11.842  -1.207  0.00  0.00    -0.020 N 
ATOM     28  O   LIG    1       -6.315  10.984  -2.206  0.00  0.00    -0.160 OA
ATOM     29  O   LIG    1       -7.442  12.547  -0.984  0.00  0.00    -0.180 OA
ENDBRANCH  26  27
ENDBRANCH  18  22
ENDBRANCH   1  18
TORSDOF 4
