REMARK  Name = ZINCpk00000y6um2.0
REMARK                            x       y       z     vdW  Elec       q    Type
REMARK                         _______ _______ _______ _____ _____    ______ ____
ROOT
ATOM      1  S   LIG    1       -0.284   5.451  -1.196  0.00  0.00    +2.690 S 
ATOM      2  O   LIG    1        0.968   6.121  -1.250  0.00  0.00    -0.950 OA
ATOM      3  O   LIG    1       -1.490   6.086  -0.795  0.00  0.00    -0.940 OA
ENDROOT
BRANCH   1  12
ATOM      4  C   LIG    1        1.241  -2.104  -0.035  0.00  0.00    +0.330 C 
ATOM      5  N   LIG    1        1.190  -0.640  -0.029  0.00  0.00    -0.530 N 
ATOM      6  C   LIG    1        2.331   0.077  -0.053  0.00  0.00    +0.580 A 
ATOM      7  N   LIG    1        2.312   1.380  -0.039  0.00  0.00    -0.540 NA
ATOM      8  C   LIG    1        1.165   2.074   0.002  0.00  0.00    +0.160 A 
ATOM      9  C   LIG    1       -0.017   1.411   0.010  0.00  0.00    -0.230 A 
ATOM     10  C   LIG    1       -1.353   2.102   0.012  0.00  0.00    +0.110 C 
ATOM     11  C   LIG    1       -1.220   3.540   0.513  0.00  0.00    +0.320 C 
ATOM     12  N   LIG    1       -0.078   4.157  -0.184  0.00  0.00    -1.000 NA
ATOM     13  C   LIG    1        1.249   3.578   0.054  0.00  0.00    +0.400 C 
ATOM     14  C   LIG    1        0.002  -0.004   0.002  0.00  0.00    +0.520 A 
ATOM     15  O   LIG    1       -1.040  -0.638   0.023  0.00  0.00    -0.530 OA
ENDBRANCH   1  12
BRANCH   1  16
ATOM     16  C   LIG    1       -0.574   4.808  -2.811  0.00  0.00    -0.710 C 
ATOM     17  C   LIG    1        0.391   4.865  -3.716  0.00  0.00    +0.200 C 
ATOM     18  C   LIG    1        0.145   4.363  -5.083  0.00  0.00    -0.100 A 
ATOM     19  C   LIG    1        1.203   4.088  -5.945  0.00  0.00    +0.050 A 
ATOM     20  C   LIG    1        0.944   3.605  -7.213  0.00  0.00    +0.000 A 
ATOM     21  C   LIG    1       -0.360   3.394  -7.623  0.00  0.00    +0.030 A 
ATOM     22  C   LIG    1       -1.416   3.671  -6.771  0.00  0.00    +0.000 A 
ATOM     23  C   LIG    1       -1.170   4.161  -5.507  0.00  0.00    -0.050 A 
ATOM     24  C   LIG    1       -2.307   4.505  -4.581  0.00  0.00    +0.100 C 
ATOM     25  C   LIG    1       -1.910   4.200  -3.135  0.00  0.00    +0.110 C 
ENDBRANCH   1  16
TORSDOF 2
