REMARK  Name = ZINCqH0000002bLN.0
REMARK                            x       y       z     vdW  Elec       q    Type
REMARK                         _______ _______ _______ _____ _____    ______ ____
ROOT
ATOM      1  C   LIG    1       -0.417   2.210   1.293  0.00  0.00    +0.550 C 
ATOM      2  N   LIG    1       -1.583   2.882   1.364  0.00  0.00    -0.610 N 
ATOM      3  C   LIG    1       -2.472   2.962   0.196  0.00  0.00    +0.270 C 
ATOM      4  C   LIG    1       -2.775   4.431  -0.097  0.00  0.00    +0.040 C 
ATOM      5  C   LIG    1       -3.300   5.103   1.164  0.00  0.00    -0.070 C 
ATOM      6  C   LIG    1       -4.642   4.485   1.590  0.00  0.00    +0.270 C 
ATOM      7  N   LIG    1       -5.673   5.329   0.970  0.00  0.00    -0.730 N 
ATOM      8  H   LIG    1       -6.602   5.071   0.865  0.00  0.00    +0.410 HD
ATOM      9  C   LIG    1       -5.162   6.506   0.566  0.00  0.00    +0.520 C 
ATOM     10  O   LIG    1       -5.796   7.391   0.030  0.00  0.00    -0.530 OA
ATOM     11  C   LIG    1       -2.288   5.024   2.298  0.00  0.00    +0.040 C 
ATOM     12  C   LIG    1       -3.682   6.567   0.879  0.00  0.00    +0.060 C 
ATOM     13  C   LIG    1       -1.984   3.553   2.608  0.00  0.00    +0.280 C 
ATOM     14  O   LIG    1        0.311   2.154   2.261  0.00  0.00    -0.530 OA
ENDROOT
BRANCH   1  21
ATOM     15  C   LIG    1        4.007  -0.250  -0.038  0.00  0.00    +0.000 C 
ATOM     16  C   LIG    1        3.125  -0.364  -1.281  0.00  0.00    +0.030 C 
ATOM     17  C   LIG    1        2.125   0.796  -1.306  0.00  0.00    +0.050 C 
ATOM     18  C   LIG    1        1.314   0.779  -0.006  0.00  0.00    -0.080 C 
ATOM     19  C   LIG    1        0.002  -0.004   0.002  0.00  0.00    +0.060 C 
ATOM     20  C   LIG    1        2.150   0.782   1.278  0.00  0.00    +0.070 C 
ATOM     21  C   LIG    1       -0.019   1.526   0.010  0.00  0.00    -0.080 C 
ATOM     22  C   LIG    1        3.149  -0.378   1.222  0.00  0.00    +0.000 C 
BRANCH  15  23
ATOM     23  C   LIG    1        5.055  -1.365  -0.053  0.00  0.00    -0.060 C 
ATOM     24  C   LIG    1        5.920  -1.235  -1.307  0.00  0.00    +0.020 C 
ATOM     25  C   LIG    1        4.352  -2.724  -0.057  0.00  0.00    +0.020 C 
BRANCH  23  27
ATOM     26  C   LIG    1        6.986  -2.367   1.176  0.00  0.00    +0.010 C 
ATOM     27  C   LIG    1        5.939  -1.252   1.191  0.00  0.00    +0.000 C 
ENDBRANCH  23  27
ENDBRANCH  15  23
ENDBRANCH   1  21
TORSDOF 3
