REMARK  Name = ZINCpk00000y6yW4.0
REMARK                            x       y       z     vdW  Elec       q    Type
REMARK                         _______ _______ _______ _____ _____    ______ ____
ROOT
ATOM      1  C   LIG    1        2.617   1.067  -0.306  0.00  0.00    +0.580 C 
ATOM      2  N   LIG    1        3.740   1.807  -0.224  0.00  0.00    -0.700 N 
ATOM      3  H   LIG    1        3.682   2.775  -0.194  0.00  0.00    +0.410 HD
ATOM      4  O   LIG    1        2.690  -0.145  -0.343  0.00  0.00    -0.520 OA
ENDROOT
BRANCH   2   5
ATOM      5  C   LIG    1        5.049   1.151  -0.179  0.00  0.00    +0.230 C 
ATOM      6  C   LIG    1        6.121   2.111  -0.699  0.00  0.00    +0.060 C 
ATOM      7  C   LIG    1        6.127   3.382   0.154  0.00  0.00    +0.040 C 
ATOM      8  C   LIG    1        6.467   3.017   1.603  0.00  0.00    +0.220 C 
ATOM      9  N   LIG    1        5.528   1.985   2.063  0.00  0.00    -0.610 N 
ATOM     10  C   LIG    1        4.818   2.159   3.196  0.00  0.00    +0.510 C 
ATOM     11  O   LIG    1        5.029   3.122   3.902  0.00  0.00    -0.520 OA
ATOM     12  C   LIG    1        3.763   1.155   3.586  0.00  0.00    +0.110 C 
ATOM     13  C   LIG    1        5.377   0.761   1.266  0.00  0.00    +0.300 C 
BRANCH   8  14
ATOM     14  C   LIG    1        6.339   4.259   2.488  0.00  0.00    +0.470 C 
ATOM     15  F   LIG    1        4.998   4.654   2.546  0.00  0.00    -0.170 F 
ATOM     16  F   LIG    1        7.108   5.296   1.950  0.00  0.00    -0.190 F 
ATOM     17  F   LIG    1        6.794   3.961   3.777  0.00  0.00    -0.160 F 
ENDBRANCH   8  14
ENDBRANCH   2   5
BRANCH   1  20
ATOM     18  C   LIG    1        0.019   3.655  -0.351  0.00  0.00    +0.570 A 
ATOM     19  N   LIG    1        1.199   3.059  -0.311  0.00  0.00    -0.560 NA
ATOM     20  C   LIG    1        1.291   1.732  -0.351  0.00  0.00    +0.170 A 
ATOM     21  C   LIG    1        0.122   0.976  -0.436  0.00  0.00    -0.070 A 
ATOM     22  C   LIG    1       -1.094   1.643  -0.481  0.00  0.00    +0.220 A 
ATOM     23  C   LIG    1       -2.384   0.871  -0.580  0.00  0.00    +0.160 C 
ATOM     24  N   LIG    1       -1.109   2.964  -0.431  0.00  0.00    -0.550 NA
BRANCH  18  26
ATOM     25  C   LIG    1       -1.336   5.718  -0.349  0.00  0.00    +0.300 C 
ATOM     26  N   LIG    1       -0.039   5.038  -0.306  0.00  0.00    -0.700 N 
ATOM     27  H   LIG    1        0.778   5.556  -0.247  0.00  0.00    +0.420 HD
ENDBRANCH  18  26
ENDBRANCH   1  20
TORSDOF 4
