REMARK  Name = ZINCpe000000TAjp.0
REMARK                            x       y       z     vdW  Elec       q    Type
REMARK                         _______ _______ _______ _____ _____    ______ ____
ROOT
ATOM      1  N   LIG    1       -1.940   4.884  -2.001  0.00  0.00    -0.520 NA
ATOM      2  C   LIG    1       -3.112   4.234  -2.601  0.00  0.00    +0.180 C 
ATOM      3  C   LIG    1       -4.299   4.338  -1.637  0.00  0.00    +0.300 C 
ATOM      4  N   LIG    1       -4.487   5.752  -1.279  0.00  0.00    -0.610 N 
ATOM      5  C   LIG    1       -3.322   6.509  -0.798  0.00  0.00    +0.280 C 
ATOM      6  C   LIG    1       -5.697   6.337  -1.387  0.00  0.00    +0.570 C 
ATOM      7  O   LIG    1       -6.627   5.726  -1.876  0.00  0.00    -0.540 OA
ATOM      8  C   LIG    1       -2.174   6.320  -1.796  0.00  0.00    +0.170 C 
ENDROOT
BRANCH   6   9
ATOM      9  C   LIG    1       -5.891   7.721  -0.912  0.00  0.00    -0.260 A 
ATOM     10  C   LIG    1       -6.797   8.575  -1.560  0.00  0.00    +0.160 A 
ATOM     11  C   LIG    1       -6.946   9.850  -1.085  0.00  0.00    -0.110 A 
ATOM     12  C   LIG    1       -6.201  10.260   0.019  0.00  0.00    +0.430 A 
ATOM     13  N   LIG    1       -5.352   9.432   0.613  0.00  0.00    -0.540 NA
ATOM     14  C   LIG    1       -5.182   8.197   0.192  0.00  0.00    +0.350 A 
BRANCH  12  15
ATOM     15  N   LIG    1       -6.349  11.549   0.502  0.00  0.00    -0.600 N 
BRANCH  15  16
ATOM     16  C   LIG    1       -5.493  12.026   1.591  0.00  0.00    +0.280 C 
ATOM     17  C   LIG    1       -4.231  12.664   1.006  0.00  0.00    +0.010 C 
ENDBRANCH  15  16
BRANCH  15  18
ATOM     18  C   LIG    1       -7.362  12.436  -0.076  0.00  0.00    +0.280 C 
ATOM     19  C   LIG    1       -8.678  12.273   0.686  0.00  0.00    +0.020 C 
ENDBRANCH  15  18
ENDBRANCH  12  15
ENDBRANCH   6   9
BRANCH   1  20
ATOM     20  C   LIG    1       -0.738   4.658  -2.815  0.00  0.00    +0.210 C 
BRANCH  20  23
ATOM     21  N   LIG    1        0.682   2.747  -3.485  0.00  0.00    -0.730 N 
ATOM     22  H   LIG    1        1.228   3.370  -3.989  0.00  0.00    +0.400 HD
ATOM     23  C   LIG    1       -0.391   3.192  -2.801  0.00  0.00    +0.510 C 
ATOM     24  O   LIG    1       -1.076   2.412  -2.174  0.00  0.00    -0.520 OA
BRANCH  21  26
ATOM     25  C   LIG    1        2.268   1.085  -4.325  0.00  0.00    +0.030 C 
ATOM     26  C   LIG    1        1.021   1.322  -3.471  0.00  0.00    +0.250 C 
ENDBRANCH  21  26
ENDBRANCH  20  23
ENDBRANCH   1  20
TORSDOF 7
