REMARK  Name = ZINCkj000005ePcA.0
REMARK                            x       y       z     vdW  Elec       q    Type
REMARK                         _______ _______ _______ _____ _____    ______ ____
ROOT
ATOM      1  C   LIG    1        5.918   1.432  -0.101  0.00  0.00    +0.610 C 
ATOM      2  N   LIG    1        6.206   2.747  -0.038  0.00  0.00    -0.720 N 
ATOM      3  H   LIG    1        5.494   3.394   0.085  0.00  0.00    +0.420 HD
ATOM      4  O   LIG    1        6.810   0.620  -0.255  0.00  0.00    -0.520 OA
ENDROOT
BRANCH   1   7
ATOM      5  C   LIG    1        2.331   1.283   0.276  0.00  0.00    +0.250 A 
ATOM      6  N   LIG    1        3.503   1.826   0.182  0.00  0.00    -0.490 NA
ATOM      7  C   LIG    1        4.522   0.978   0.018  0.00  0.00    +0.010 A 
ATOM      8  C   LIG    1        4.177  -0.325  -0.038  0.00  0.00    -0.070 A 
ATOM      9  S   LIG    1        2.481  -0.465   0.135  0.00  0.00    +0.310 S 
BRANCH   5  12
ATOM     10  C   LIG    1       -1.319   2.049   0.718  0.00  0.00    +0.140 C 
ATOM     11  C   LIG    1       -0.025   1.299   0.532  0.00  0.00    +0.510 C 
ATOM     12  N   LIG    1        1.139   1.974   0.454  0.00  0.00    -0.620 N 
ATOM     13  H   LIG    1        1.144   2.941   0.521  0.00  0.00    +0.430 HD
ATOM     14  O   LIG    1       -0.032   0.089   0.447  0.00  0.00    -0.500 OA
ENDBRANCH   5  12
ENDBRANCH   1   7
BRANCH   2  15
ATOM     15  C   LIG    1        7.595   3.198  -0.156  0.00  0.00    +0.280 C 
BRANCH  15  16
ATOM     16  C   LIG    1        7.634   4.728  -0.169  0.00  0.00    +0.160 C 
ATOM     17  C   LIG    1        7.160   5.261   1.185  0.00  0.00    +0.110 C 
BRANCH  16  18
ATOM     18  N   LIG    1        9.009   5.180  -0.419  0.00  0.00    -0.390 N 
ATOM     19  C   LIG    1        9.470   4.705  -1.749  0.00  0.00    +0.260 C 
ATOM     20  C   LIG    1       10.621   5.685  -2.095  0.00  0.00    +0.080 C 
ATOM     21  C   LIG    1       10.108   7.033  -1.539  0.00  0.00    +0.070 C 
ATOM     22  C   LIG    1        9.058   6.657  -0.477  0.00  0.00    +0.250 C 
ATOM     23  H   LIG    1        9.625   4.840   0.304  0.00  0.00    +0.430 HD
ENDBRANCH  16  18
ENDBRANCH  15  16
ENDBRANCH   2  15
TORSDOF 5
