REMARK  Name = ZINCrD000000fH57.0
REMARK                            x       y       z     vdW  Elec       q    Type
REMARK                         _______ _______ _______ _____ _____    ______ ____
ROOT
ATOM      1  C   LIG    1       -4.671   8.077  -1.394  0.00  0.00    +0.260 C 
ENDROOT
BRANCH   1   4
ATOM      2  C   LIG    1       -5.790  10.264   1.542  0.00  0.00    +0.090 C 
ATOM      3  C   LIG    1       -5.578   9.081   0.632  0.00  0.00    +0.520 C 
ATOM      4  N   LIG    1       -4.877   9.226  -0.510  0.00  0.00    -0.720 N 
ATOM      5  H   LIG    1       -4.508  10.092  -0.746  0.00  0.00    +0.400 HD
ATOM      6  O   LIG    1       -6.039   7.999   0.927  0.00  0.00    -0.510 OA
ENDBRANCH   1   4
BRANCH   1   7
ATOM      7  C   LIG    1       -3.933   6.995  -0.648  0.00  0.00    +0.500 C 
ATOM      8  N   LIG    1       -3.282   6.031  -1.329  0.00  0.00    -0.670 N 
ATOM      9  H   LIG    1       -3.231   6.071  -2.297  0.00  0.00    +0.410 HD
ATOM     10  O   LIG    1       -3.925   6.992   0.565  0.00  0.00    -0.480 OA
BRANCH   8  11
ATOM     11  C   LIG    1       -2.678   4.973  -0.640  0.00  0.00    +0.150 A 
ATOM     12  C   LIG    1       -2.660   3.701  -1.195  0.00  0.00    -0.010 A 
ATOM     13  C   LIG    1       -2.063   2.662  -0.510  0.00  0.00    +0.030 A 
ATOM     14  C   LIG    1       -1.482   2.882   0.728  0.00  0.00    -0.110 A 
ATOM     15  C   LIG    1       -0.778   1.919   1.665  0.00  0.00    +0.070 C 
ATOM     16  C   LIG    1       -0.751   2.637   3.030  0.00  0.00    +0.030 C 
ATOM     17  C   LIG    1       -0.806   4.126   2.629  0.00  0.00    +0.080 C 
ATOM     18  C   LIG    1       -1.500   4.148   1.284  0.00  0.00    -0.080 A 
ATOM     19  C   LIG    1       -2.097   5.193   0.601  0.00  0.00    +0.020 A 
ENDBRANCH   8  11
ENDBRANCH   1   7
BRANCH   1  20
ATOM     20  C   LIG    1       -6.027   7.542  -1.859  0.00  0.00    +0.120 C 
BRANCH  20  21
ATOM     21  C   LIG    1       -6.712   8.581  -2.709  0.00  0.00    -0.170 A 
ATOM     22  C   LIG    1       -7.612   9.486  -2.292  0.00  0.00    +0.230 A 
ATOM     23  N   LIG    1       -8.014  10.262  -3.345  0.00  0.00    -0.590 N 
ATOM     24  H   LIG    1       -8.659  10.985  -3.290  0.00  0.00    +0.420 HD
ATOM     25  C   LIG    1       -7.367   9.866  -4.494  0.00  0.00    +0.100 A 
ATOM     26  C   LIG    1       -7.402  10.304  -5.813  0.00  0.00    -0.010 A 
ATOM     27  C   LIG    1       -6.615   9.687  -6.761  0.00  0.00    +0.030 A 
ATOM     28  C   LIG    1       -5.784   8.632  -6.412  0.00  0.00    -0.020 A 
ATOM     29  C   LIG    1       -5.733   8.185  -5.122  0.00  0.00    +0.050 A 
ATOM     30  C   LIG    1       -6.518   8.799  -4.144  0.00  0.00    -0.100 A 
ENDBRANCH  20  21
ENDBRANCH   1  20
TORSDOF 5
