REMARK  Name = ZINCpk00000KfLhF.0
REMARK                            x       y       z     vdW  Elec       q    Type
REMARK                         _______ _______ _______ _____ _____    ______ ____
ROOT
ATOM      1  C   LIG    1       -1.143   3.860   2.723  0.00  0.00    +0.010 C 
ATOM      2  C   LIG    1       -2.628   3.490   2.753  0.00  0.00    +0.030 C 
ATOM      3  C   LIG    1       -2.775   1.982   2.530  0.00  0.00    +0.040 C 
ATOM      4  C   LIG    1       -2.126   1.603   1.197  0.00  0.00    +0.180 C 
ATOM      5  N   LIG    1       -0.706   1.976   1.219  0.00  0.00    -0.540 NA
ATOM      6  C   LIG    1       -0.541   3.426   1.384  0.00  0.00    +0.190 C 
ENDROOT
BRANCH   1  12
ATOM      7  C   LIG    1       -0.825   6.958   6.240  0.00  0.00    +0.340 C 
ATOM      8  N   LIG    1       -0.643   6.378   4.907  0.00  0.00    -0.580 N 
ATOM      9  C   LIG    1        0.530   6.316   4.268  0.00  0.00    +0.700 C 
ATOM     10  N   LIG    1        0.427   5.737   3.058  0.00  0.00    -0.720 N 
ATOM     11  H   LIG    1        1.145   5.586   2.424  0.00  0.00    +0.440 HD
ATOM     12  C   LIG    1       -0.990   5.374   2.884  0.00  0.00    +0.130 C 
ATOM     13  C   LIG    1       -1.589   6.106   1.681  0.00  0.00    +0.090 C 
ATOM     14  O   LIG    1        1.574   6.737   4.728  0.00  0.00    -0.540 OA
ATOM     15  C   LIG    1       -1.641   5.841   4.171  0.00  0.00    +0.530 C 
ATOM     16  O   LIG    1       -2.812   5.751   4.474  0.00  0.00    -0.450 OA
ENDBRANCH   1  12
BRANCH   5  17
ATOM     17  C   LIG    1       -0.018   1.503   0.010  0.00  0.00    +0.350 C 
BRANCH  17  18
ATOM     18  C   LIG    1        0.002  -0.004   0.002  0.00  0.00    +0.170 A 
ATOM     19  N   LIG    1       -0.902  -0.784  -0.519  0.00  0.00    -0.280 NA
ATOM     20  N   LIG    1       -0.559  -2.012  -0.342  0.00  0.00    -0.280 NA
ATOM     21  C   LIG    1        0.575  -2.057   0.298  0.00  0.00    +0.180 A 
ATOM     22  O   LIG    1        0.959  -0.789   0.526  0.00  0.00    -0.220 OA
BRANCH  21  23
ATOM     23  C   LIG    1        1.322  -3.301   0.703  0.00  0.00    +0.090 C 
ATOM     24  C   LIG    1        1.282  -4.416  -0.356  0.00  0.00    +0.060 C 
ATOM     25  C   LIG    1        1.110  -5.406   0.810  0.00  0.00    +0.030 C 
ATOM     26  C   LIG    1        0.509  -4.239   1.611  0.00  0.00    +0.050 C 
ENDBRANCH  21  23
ENDBRANCH  17  18
ENDBRANCH   5  17
TORSDOF 4
