REMARK  Name = ZINCtV00000L6k8r.0
REMARK                            x       y       z     vdW  Elec       q    Type
REMARK                         _______ _______ _______ _____ _____    ______ ____
ROOT
ATOM      1  C   LIG    1       -1.516   3.384   0.158  0.00  0.00    +0.540 C 
ATOM      2  N   LIG    1       -1.197   3.115  -1.124  0.00  0.00    -0.540 N 
ATOM      3  C   LIG    1       -0.164   2.215  -1.419  0.00  0.00    +0.120 A 
ATOM      4  C   LIG    1        0.920   2.075  -0.568  0.00  0.00    +0.020 A 
ATOM      5  C   LIG    1        1.921   1.170  -0.876  0.00  0.00    -0.040 A 
ATOM      6  C   LIG    1        1.850   0.399  -2.027  0.00  0.00    +0.120 A 
ATOM      7  C   LIG    1        0.769   0.535  -2.889  0.00  0.00    +0.080 A 
ATOM      8  C   LIG    1       -0.228   1.446  -2.583  0.00  0.00    -0.020 A 
ATOM      9  C   LIG    1       -1.405   1.637  -3.509  0.00  0.00    -0.100 A 
ATOM     10  C   LIG    1       -2.206   2.735  -3.301  0.00  0.00    -0.070 A 
ATOM     11  S   LIG    1       -3.519   2.824  -4.397  0.00  0.00    +0.110 S 
ATOM     12  S   LIG    1       -3.035   1.119  -5.464  0.00  0.00    +0.120 S 
ATOM     13  C   LIG    1       -1.642   0.735  -4.549  0.00  0.00    +0.050 A 
ATOM     14  S   LIG    1       -0.641  -0.616  -4.875  0.00  0.00    -0.330 S 
ATOM     15  C   LIG    1       -1.933   3.760  -2.217  0.00  0.00    +0.240 C 
ATOM     16  C   LIG    1       -1.095   4.902  -2.797  0.00  0.00    +0.070 C 
ATOM     17  C   LIG    1       -3.259   4.311  -1.688  0.00  0.00    +0.090 C 
ATOM     18  O   LIG    1       -2.316   4.259   0.413  0.00  0.00    -0.500 OA
ENDROOT
BRANCH   6  19
ATOM     19  O   LIG    1        2.838  -0.490  -2.312  0.00  0.00    -0.310 OA
ATOM     20  C   LIG    1        3.919  -0.578  -1.381  0.00  0.00    +0.240 C 
ENDBRANCH   6  19
BRANCH   1  21
ATOM     21  C   LIG    1       -0.878   2.596   1.273  0.00  0.00    +0.030 C 
BRANCH  21  22
ATOM     22  C   LIG    1       -0.032   3.515   2.116  0.00  0.00    -0.090 A 
ATOM     23  C   LIG    1       -0.609   4.598   2.753  0.00  0.00    +0.030 A 
ATOM     24  C   LIG    1        0.166   5.438   3.530  0.00  0.00    +0.000 A 
ATOM     25  C   LIG    1        1.522   5.200   3.663  0.00  0.00    +0.010 A 
ATOM     26  C   LIG    1        2.101   4.121   3.022  0.00  0.00    +0.010 A 
ATOM     27  C   LIG    1        1.324   3.279   2.248  0.00  0.00    +0.010 A 
ENDBRANCH  21  22
BRANCH  21  29
ATOM     28  C   LIG    1       -2.758   0.951   1.315  0.00  0.00    +0.020 C 
ATOM     29  C   LIG    1       -1.969   1.968   2.142  0.00  0.00    +0.050 C 
ENDBRANCH  21  29
ENDBRANCH   1  21
TORSDOF 4
