REMARK  Name = ZINCvU0000000I0S.1
REMARK                            x       y       z     vdW  Elec       q    Type
REMARK                         _______ _______ _______ _____ _____    ______ ____
ROOT
ATOM      1  C   LIG    1       -1.254   2.160   0.020  0.00  0.00    +0.360 C 
ATOM      2  C   LIG    1       -2.162   1.786  -1.171  0.00  0.00    +0.080 C 
ATOM      3  C   LIG    1       -2.713   3.162  -1.633  0.00  0.00    +0.040 C 
ATOM      4  C   LIG    1       -1.495   4.085  -1.381  0.00  0.00    +0.240 C 
ATOM      5  N   LIG    1       -0.884   3.574  -0.137  0.00  0.00    -0.640 N 
ATOM      6  C   LIG    1       -0.115   4.284   0.714  0.00  0.00    +0.720 C 
ATOM      7  N   LIG    1        0.154   5.579   0.458  0.00  0.00    -0.660 N 
ATOM      8  H   LIG    1       -0.206   6.001  -0.338  0.00  0.00    +0.400 HD
ATOM      9  O   LIG    1        0.335   3.755   1.712  0.00  0.00    -0.550 OA
ENDROOT
BRANCH   1  15
ATOM     10  C   LIG    1        1.717  -1.873  -0.025  0.00  0.00    +0.140 C 
ATOM     11  C   LIG    1        1.269  -0.434  -0.012  0.00  0.00    +0.030 A 
ATOM     12  C   LIG    1        2.081   0.657  -0.014  0.00  0.00    +0.010 A 
ATOM     13  N   LIG    1        1.255   1.758  -0.001  0.00  0.00    -0.540 N 
ATOM     14  H   LIG    1        1.534   2.688   0.002  0.00  0.00    +0.420 HD
ATOM     15  C   LIG    1       -0.016   1.302   0.009  0.00  0.00    +0.210 A 
ATOM     16  N   LIG    1        0.002  -0.004   0.002  0.00  0.00    -0.480 NA
BRANCH  12  17
ATOM     17  C   LIG    1        3.560   0.660  -0.028  0.00  0.00    -0.010 A 
ATOM     18  C   LIG    1        4.270  -0.193   0.818  0.00  0.00    +0.030 A 
ATOM     19  C   LIG    1        5.650  -0.190   0.795  0.00  0.00    +0.020 A 
ATOM     20  C   LIG    1        6.329   0.664  -0.055  0.00  0.00    +0.000 A 
ATOM     21  C   LIG    1        5.631   1.517  -0.892  0.00  0.00    +0.000 A 
ATOM     22  C   LIG    1        4.251   1.519  -0.884  0.00  0.00    +0.000 A 
ENDBRANCH  12  17
ENDBRANCH   1  15
BRANCH   7  23
ATOM     23  C   LIG    1        0.950   6.315   1.339  0.00  0.00    +0.260 A 
ATOM     24  C   LIG    1        1.508   5.843   2.477  0.00  0.00    +0.020 A 
ATOM     25  C   LIG    1        2.251   6.960   3.070  0.00  0.00    -0.110 A 
ATOM     26  C   LIG    1        2.077   8.025   2.231  0.00  0.00    +0.250 A 
ATOM     27  N   LIG    1        1.298   7.627   1.190  0.00  0.00    -0.440 N 
BRANCH  27  28
ATOM     28  C   LIG    1        0.890   8.482   0.073  0.00  0.00    +0.150 C 
ATOM     29  C   LIG    1       -0.637   8.572   0.031  0.00  0.00    +0.050 C 
ATOM     30  C   LIG    1        1.402   7.886  -1.239  0.00  0.00    +0.050 C 
ATOM     31  C   LIG    1        1.478   9.883   0.262  0.00  0.00    +0.060 C 
ENDBRANCH  27  28
BRANCH  25  32
ATOM     32  C   LIG    1        3.008   6.940   4.285  0.00  0.00    +0.290 C 
ATOM     33  N   LIG    1        3.609   6.924   5.249  0.00  0.00    -0.440 NA
ENDBRANCH  25  32
ENDBRANCH   7  23
TORSDOF 5
