REMARK  Name = ZINCvU0000000I0S.0
REMARK                            x       y       z     vdW  Elec       q    Type
REMARK                         _______ _______ _______ _____ _____    ______ ____
ROOT
ATOM      1  C   LIG    1        4.949   6.178   0.198  0.00  0.00    +0.360 C 
ATOM      2  C   LIG    1        5.514   7.612   0.269  0.00  0.00    +0.080 C 
ATOM      3  C   LIG    1        4.294   8.488  -0.121  0.00  0.00    +0.040 C 
ATOM      4  C   LIG    1        3.125   7.694   0.514  0.00  0.00    +0.240 C 
ATOM      5  N   LIG    1        3.488   6.277   0.330  0.00  0.00    -0.630 N 
ATOM      6  C   LIG    1        2.624   5.243   0.296  0.00  0.00    +0.720 C 
ATOM      7  N   LIG    1        1.302   5.465   0.435  0.00  0.00    -0.660 N 
ATOM      8  H   LIG    1        0.972   6.368   0.560  0.00  0.00    +0.400 HD
ATOM      9  O   LIG    1        3.038   4.111   0.139  0.00  0.00    -0.550 OA
ENDROOT
BRANCH   1  14
ATOM     10  C   LIG    1        5.310   3.179   4.262  0.00  0.00    +0.150 C 
ATOM     11  C   LIG    1        5.659   4.049   3.082  0.00  0.00    -0.000 A 
ATOM     12  C   LIG    1        6.908   4.365   2.648  0.00  0.00    +0.040 A 
ATOM     13  N   LIG    1        6.777   5.158   1.565  0.00  0.00    -0.470 NA
ATOM     14  C   LIG    1        5.510   5.347   1.323  0.00  0.00    +0.210 A 
ATOM     15  N   LIG    1        4.782   4.673   2.239  0.00  0.00    -0.540 N 
ATOM     16  H   LIG    1        3.814   4.638   2.291  0.00  0.00    +0.420 HD
BRANCH  12  17
ATOM     17  C   LIG    1        8.185   3.915   3.255  0.00  0.00    +0.000 A 
ATOM     18  C   LIG    1        9.250   4.804   3.383  0.00  0.00    +0.030 A 
ATOM     19  C   LIG    1       10.434   4.380   3.952  0.00  0.00    +0.000 A 
ATOM     20  C   LIG    1       10.568   3.074   4.385  0.00  0.00    +0.000 A 
ATOM     21  C   LIG    1        9.515   2.185   4.255  0.00  0.00    +0.000 A 
ATOM     22  C   LIG    1        8.325   2.599   3.692  0.00  0.00    +0.010 A 
ENDBRANCH  12  17
ENDBRANCH   1  14
BRANCH   7  23
ATOM     23  C   LIG    1        0.407   4.393   0.399  0.00  0.00    +0.260 A 
ATOM     24  C   LIG    1        0.740   3.093   0.232  0.00  0.00    +0.020 A 
ATOM     25  C   LIG    1       -0.515   2.335   0.261  0.00  0.00    -0.110 A 
ATOM     26  C   LIG    1       -1.512   3.252   0.440  0.00  0.00    +0.250 A 
ATOM     27  N   LIG    1       -0.950   4.485   0.528  0.00  0.00    -0.440 N 
BRANCH  27  28
ATOM     28  C   LIG    1       -1.691   5.733   0.725  0.00  0.00    +0.150 C 
ATOM     29  C   LIG    1       -1.439   6.669  -0.459  0.00  0.00    +0.050 C 
ATOM     30  C   LIG    1       -1.222   6.406   2.017  0.00  0.00    +0.050 C 
ATOM     31  C   LIG    1       -3.187   5.428   0.824  0.00  0.00    +0.060 C 
ENDBRANCH  27  28
BRANCH  25  32
ATOM     32  C   LIG    1       -0.666   0.917   0.124  0.00  0.00    +0.290 C 
ATOM     33  N   LIG    1       -0.785  -0.207   0.015  0.00  0.00    -0.440 NA
ENDBRANCH  25  32
ENDBRANCH   7  23
TORSDOF 5
