REMARK  Name = ZINCb80000003VYM.0
REMARK                            x       y       z     vdW  Elec       q    Type
REMARK                         _______ _______ _______ _____ _____    ______ ____
ROOT
ATOM      1  C   LIG    1        1.344   2.014   0.000  0.00  0.00    +0.220 C 
ATOM      2  C   LIG    1        2.062   1.579  -1.280  0.00  0.00    +0.020 C 
ATOM      3  C   LIG    1        2.108   0.049  -1.338  0.00  0.00    +0.030 C 
ATOM      4  C   LIG    1        0.680  -0.499  -1.278  0.00  0.00    +0.140 C 
ATOM      5  C   LIG    1        0.002  -0.004   0.002  0.00  0.00    +0.240 C 
ATOM      6  F   LIG    1       -0.040  -0.052  -2.391  0.00  0.00    -0.210 F 
ATOM      7  N   LIG    1       -0.018   1.464   0.010  0.00  0.00    -0.670 NA
ATOM      8  H   LIG    1       -0.558   1.823  -0.763  0.00  0.00    +0.360 HD
ENDROOT
BRANCH   1   9
ATOM      9  C   LIG    1        1.278   3.518   0.052  0.00  0.00    +0.470 C 
ATOM     10  O   LIG    1        0.263   4.090  -0.265  0.00  0.00    -0.490 OA
BRANCH   9  12
ATOM     11  C   LIG    1        2.214   5.669   0.477  0.00  0.00    +0.270 C 
ATOM     12  O   LIG    1        2.349   4.223   0.452  0.00  0.00    -0.360 OA
ENDBRANCH   9  12
ENDBRANCH   1   9
TORSDOF 2
