REMARK  Name = ZINCkj000005jy4O.0
REMARK                            x       y       z     vdW  Elec       q    Type
REMARK                         _______ _______ _______ _____ _____    ______ ____
ROOT
ATOM      1  C   LIG    1       -4.706   1.815  -0.294  0.00  0.00    +0.510 C 
ATOM      2  N   LIG    1       -6.039   1.616  -0.273  0.00  0.00    -0.700 N 
ATOM      3  H   LIG    1       -6.627   2.216  -0.758  0.00  0.00    +0.410 HD
ATOM      4  O   LIG    1       -3.971   1.065   0.312  0.00  0.00    -0.520 OA
ENDROOT
BRANCH   1   6
ATOM      5  C   LIG    1       -4.690   4.284  -0.526  0.00  0.00    +0.120 C 
ATOM      6  C   LIG    1       -4.129   2.970  -1.073  0.00  0.00    +0.160 C 
BRANCH   6   7
ATOM      7  N   LIG    1       -2.666   2.968  -0.939  0.00  0.00    -0.340 N 
ATOM      8  C   LIG    1       -2.146   1.683  -1.445  0.00  0.00    +0.260 C 
ATOM      9  C   LIG    1       -0.715   1.889  -1.874  0.00  0.00    +0.040 C 
ATOM     10  C   LIG    1        0.271   1.484  -0.761  0.00  0.00    +0.030 C 
ATOM     11  C   LIG    1       -0.222   1.934   0.629  0.00  0.00    +0.010 C 
ATOM     12  C   LIG    1       -0.815   3.319   0.608  0.00  0.00    +0.060 C 
ATOM     13  C   LIG    1       -2.339   3.210   0.397  0.00  0.00    +0.220 C 
ATOM     14  H   LIG    1       -2.290   3.715  -1.503  0.00  0.00    +0.420 HD
ENDBRANCH   6   7
ENDBRANCH   1   6
BRANCH   2  15
ATOM     15  C   LIG    1       -6.600   0.494   0.484  0.00  0.00    +0.290 C 
BRANCH  15  16
ATOM     16  C   LIG    1       -8.123   0.495   0.344  0.00  0.00    +0.160 C 
BRANCH  16  17
ATOM     17  C   LIG    1       -8.700  -0.659   1.122  0.00  0.00    +0.190 A 
ATOM     18  N   LIG    1       -9.070  -0.624   2.373  0.00  0.00    -0.480 NA
ATOM     19  C   LIG    1       -9.535  -1.830   2.731  0.00  0.00    +0.160 A 
ATOM     20  C   LIG    1       -9.450  -2.643   1.661  0.00  0.00    +0.130 A 
ATOM     21  N   LIG    1       -8.926  -1.899   0.639  0.00  0.00    -0.460 N 
ATOM     22  C   LIG    1       -8.657  -2.364  -0.725  0.00  0.00    +0.330 C 
ENDBRANCH  16  17
ENDBRANCH  15  16
ENDBRANCH   2  15
TORSDOF 5
