REMARK  Name = ZINCpe000015uD7v.0
REMARK                            x       y       z     vdW  Elec       q    Type
REMARK                         _______ _______ _______ _____ _____    ______ ____
ROOT
ATOM      1  C   LIG    1       -0.601   7.358  -1.268  0.00  0.00    -0.040 A 
ATOM      2  C   LIG    1        0.138   6.935  -0.216  0.00  0.00    +0.160 A 
ATOM      3  N   LIG    1        1.181   6.249  -0.739  0.00  0.00    -0.290 N 
ATOM      4  N   LIG    1        1.073   6.268  -2.021  0.00  0.00    -0.080 NA
ATOM      5  N   LIG    1        0.018   6.916  -2.369  0.00  0.00    -0.250 NA
ENDROOT
BRANCH   1   8
ATOM      6  C   LIG    1       -3.845   8.220  -1.975  0.00  0.00    +0.010 C 
ATOM      7  C   LIG    1       -2.463   8.484  -2.594  0.00  0.00    +0.120 C 
ATOM      8  C   LIG    1       -1.870   8.168  -1.211  0.00  0.00    +0.190 C 
ATOM      9  C   LIG    1       -3.129   7.324  -0.951  0.00  0.00    +0.070 C 
BRANCH   6  10
ATOM     10  C   LIG    1       -4.479   9.445  -1.367  0.00  0.00    +0.480 C 
ATOM     11  O   LIG    1       -3.898  10.504  -1.399  0.00  0.00    -0.480 OA
BRANCH  10  13
ATOM     12  C   LIG    1       -6.236  10.579  -0.226  0.00  0.00    +0.260 C 
ATOM     13  O   LIG    1       -5.688   9.359  -0.791  0.00  0.00    -0.360 OA
ENDBRANCH  10  13
ENDBRANCH   6  10
BRANCH   8  14
ATOM     14  O   LIG    1       -1.761   9.312  -0.361  0.00  0.00    -0.510 OA
ATOM     15  H   LIG    1       -1.411   9.116   0.519  0.00  0.00    +0.370 HD
ENDBRANCH   8  14
ENDBRANCH   1   8
BRANCH   3  16
ATOM     16  C   LIG    1        2.251   5.602   0.023  0.00  0.00    +0.380 C 
BRANCH  16  17
ATOM     17  C   LIG    1        2.340   4.127  -0.373  0.00  0.00    +0.150 C 
ATOM     18  C   LIG    1        3.520   3.466   0.351  0.00  0.00    +0.240 C 
ATOM     19  O   LIG    1        3.565   2.087  -0.030  0.00  0.00    -0.300 OA
ATOM     20  C   LIG    1        2.386   1.408  -0.015  0.00  0.00    +0.050 A 
ATOM     21  C   LIG    1        2.397   0.022  -0.021  0.00  0.00    +0.030 A 
ATOM     22  C   LIG    1        1.207  -0.681  -0.013  0.00  0.00    +0.030 A 
ATOM     23  C   LIG    1        0.002  -0.004   0.002  0.00  0.00    +0.020 A 
ATOM     24  C   LIG    1       -0.017   1.378   0.010  0.00  0.00    +0.020 A 
ATOM     25  C   LIG    1        1.174   2.089   0.002  0.00  0.00    +0.050 A 
ATOM     26  O   LIG    1        1.140   3.450   0.015  0.00  0.00    -0.300 OA
ENDBRANCH  16  17
ENDBRANCH   3  16
TORSDOF 6
