REMARK  Name = ZINCvU0000000Hel.0
REMARK                            x       y       z     vdW  Elec       q    Type
REMARK                         _______ _______ _______ _____ _____    ______ ____
ROOT
ATOM      1  O   LIG    1        0.944   3.390  -3.518  0.00  0.00    -0.510 OA
ATOM      2  C   LIG    1        1.810   3.587  -2.692  0.00  0.00    +0.540 C 
ATOM      3  N   LIG    1        1.644   3.155  -1.426  0.00  0.00    -0.710 N 
ATOM      4  H   LIG    1        2.336   3.313  -0.766  0.00  0.00    +0.410 HD
ENDROOT
BRANCH   3   5
ATOM      5  C   LIG    1        0.418   2.448  -1.048  0.00  0.00    +0.360 C 
BRANCH   5   6
ATOM      6  C   LIG    1        0.165   2.634   0.426  0.00  0.00    +0.120 A 
ATOM      7  C   LIG    1       -0.974   3.296   0.845  0.00  0.00    -0.010 A 
ATOM      8  C   LIG    1       -1.199   3.458   2.204  0.00  0.00    +0.070 A 
ATOM      9  C   LIG    1       -0.262   2.955   3.093  0.00  0.00    -0.030 A 
ATOM     10  C   LIG    1        0.855   2.308   2.599  0.00  0.00    +0.260 A 
ATOM     11  N   LIG    1        1.035   2.168   1.300  0.00  0.00    -0.470 NA
ENDBRANCH   5   6
BRANCH   5  12
ATOM     12  C   LIG    1        0.571   0.980  -1.350  0.00  0.00    -0.100 A 
ATOM     13  C   LIG    1       -0.489   0.268  -1.878  0.00  0.00    +0.020 A 
ATOM     14  C   LIG    1       -0.348  -1.079  -2.155  0.00  0.00    +0.000 A 
ATOM     15  C   LIG    1        0.854  -1.714  -1.904  0.00  0.00    +0.000 A 
ATOM     16  C   LIG    1        1.915  -1.002  -1.377  0.00  0.00    -0.010 A 
ATOM     17  C   LIG    1        1.774   0.345  -1.100  0.00  0.00    +0.040 A 
ENDBRANCH   5  12
ENDBRANCH   3   5
BRANCH   2  18
ATOM     18  C   LIG    1        3.071   4.314  -3.081  0.00  0.00    +0.080 C 
BRANCH  18  19
ATOM     19  S   LIG    1        2.993   4.762  -4.838  0.00  0.00    -0.140 S 
BRANCH  19  20
ATOM     20  C   LIG    1        4.571   5.613  -5.112  0.00  0.00    +0.110 C 
BRANCH  20  21
ATOM     21  C   LIG    1        4.604   6.884  -4.301  0.00  0.00    -0.090 A 
ATOM     22  C   LIG    1        3.562   7.787  -4.391  0.00  0.00    +0.030 A 
ATOM     23  C   LIG    1        3.590   8.950  -3.644  0.00  0.00    +0.000 A 
ATOM     24  C   LIG    1        4.665   9.215  -2.816  0.00  0.00    +0.000 A 
ATOM     25  C   LIG    1        5.709   8.313  -2.731  0.00  0.00    +0.000 A 
ATOM     26  C   LIG    1        5.679   7.148  -3.473  0.00  0.00    +0.010 A 
ENDBRANCH  20  21
BRANCH  20  27
ATOM     27  C   LIG    1        4.715   5.947  -6.574  0.00  0.00    -0.060 A 
ATOM     28  C   LIG    1        3.697   6.606  -7.236  0.00  0.00    +0.030 A 
ATOM     29  C   LIG    1        3.830   6.916  -8.577  0.00  0.00    +0.000 A 
ATOM     30  C   LIG    1        4.979   6.557  -9.258  0.00  0.00    +0.010 A 
ATOM     31  C   LIG    1        5.995   5.892  -8.597  0.00  0.00    +0.000 A 
ATOM     32  C   LIG    1        5.863   5.587  -7.255  0.00  0.00    +0.020 A 
ENDBRANCH  20  27
ENDBRANCH  19  20
ENDBRANCH  18  19
ENDBRANCH   2  18
TORSDOF 8
