REMARK  Name = ZINCpe00000VVGWk.0
REMARK                            x       y       z     vdW  Elec       q    Type
REMARK                         _______ _______ _______ _____ _____    ______ ____
ROOT
ATOM      1  N   LIG    1       -2.806   1.458   4.912  0.00  0.00    -0.700 N 
ATOM      2  H   LIG    1       -2.473   2.202   5.437  0.00  0.00    +0.410 HD
ATOM      3  C   LIG    1       -3.906   0.790   5.311  0.00  0.00    +0.510 C 
ATOM      4  O   LIG    1       -4.323  -0.141   4.654  0.00  0.00    -0.510 OA
ENDROOT
BRANCH   3   5
ATOM      5  C   LIG    1       -4.614   1.197   6.562  0.00  0.00    +0.510 C 
ATOM      6  N   LIG    1       -5.714   0.529   6.962  0.00  0.00    -0.640 N 
ATOM      7  H   LIG    1       -6.092  -0.164   6.398  0.00  0.00    +0.430 HD
ATOM      8  O   LIG    1       -4.197   2.128   7.220  0.00  0.00    -0.490 OA
BRANCH   6   9
ATOM      9  C   LIG    1       -6.312   0.837   8.188  0.00  0.00    +0.130 A 
ATOM     10  C   LIG    1       -7.692   0.737   8.332  0.00  0.00    +0.070 A 
ATOM     11  C   LIG    1       -8.289   1.039   9.541  0.00  0.00    +0.030 A 
ATOM     12  C   LIG    1       -7.519   1.445  10.615  0.00  0.00    +0.140 A 
ATOM     13  C   LIG    1       -6.130   1.548  10.479  0.00  0.00    -0.040 A 
ATOM     14  F   LIG    1       -8.107   1.740  11.795  0.00  0.00    -0.120 F 
ATOM     15  C   LIG    1       -5.529   1.236   9.259  0.00  0.00    +0.100 A 
BRANCH  13  16
ATOM     16  C   LIG    1       -5.329   1.967  11.589  0.00  0.00    +0.250 C 
ATOM     17  N   LIG    1       -4.692   2.299  12.470  0.00  0.00    -0.390 NA
ENDBRANCH  13  16
ENDBRANCH   6   9
ENDBRANCH   3   5
BRANCH   1  18
ATOM     18  C   LIG    1       -2.112   1.059   3.685  0.00  0.00    +0.290 C 
BRANCH  18  19
ATOM     19  C   LIG    1       -0.905   1.972   3.462  0.00  0.00    +0.180 C 
BRANCH  19  23
ATOM     20  C   LIG    1       -1.143   1.657  -1.445  0.00  0.00    +0.050 C 
ATOM     21  C   LIG    1       -0.310   1.333  -0.202  0.00  0.00    +0.160 C 
ATOM     22  C   LIG    1       -1.048   1.817   1.049  0.00  0.00    +0.160 C 
ATOM     23  N   LIG    1       -0.209   1.572   2.231  0.00  0.00    -0.530 NA
ATOM     24  C   LIG    1        1.082   2.264   2.107  0.00  0.00    +0.160 C 
ATOM     25  C   LIG    1        1.798   1.775   0.845  0.00  0.00    +0.200 C 
ATOM     26  C   LIG    1        2.102   0.281   0.976  0.00  0.00    +0.020 C 
ATOM     27  O   LIG    1        0.955   1.993  -0.289  0.00  0.00    -0.380 OA
ENDBRANCH  19  23
ENDBRANCH  18  19
ENDBRANCH   1  18
TORSDOF 6
