REMARK  Name = ZINCkj00000y7NER.0
REMARK                            x       y       z     vdW  Elec       q    Type
REMARK                         _______ _______ _______ _____ _____    ______ ____
ROOT
ATOM      1  N   LIG    1        1.788   3.397   1.964  0.00  0.00    -0.500 N 
ATOM      2  H   LIG    1        2.329   2.582   2.212  0.00  0.00    +0.430 HD
ATOM      3  H   LIG    1        1.226   3.679   2.754  0.00  0.00    +0.440 HD
ENDROOT
BRANCH   1   4
ATOM      4  C   LIG    1        0.912   3.076   0.830  0.00  0.00    +0.150 C 
ATOM      5  C   LIG    1        1.544   2.104  -0.181  0.00  0.00    +0.070 C 
ATOM      6  C   LIG    1        0.163   1.434  -0.281  0.00  0.00    +0.200 C 
ATOM      7  C   LIG    1       -0.112   1.970   1.135  0.00  0.00    +0.300 C 
BRANCH   7   8
ATOM      8  N   LIG    1       -1.477   2.468   1.319  0.00  0.00    -0.390 N 
ATOM      9  C   LIG    1       -2.353   2.765   0.336  0.00  0.00    +0.230 A 
ATOM     10  C   LIG    1       -3.499   3.188   0.918  0.00  0.00    -0.090 A 
ATOM     11  C   LIG    1       -3.313   3.157   2.304  0.00  0.00    +0.260 A 
ATOM     12  N   LIG    1       -2.102   2.725   2.545  0.00  0.00    -0.300 NA
ENDBRANCH   7   8
BRANCH   6  13
ATOM     13  O   LIG    1        0.223   0.008  -0.351  0.00  0.00    -0.540 OA
ATOM     14  H   LIG    1        0.441  -0.333  -1.230  0.00  0.00    +0.400 HD
ENDBRANCH   6  13
ENDBRANCH   1   4
BRANCH   1  15
ATOM     15  C   LIG    1        2.693   4.492   1.591  0.00  0.00    +0.190 C 
BRANCH  15  16
ATOM     16  C   LIG    1        3.687   4.742   2.727  0.00  0.00    +0.000 C 
ATOM     17  C   LIG    1        4.623   5.912   2.361  0.00  0.00    +0.040 C 
ATOM     18  C   LIG    1        5.998   5.493   2.941  0.00  0.00    +0.030 C 
ATOM     19  C   LIG    1        6.032   3.968   2.673  0.00  0.00    +0.020 C 
ATOM     20  C   LIG    1        4.582   3.506   2.925  0.00  0.00    -0.000 C 
ENDBRANCH  15  16
BRANCH  15  21
ATOM     21  C   LIG    1        1.879   5.762   1.336  0.00  0.00    +0.200 C 
BRANCH  21  23
ATOM     22  C   LIG    1        0.451   7.354   2.420  0.00  0.00    +0.240 C 
ATOM     23  O   LIG    1        1.242   6.170   2.549  0.00  0.00    -0.390 OA
ENDBRANCH  21  23
ENDBRANCH  15  21
ENDBRANCH   1  15
TORSDOF 7
