REMARK  Name = ZINCpk00000e9040.0
REMARK                            x       y       z     vdW  Elec       q    Type
REMARK                         _______ _______ _______ _____ _____    ______ ____
ROOT
ATOM      1  N   LIG    1       -3.567  -0.989  -3.546  0.00  0.00    -0.520 NA
ATOM      2  C   LIG    1       -3.218  -2.248  -2.874  0.00  0.00    +0.180 C 
ATOM      3  C   LIG    1       -2.850  -1.962  -1.417  0.00  0.00    +0.190 C 
ATOM      4  N   LIG    1       -1.726  -1.017  -1.374  0.00  0.00    -0.540 NA
ATOM      5  C   LIG    1       -2.075   0.243  -2.046  0.00  0.00    +0.190 C 
ATOM      6  C   LIG    1       -2.442  -0.044  -3.504  0.00  0.00    +0.190 C 
ENDROOT
BRANCH   1   7
ATOM      7  C   LIG    1       -3.999  -1.231  -4.928  0.00  0.00    +0.190 C 
BRANCH   7  10
ATOM      8  N   LIG    1       -5.043   0.051  -6.769  0.00  0.00    -0.730 N 
ATOM      9  H   LIG    1       -5.004  -0.754  -7.309  0.00  0.00    +0.400 HD
ATOM     10  C   LIG    1       -4.578   0.036  -5.504  0.00  0.00    +0.520 C 
ATOM     11  O   LIG    1       -4.626   1.042  -4.828  0.00  0.00    -0.510 OA
BRANCH   8  13
ATOM     12  C   LIG    1       -4.542   2.382  -7.311  0.00  0.00    +0.030 C 
ATOM     13  C   LIG    1       -5.605   1.282  -7.328  0.00  0.00    +0.170 C 
ATOM     14  C   LIG    1       -6.806   1.722  -6.487  0.00  0.00    +0.030 C 
ATOM     15  C   LIG    1       -6.056   1.030  -8.768  0.00  0.00    +0.030 C 
ENDBRANCH   8  13
ENDBRANCH   7  10
ENDBRANCH   1   7
BRANCH   4  16
ATOM     16  C   LIG    1       -1.293  -0.774   0.008  0.00  0.00    +0.240 C 
BRANCH  16  17
ATOM     17  C   LIG    1        0.002  -0.004   0.002  0.00  0.00    -0.070 A 
ATOM     18  C   LIG    1       -0.017   1.378   0.010  0.00  0.00    +0.020 A 
ATOM     19  C   LIG    1        1.170   2.088   0.002  0.00  0.00    +0.020 A 
ATOM     20  C   LIG    1        2.382   1.415  -0.012  0.00  0.00    +0.050 A 
ATOM     21  O   LIG    1        3.541   2.127  -0.022  0.00  0.00    -0.310 OA
ATOM     22  C   LIG    1        4.732   1.422   0.344  0.00  0.00    +0.220 C 
ATOM     23  C   LIG    1        4.746   0.081  -0.403  0.00  0.00    +0.220 C 
ATOM     24  O   LIG    1        3.579  -0.656  -0.023  0.00  0.00    -0.310 OA
ATOM     25  C   LIG    1        2.401   0.025  -0.018  0.00  0.00    +0.050 A 
ATOM     26  C   LIG    1        1.207  -0.681  -0.012  0.00  0.00    +0.040 A 
ENDBRANCH  16  17
ENDBRANCH   4  16
TORSDOF 5
