REMARK  Name = ZINCqH0000037f4f.1
REMARK                            x       y       z     vdW  Elec       q    Type
REMARK                         _______ _______ _______ _____ _____    ______ ____
ROOT
ATOM      1  N   LIG    1       -0.009   0.995   0.022  0.00  0.00    -0.660 NA
ATOM      2  H   LIG    1       -0.016  -0.007   0.134  0.00  0.00    +0.350 HD
ENDROOT
BRANCH   1   3
ATOM      3  C   LIG    1       -0.735   1.394  -1.191  0.00  0.00    +0.280 C 
ATOM      4  C   LIG    1       -2.220   1.414  -0.925  0.00  0.00    -0.080 A 
ATOM      5  C   LIG    1       -2.994   2.136  -0.044  0.00  0.00    +0.050 A 
ATOM      6  C   LIG    1       -4.365   1.949  -0.010  0.00  0.00    +0.020 A 
ATOM      7  C   LIG    1       -4.962   1.035  -0.860  0.00  0.00    +0.010 A 
ATOM      8  C   LIG    1       -4.195   0.306  -1.745  0.00  0.00    +0.020 A 
ATOM      9  C   LIG    1       -2.812   0.490  -1.785  0.00  0.00    -0.060 A 
ATOM     10  C   LIG    1       -1.765  -0.147  -2.621  0.00  0.00    -0.050 A 
ATOM     11  C   LIG    1       -1.851  -1.121  -3.618  0.00  0.00    +0.020 A 
ATOM     12  C   LIG    1       -0.708  -1.554  -4.258  0.00  0.00    +0.020 A 
ATOM     13  C   LIG    1        0.524  -1.027  -3.917  0.00  0.00    +0.020 A 
ATOM     14  C   LIG    1        0.617  -0.062  -2.929  0.00  0.00    +0.030 A 
ATOM     15  C   LIG    1       -0.519   0.377  -2.284  0.00  0.00    -0.130 A 
ENDBRANCH   1   3
BRANCH   1  17
ATOM     16  C   LIG    1        1.381   2.933   0.579  0.00  0.00    +0.050 C 
ATOM     17  C   LIG    1        1.365   1.514   0.007  0.00  0.00    +0.170 C 
BRANCH  17  18
ATOM     18  C   LIG    1        2.247   0.625   0.846  0.00  0.00    -0.030 A 
ATOM     19  C   LIG    1        1.777   0.117   2.043  0.00  0.00    +0.020 A 
ATOM     20  C   LIG    1        2.584  -0.702   2.810  0.00  0.00    +0.120 A 
ATOM     21  C   LIG    1        3.865  -1.005   2.385  0.00  0.00    -0.680 A 
ATOM     22  C   LIG    1        4.336  -0.493   1.191  0.00  0.00    +0.120 A 
ATOM     23  C   LIG    1        3.527   0.323   0.421  0.00  0.00    +0.000 A 
BRANCH  21  24
ATOM     24  S   LIG    1        4.895  -2.045   3.366  0.00  0.00    +2.700 S 
ATOM     25  O   LIG    1        5.853  -2.609   2.481  0.00  0.00    -0.960 OA
ATOM     26  O   LIG    1        4.025  -2.827   4.171  0.00  0.00    -0.960 OA
BRANCH  24  27
ATOM     27  N   LIG    1        5.736  -1.064   4.402  0.00  0.00    -1.250 NA
ATOM     28  H   LIG    1        6.365  -1.450   5.032  0.00  0.00    +0.420 HD
ATOM     29  H   LIG    1        5.601  -0.104   4.379  0.00  0.00    +0.420 HD
ENDBRANCH  24  27
ENDBRANCH  21  24
ENDBRANCH  17  18
ENDBRANCH   1  17
TORSDOF 5
