REMARK  Name = ZINCAx0000000fpa.0
REMARK                            x       y       z     vdW  Elec       q    Type
REMARK                         _______ _______ _______ _____ _____    ______ ____
ROOT
ATOM      1  C   LIG    1        4.229   6.413   0.799  0.00  0.00    +0.300 A 
ATOM      2  C   LIG    1        5.339   5.676   0.382  0.00  0.00    -0.030 A 
ATOM      3  C   LIG    1        6.299   6.255  -0.419  0.00  0.00    +0.100 A 
ATOM      4  C   LIG    1        6.186   7.582  -0.812  0.00  0.00    +0.050 A 
ATOM      5  C   LIG    1        5.097   8.332  -0.404  0.00  0.00    -0.090 A 
ATOM      6  C   LIG    1        4.663   9.728  -0.625  0.00  0.00    +0.570 C 
ATOM      7  O   LIG    1        5.258  10.560  -1.280  0.00  0.00    -0.460 OA
ATOM      8  N   LIG    1        3.500   9.921   0.022  0.00  0.00    -0.570 N 
ATOM      9  C   LIG    1        3.106   8.800   0.654  0.00  0.00    +0.590 C 
ATOM     10  O   LIG    1        2.095   8.679   1.317  0.00  0.00    -0.470 OA
ATOM     11  C   LIG    1        4.104   7.746   0.410  0.00  0.00    -0.250 A 
ENDROOT
BRANCH   8  12
ATOM     12  C   LIG    1        2.759  11.184   0.036  0.00  0.00    +0.270 C 
ATOM     13  C   LIG    1        2.067  11.387  -1.317  0.00  0.00    +0.060 C 
ATOM     14  C   LIG    1        3.142  11.531  -2.398  0.00  0.00    +0.080 C 
ATOM     15  C   LIG    1        4.076  12.651  -2.022  0.00  0.00    +0.550 C 
ATOM     16  N   LIG    1        4.302  12.968  -0.739  0.00  0.00    -0.660 N 
ATOM     17  H   LIG    1        4.916  13.692  -0.539  0.00  0.00    +0.420 HD
ATOM     18  O   LIG    1        4.633  13.279  -2.897  0.00  0.00    -0.500 OA
ATOM     19  C   LIG    1        3.712  12.324   0.279  0.00  0.00    +0.520 C 
ATOM     20  O   LIG    1        3.951  12.666   1.417  0.00  0.00    -0.480 OA
ENDBRANCH   8  12
BRANCH   1  21
ATOM     21  N   LIG    1        3.260   5.825   1.599  0.00  0.00    -0.720 N 
ATOM     22  H   LIG    1        2.492   6.342   1.890  0.00  0.00    +0.410 HD
BRANCH  21  23
ATOM     23  C   LIG    1        3.396   4.424   2.004  0.00  0.00    +0.250 C 
BRANCH  23  24
ATOM     24  C   LIG    1        2.202   4.027   2.875  0.00  0.00    +0.010 C 
BRANCH  24  25
ATOM     25  C   LIG    1        2.345   2.563   3.299  0.00  0.00    +0.020 C 
BRANCH  25  26
ATOM     26  C   LIG    1        1.151   2.166   4.170  0.00  0.00    +0.000 C 
BRANCH  26  27
ATOM     27  C   LIG    1        1.294   0.703   4.593  0.00  0.00    +0.000 C 
BRANCH  27  28
ATOM     28  C   LIG    1        0.100   0.306   5.465  0.00  0.00    +0.030 C 
BRANCH  28  29
ATOM     29  C   LIG    1        0.242  -1.158   5.888  0.00  0.00    +0.040 C 
BRANCH  29  31
ATOM     30  O   LIG    1       -1.799  -0.737   6.995  0.00  0.00    -0.540 OA
ATOM     31  C   LIG    1       -0.933  -1.549   6.746  0.00  0.00    +0.510 C 
ATOM     32  N   LIG    1       -1.022  -2.801   7.237  0.00  0.00    -0.730 N 
ATOM     33  H   LIG    1       -0.329  -3.450   7.039  0.00  0.00    +0.400 HD
BRANCH  32  34
ATOM     34  C   LIG    1       -2.165  -3.181   8.072  0.00  0.00    +0.390 C 
BRANCH  34  35
ATOM     35  C   LIG    1       -2.025  -4.622   8.489  0.00  0.00    -0.040 A 
ATOM     36  C   LIG    1       -1.404  -5.064   9.598  0.00  0.00    -0.030 A 
ATOM     37  C   LIG    1       -1.510  -6.473   9.593  0.00  0.00    -0.070 A 
ATOM     38  C   LIG    1       -2.189  -6.809   8.481  0.00  0.00    +0.180 A 
ATOM     39  O   LIG    1       -2.503  -5.684   7.819  0.00  0.00    -0.170 OA
ENDBRANCH  34  35
ENDBRANCH  32  34
ENDBRANCH  29  31
ENDBRANCH  28  29
ENDBRANCH  27  28
ENDBRANCH  26  27
ENDBRANCH  25  26
ENDBRANCH  24  25
ENDBRANCH  23  24
ENDBRANCH  21  23
ENDBRANCH   1  21
TORSDOF 12
