REMARK  Name = ZINCvU0000000Clv.0
REMARK                            x       y       z     vdW  Elec       q    Type
REMARK                         _______ _______ _______ _____ _____    ______ ____
ROOT
ATOM      1  N   LIG    1        1.230  -0.834   5.143  0.00  0.00    -0.670 N 
ATOM      2  H   LIG    1        1.855  -0.093   5.107  0.00  0.00    +0.420 HD
ATOM      3  C   LIG    1        0.475  -1.131   4.066  0.00  0.00    +0.540 C 
ATOM      4  O   LIG    1       -0.371  -1.997   4.139  0.00  0.00    -0.490 OA
ENDROOT
BRANCH   1   9
ATOM      5  C   LIG    1        2.107  -2.592   8.255  0.00  0.00    +0.130 A 
ATOM      6  C   LIG    1        0.869  -3.100   8.625  0.00  0.00    +0.020 A 
ATOM      7  C   LIG    1       -0.242  -2.856   7.840  0.00  0.00    +0.060 A 
ATOM      8  C   LIG    1       -0.126  -2.101   6.689  0.00  0.00    +0.040 A 
ATOM      9  C   LIG    1        1.111  -1.594   6.311  0.00  0.00    +0.160 A 
ATOM     10  C   LIG    1        2.228  -1.838   7.097  0.00  0.00    +0.010 A 
BRANCH   5  15
ATOM     11  C   LIG    1        3.347  -2.660  10.404  0.00  0.00    +0.160 A 
ATOM     12  N   LIG    1        4.566  -3.015  10.738  0.00  0.00    -0.290 NA
ATOM     13  N   LIG    1        5.211  -3.399   9.695  0.00  0.00    -0.280 NA
ATOM     14  C   LIG    1        4.449  -3.321   8.641  0.00  0.00    +0.400 A 
ATOM     15  N   LIG    1        3.234  -2.841   9.052  0.00  0.00    -0.420 N 
BRANCH  11  17
ATOM     16  C   LIG    1        2.991  -2.112  13.061  0.00  0.00    +0.150 C 
ATOM     17  S   LIG    1        2.094  -2.065  11.490  0.00  0.00    +0.010 S 
ENDBRANCH  11  17
ENDBRANCH   5  15
ENDBRANCH   1   9
BRANCH   3  18
ATOM     18  C   LIG    1        0.681  -0.386   2.773  0.00  0.00    +0.100 C 
BRANCH  18  19
ATOM     19  S   LIG    1       -0.477  -1.010   1.524  0.00  0.00    -0.140 S 
BRANCH  19  20
ATOM     20  C   LIG    1       -0.082  -0.009   0.064  0.00  0.00    +0.110 C 
BRANCH  20  21
ATOM     21  C   LIG    1       -0.888  -0.496  -1.113  0.00  0.00    -0.060 A 
ATOM     22  C   LIG    1       -2.257  -0.648  -0.997  0.00  0.00    +0.030 A 
ATOM     23  C   LIG    1       -2.997  -1.090  -2.078  0.00  0.00    +0.010 A 
ATOM     24  C   LIG    1       -2.366  -1.390  -3.271  0.00  0.00    +0.010 A 
ATOM     25  C   LIG    1       -0.996  -1.243  -3.385  0.00  0.00    +0.010 A 
ATOM     26  C   LIG    1       -0.257  -0.796  -2.306  0.00  0.00    +0.020 A 
ENDBRANCH  20  21
BRANCH  20  27
ATOM     27  C   LIG    1       -0.416   1.435   0.339  0.00  0.00    -0.090 A 
ATOM     28  C   LIG    1       -1.671   1.776   0.808  0.00  0.00    +0.030 A 
ATOM     29  C   LIG    1       -1.976   3.100   1.065  0.00  0.00    +0.000 A 
ATOM     30  C   LIG    1       -1.031   4.083   0.843  0.00  0.00    +0.000 A 
ATOM     31  C   LIG    1        0.222   3.742   0.368  0.00  0.00    +0.000 A 
ATOM     32  C   LIG    1        0.529   2.418   0.116  0.00  0.00    +0.010 A 
ENDBRANCH  20  27
ENDBRANCH  19  20
ENDBRANCH  18  19
ENDBRANCH   3  18
TORSDOF 8
