REMARK  Name = ZINCvU00000009V0.0
REMARK                            x       y       z     vdW  Elec       q    Type
REMARK                         _______ _______ _______ _____ _____    ______ ____
ROOT
ATOM      1  O   LIG    1        6.785   9.311  -0.003  0.00  0.00    -0.490 OA
ATOM      2  C   LIG    1        5.644   9.722   0.001  0.00  0.00    +0.510 C 
ATOM      3  N   LIG    1        5.405  11.049   0.008  0.00  0.00    -0.670 N 
ATOM      4  H   LIG    1        4.495  11.379  -0.056  0.00  0.00    +0.410 HD
ENDROOT
BRANCH   3   5
ATOM      5  C   LIG    1        6.472  11.952   0.109  0.00  0.00    +0.100 A 
ATOM      6  C   LIG    1        6.312  13.141   0.808  0.00  0.00    +0.030 A 
ATOM      7  C   LIG    1        7.365  14.028   0.912  0.00  0.00    -0.060 A 
ATOM      8  C   LIG    1        8.579  13.736   0.308  0.00  0.00    +0.120 A 
ATOM      9  C   LIG    1        8.738  12.551  -0.396  0.00  0.00    +0.010 A 
ATOM     10  C   LIG    1        7.688  11.661  -0.495  0.00  0.00    +0.070 A 
BRANCH   8  11
ATOM     11  O   LIG    1        9.614  14.613   0.405  0.00  0.00    -0.310 OA
BRANCH  11  12
ATOM     12  C   LIG    1        9.380  15.813   1.145  0.00  0.00    +0.240 C 
BRANCH  12  13
ATOM     13  C   LIG    1       10.630  16.655   1.144  0.00  0.00    -0.100 A 
ATOM     14  C   LIG    1       11.568  16.500   2.148  0.00  0.00    +0.020 A 
ATOM     15  C   LIG    1       12.717  17.269   2.145  0.00  0.00    +0.010 A 
ATOM     16  C   LIG    1       12.924  18.199   1.144  0.00  0.00    +0.020 A 
ATOM     17  C   LIG    1       11.983  18.358   0.143  0.00  0.00    +0.010 A 
ATOM     18  C   LIG    1       10.837  17.586   0.143  0.00  0.00    +0.020 A 
ENDBRANCH  12  13
ENDBRANCH  11  12
ENDBRANCH   8  11
ENDBRANCH   3   5
BRANCH   2  19
ATOM     19  C   LIG    1        4.492   8.750  -0.002  0.00  0.00    +0.270 C 
BRANCH  19  20
ATOM     20  O   LIG    1        5.006   7.392  -0.010  0.00  0.00    -0.330 OA
BRANCH  20  21
ATOM     21  C   LIG    1        4.103   6.399  -0.013  0.00  0.00    +0.470 C 
ATOM     22  O   LIG    1        2.922   6.656  -0.010  0.00  0.00    -0.500 OA
BRANCH  21  23
ATOM     23  C   LIG    1        4.562   4.963  -0.021  0.00  0.00    +0.140 C 
BRANCH  23  24
ATOM     24  C   LIG    1        3.343   4.038  -0.024  0.00  0.00    +0.090 C 
BRANCH  24  25
ATOM     25  S   LIG    1        3.895   2.311  -0.034  0.00  0.00    -0.070 S 
BRANCH  25  26
ATOM     26  C   LIG    1        2.380   1.410  -0.036  0.00  0.00    -0.080 A 
ATOM     27  C   LIG    1        1.168   2.088  -0.029  0.00  0.00    +0.010 A 
ATOM     28  C   LIG    1       -0.018   1.379  -0.031  0.00  0.00    +0.040 A 
ATOM     29  C   LIG    1        0.001  -0.003  -0.038  0.00  0.00    +0.030 A 
ATOM     30  C   LIG    1        1.206  -0.682  -0.044  0.00  0.00    +0.050 A 
ATOM     31  C   LIG    1        2.396   0.020  -0.043  0.00  0.00    -0.020 A 
ATOM     32 CL   LIG    1        3.908  -0.833  -0.051  0.00  0.00    -0.050 Cl
ENDBRANCH  25  26
ENDBRANCH  24  25
ENDBRANCH  23  24
ENDBRANCH  21  23
ENDBRANCH  20  21
ENDBRANCH  19  20
ENDBRANCH   2  19
TORSDOF 11
