REMARK  Name = ZINCpk000000o5WM.0
REMARK                            x       y       z     vdW  Elec       q    Type
REMARK                         _______ _______ _______ _____ _____    ______ ____
ROOT
ATOM      1  C   LIG    1        0.891   6.022   1.095  0.00  0.00    -0.020 C 
ATOM      2  C   LIG    1       -0.308   5.076   1.182  0.00  0.00    +0.040 C 
ATOM      3  C   LIG    1       -0.266   4.095   0.006  0.00  0.00    +0.310 C 
ATOM      4  N   LIG    1        1.038   3.418   0.001  0.00  0.00    -0.580 N 
ATOM      5  C   LIG    1        2.258   4.236   0.015  0.00  0.00    +0.290 C 
ATOM      6  C   LIG    1        2.188   5.215   1.186  0.00  0.00    +0.040 C 
ENDROOT
BRANCH   4   7
ATOM      7  C   LIG    1        1.115   2.043  -0.011  0.00  0.00    +0.660 A 
ATOM      8  N   LIG    1       -0.011   1.356  -0.018  0.00  0.00    -0.680 NA
ATOM      9  C   LIG    1        0.003   0.006  -0.030  0.00  0.00    +0.450 A 
ATOM     10  C   LIG    1        1.320  -0.659  -0.034  0.00  0.00    -0.300 A 
ATOM     11  C   LIG    1        1.741  -1.968  -0.045  0.00  0.00    +0.460 A 
ATOM     12  N   LIG    1        3.090  -1.986  -0.045  0.00  0.00    -0.460 N 
ATOM     13  H   LIG    1        3.642  -2.784  -0.051  0.00  0.00    +0.460 HD
ATOM     14  N   LIG    1        3.564  -0.667  -0.033  0.00  0.00    -0.470 N 
ATOM     15  H   LIG    1        4.495  -0.395  -0.030  0.00  0.00    +0.460 HD
ATOM     16  C   LIG    1        2.477   0.169  -0.026  0.00  0.00    +0.490 A 
ATOM     17  N   LIG    1       -1.117  -0.691  -0.036  0.00  0.00    -0.750 NA
ATOM     18  H   LIG    1       -1.973  -0.234  -0.032  0.00  0.00    +0.330 HD
ATOM     19  N   LIG    1        2.321   1.481  -0.015  0.00  0.00    -0.660 NA
ENDBRANCH   4   7
BRANCH   1  26
ATOM     20  C   LIG    1       -3.171  10.706   2.361  0.00  0.00    +0.020 C 
ATOM     21  C   LIG    1       -1.756  10.195   2.080  0.00  0.00    -0.020 C 
ATOM     22  C   LIG    1       -1.119   9.715   3.386  0.00  0.00    +0.020 C 
ATOM     23  C   LIG    1        0.309   9.236   3.107  0.00  0.00    +0.270 C 
ATOM     24  N   LIG    1        0.267   8.219   2.047  0.00  0.00    -0.610 N 
ATOM     25  C   LIG    1       -0.399   8.547   0.779  0.00  0.00    +0.260 C 
ATOM     26  C   LIG    1        0.834   7.010   2.232  0.00  0.00    +0.520 C 
ATOM     27  O   LIG    1        1.298   6.717   3.314  0.00  0.00    -0.540 OA
ATOM     28  C   LIG    1       -1.823   9.033   1.087  0.00  0.00    +0.020 C 
ENDBRANCH   1  26
TORSDOF 2
