REMARK  Name = ZINCrH00000tj1p5.0
REMARK                            x       y       z     vdW  Elec       q    Type
REMARK                         _______ _______ _______ _____ _____    ______ ____
ROOT
ATOM      1  C   LIG    1        2.403   0.025  -0.033  0.00  0.00    -0.130 A 
ATOM      2  C   LIG    1        1.199  -0.684  -0.034  0.00  0.00    +0.070 A 
ATOM      3  C   LIG    1        0.001  -0.003  -0.028  0.00  0.00    -0.010 A 
ATOM      4  C   LIG    1       -0.017   1.382  -0.021  0.00  0.00    +0.060 A 
ATOM      5  C   LIG    1        1.163   2.097  -0.020  0.00  0.00    -0.020 A 
ATOM      6  C   LIG    1        2.381   1.429  -0.026  0.00  0.00    -0.060 A 
ENDROOT
BRANCH   1   9
ATOM      7  N   LIG    1        3.704  -2.045  -0.046  0.00  0.00    -0.720 N 
ATOM      8  H   LIG    1        2.870  -2.540  -0.047  0.00  0.00    +0.410 HD
ATOM      9  C   LIG    1        3.688  -0.697  -0.039  0.00  0.00    +0.560 C 
ATOM     10  O   LIG    1        4.734  -0.077  -0.038  0.00  0.00    -0.510 OA
BRANCH   7  11
ATOM     11  C   LIG    1        4.982  -2.762  -0.052  0.00  0.00    +0.290 C 
BRANCH  11  12
ATOM     12  C   LIG    1        4.724  -4.247  -0.059  0.00  0.00    +0.360 C 
ATOM     13  O   LIG    1        3.591  -4.663  -0.059  0.00  0.00    -0.440 OA
BRANCH  12  15
ATOM     14  C   LIG    1        5.349  -6.647  -0.073  0.00  0.00    +0.050 C 
ATOM     15  C   LIG    1        5.881  -5.212  -0.067  0.00  0.00    -0.110 C 
ATOM     16  C   LIG    1        6.738  -4.992   1.182  0.00  0.00    +0.060 C 
ATOM     17  C   LIG    1        6.732  -4.979  -1.317  0.00  0.00    +0.060 C 
ENDBRANCH  12  15
ENDBRANCH  11  12
ENDBRANCH   7  11
ENDBRANCH   1   9
BRANCH   6  18
ATOM     18  S   LIG    1        3.890   2.339  -0.024  0.00  0.00    +0.090 S 
BRANCH  18  19
ATOM     19  C   LIG    1        3.327   4.063  -0.015  0.00  0.00    +0.030 C 
BRANCH  19  20
ATOM     20  C   LIG    1        4.522   4.981  -0.013  0.00  0.00    +0.540 C 
ATOM     21  N   LIG    1        4.345   6.317  -0.006  0.00  0.00    -0.670 N 
ATOM     22  H   LIG    1        3.451   6.689  -0.071  0.00  0.00    +0.410 HD
ATOM     23  O   LIG    1        5.643   4.518  -0.017  0.00  0.00    -0.500 OA
BRANCH  21  24
ATOM     24  C   LIG    1        5.450   7.169   0.094  0.00  0.00    +0.140 A 
ATOM     25  C   LIG    1        5.347   8.365   0.792  0.00  0.00    -0.010 A 
ATOM     26  C   LIG    1        6.441   9.202   0.893  0.00  0.00    +0.030 A 
ATOM     27  C   LIG    1        7.636   8.854   0.290  0.00  0.00    -0.010 A 
ATOM     28  C   LIG    1        7.742   7.667  -0.410  0.00  0.00    +0.030 A 
ATOM     29  C   LIG    1        6.652   6.824  -0.510  0.00  0.00    +0.020 A 
ENDBRANCH  21  24
ENDBRANCH  19  20
ENDBRANCH  18  19
ENDBRANCH   6  18
TORSDOF 8
