REMARK  Name = ZINCvU0000000C2P.0
REMARK                            x       y       z     vdW  Elec       q    Type
REMARK                         _______ _______ _______ _____ _____    ______ ____
ROOT
ATOM      1  O   LIG    1       -1.204   2.837   0.023  0.00  0.00    -0.510 OA
ATOM      2  C   LIG    1       -1.187   1.624   0.017  0.00  0.00    +0.540 C 
ATOM      3  N   LIG    1       -0.011   0.966   0.007  0.00  0.00    -0.720 N 
ATOM      4  H   LIG    1        0.002  -0.004   0.002  0.00  0.00    +0.410 HD
ENDROOT
BRANCH   3   5
ATOM      5  C   LIG    1        1.248   1.716  -0.001  0.00  0.00    +0.340 C 
BRANCH   5   6
ATOM      6  C   LIG    1        2.344   0.863   0.585  0.00  0.00    -0.090 A 
ATOM      7  C   LIG    1        2.403  -0.486   0.288  0.00  0.00    +0.030 A 
ATOM      8  C   LIG    1        3.411  -1.267   0.821  0.00  0.00    +0.040 A 
ATOM      9  C   LIG    1        4.355  -0.701   1.659  0.00  0.00    -0.030 A 
ATOM     10  C   LIG    1        4.292   0.648   1.960  0.00  0.00    +0.040 A 
ATOM     11 CL   LIG    1        5.617  -1.683   2.334  0.00  0.00    -0.060 Cl
ATOM     12  C   LIG    1        3.287   1.429   1.423  0.00  0.00    +0.050 A 
ENDBRANCH   5   6
BRANCH   5  13
ATOM     13  C   LIG    1        1.602   2.087  -1.417  0.00  0.00    -0.100 A 
ATOM     14  C   LIG    1        1.402   1.179  -2.441  0.00  0.00    +0.020 A 
ATOM     15  C   LIG    1        1.724   1.520  -3.741  0.00  0.00    +0.000 A 
ATOM     16  C   LIG    1        2.253   2.767  -4.017  0.00  0.00    +0.010 A 
ATOM     17  C   LIG    1        2.458   3.673  -2.993  0.00  0.00    +0.000 A 
ATOM     18  C   LIG    1        2.133   3.333  -1.694  0.00  0.00    +0.020 A 
ENDBRANCH   5  13
ENDBRANCH   3   5
BRANCH   2  19
ATOM     19  C   LIG    1       -2.482   0.853   0.018  0.00  0.00    +0.090 C 
BRANCH  19  20
ATOM     20  S   LIG    1       -3.874   2.010   0.031  0.00  0.00    +0.150 S 
BRANCH  20  21
ATOM     21  C   LIG    1       -5.218   0.872   0.032  0.00  0.00    +0.120 A 
ATOM     22  N   LIG    1       -5.130  -0.437   0.025  0.00  0.00    -0.290 NA
ATOM     23  N   LIG    1       -6.313  -0.943   0.027  0.00  0.00    -0.270 NA
ATOM     24  C   LIG    1       -7.195   0.012   0.036  0.00  0.00    +0.180 A 
ATOM     25  O   LIG    1       -6.528   1.183   0.045  0.00  0.00    -0.200 OA
BRANCH  24  26
ATOM     26  C   LIG    1       -8.693  -0.160   0.042  0.00  0.00    +0.250 C 
BRANCH  26  27
ATOM     27  C   LIG    1       -9.185  -0.224   1.465  0.00  0.00    -0.100 A 
ATOM     28  C   LIG    1       -9.280  -1.444   2.109  0.00  0.00    +0.030 A 
ATOM     29  C   LIG    1       -9.727  -1.503   3.416  0.00  0.00    +0.010 A 
ATOM     30  C   LIG    1      -10.089  -0.343   4.075  0.00  0.00    +0.010 A 
ATOM     31  C   LIG    1       -9.999   0.876   3.430  0.00  0.00    +0.010 A 
ATOM     32  C   LIG    1       -9.547   0.935   2.125  0.00  0.00    +0.010 A 
ENDBRANCH  26  27
ENDBRANCH  24  26
ENDBRANCH  20  21
ENDBRANCH  19  20
ENDBRANCH   2  19
TORSDOF 8
