REMARK  Name = ZINCvU00000009uI.0
REMARK                            x       y       z     vdW  Elec       q    Type
REMARK                         _______ _______ _______ _____ _____    ______ ____
ROOT
ATOM      1  C   LIG    1       -0.005  -4.282  -0.660  0.00  0.00    +0.170 C 
ATOM      2  N   LIG    1       -1.030  -5.036  -0.457  0.00  0.00    -0.270 NA
ATOM      3  N   LIG    1       -0.717  -6.377  -0.247  0.00  0.00    -0.460 N 
ATOM      4  C   LIG    1        0.745  -6.540  -0.312  0.00  0.00    +0.270 C 
ATOM      5  C   LIG    1       -1.606  -7.364  -0.017  0.00  0.00    +0.600 C 
ATOM      6  O   LIG    1       -1.225  -8.514   0.086  0.00  0.00    -0.490 OA
ATOM      7  C   LIG    1        1.255  -5.114  -0.596  0.00  0.00    +0.090 C 
ENDROOT
BRANCH   5   8
ATOM      8  C   LIG    1       -3.043  -7.047   0.111  0.00  0.00    -0.130 A 
ATOM      9  C   LIG    1       -3.469  -5.718   0.127  0.00  0.00    +0.170 A 
ATOM     10  C   LIG    1       -4.813  -5.429   0.241  0.00  0.00    +0.030 A 
ATOM     11  C   LIG    1       -5.738  -6.454   0.350  0.00  0.00    +0.040 A 
ATOM     12  C   LIG    1       -5.321  -7.775   0.340  0.00  0.00    -0.060 A 
ATOM     13 CL   LIG    1       -7.427  -6.082   0.500  0.00  0.00    +0.000 Cl
ATOM     14  C   LIG    1       -3.981  -8.076   0.221  0.00  0.00    +0.190 A 
BRANCH  12  15
ATOM     15  N   LIG    1       -6.316  -8.864   0.456  0.00  0.00    +0.030 N 
ATOM     16  O   LIG    1       -7.500  -8.599   0.561  0.00  0.00    -0.130 OA
ATOM     17  O   LIG    1       -5.950 -10.026   0.447  0.00  0.00    -0.160 OA
ENDBRANCH  12  15
ENDBRANCH   5   8
BRANCH   1  21
ATOM     18  C   LIG    1       -0.146  -0.100  -1.382  0.00  0.00    +0.150 A 
ATOM     19  C   LIG    1        1.077  -0.757  -1.351  0.00  0.00    -0.070 A 
ATOM     20  C   LIG    1        1.128  -2.113  -1.112  0.00  0.00    +0.090 A 
ATOM     21  C   LIG    1       -0.054  -2.830  -0.911  0.00  0.00    -0.090 A 
ATOM     22  C   LIG    1       -1.284  -2.166  -0.949  0.00  0.00    +0.100 A 
ATOM     23  C   LIG    1       -1.325  -0.809  -1.183  0.00  0.00    -0.010 A 
BRANCH  18  25
ATOM     24  C   LIG    1        1.057   1.905  -1.808  0.00  0.00    +0.240 C 
ATOM     25  O   LIG    1       -0.192   1.238  -1.612  0.00  0.00    -0.310 OA
ENDBRANCH  18  25
ENDBRANCH   1  21
BRANCH   4  26
ATOM     26  C   LIG    1        1.124  -7.472  -1.434  0.00  0.00    -0.090 A 
ATOM     27  C   LIG    1        0.378  -7.494  -2.598  0.00  0.00    +0.010 A 
ATOM     28  C   LIG    1        0.729  -8.345  -3.629  0.00  0.00    +0.000 A 
ATOM     29  C   LIG    1        1.821  -9.182  -3.492  0.00  0.00    +0.010 A 
ATOM     30  C   LIG    1        2.564  -9.164  -2.327  0.00  0.00    +0.010 A 
ATOM     31  C   LIG    1        2.216  -8.309  -1.298  0.00  0.00    +0.020 A 
ENDBRANCH   4  26
TORSDOF 5
