REMARK  Name = ZINCpe000000SARA.0
REMARK                            x       y       z     vdW  Elec       q    Type
REMARK                         _______ _______ _______ _____ _____    ______ ____
ROOT
ATOM      1  C   LIG    1       -1.214   3.626   0.028  0.00  0.00    +0.250 C 
ENDROOT
BRANCH   1   2
ATOM      2  N   LIG    1       -1.195   2.161   0.019  0.00  0.00    -0.720 N 
ATOM      3  H   LIG    1       -2.028   1.664   0.021  0.00  0.00    +0.400 HD
ATOM      4  C   LIG    1       -0.018   1.503   0.010  0.00  0.00    +0.520 C 
ATOM      5  O   LIG    1        1.024   2.123   0.004  0.00  0.00    -0.520 OA
ATOM      6  C   LIG    1        0.002  -0.004   0.002  0.00  0.00    +0.090 C 
ENDBRANCH   1   2
BRANCH   1   9
ATOM      7  N   LIG    1       -0.731   5.384   1.698  0.00  0.00    -0.730 N 
ATOM      8  H   LIG    1       -1.350   5.961   1.224  0.00  0.00    +0.400 HD
ATOM      9  C   LIG    1       -0.505   4.131   1.257  0.00  0.00    +0.500 C 
ATOM     10  O   LIG    1        0.269   3.410   1.850  0.00  0.00    -0.500 OA
BRANCH   7  11
ATOM     11  C   LIG    1       -0.041   5.875   2.894  0.00  0.00    +0.260 C 
BRANCH  11  12
ATOM     12  C   LIG    1       -0.472   7.316   3.176  0.00  0.00    +0.020 C 
BRANCH  12  13
ATOM     13  C   LIG    1        0.248   7.829   4.424  0.00  0.00    +0.260 C 
BRANCH  13  16
ATOM     14  C   LIG    1       -0.081  11.289   6.030  0.00  0.00    +0.110 C 
ATOM     15  C   LIG    1        0.344   9.870   5.753  0.00  0.00    +0.510 C 
ATOM     16  N   LIG    1       -0.165   9.209   4.694  0.00  0.00    -0.730 N 
ATOM     17  H   LIG    1       -0.805   9.646   4.111  0.00  0.00    +0.400 HD
ATOM     18  O   LIG    1        1.144   9.322   6.482  0.00  0.00    -0.540 OA
ENDBRANCH  13  16
ENDBRANCH  12  13
ENDBRANCH  11  12
ENDBRANCH   7  11
ENDBRANCH   1   9
BRANCH   1  19
ATOM     19  C   LIG    1       -0.506   4.152  -1.222  0.00  0.00    +0.130 C 
BRANCH  19  20
ATOM     20  C   LIG    1       -1.285   3.750  -2.448  0.00  0.00    -0.170 A 
ATOM     21  C   LIG    1       -1.062   2.672  -3.217  0.00  0.00    +0.240 A 
ATOM     22  N   LIG    1       -1.972   2.632  -4.239  0.00  0.00    -0.590 N 
ATOM     23  H   LIG    1       -2.013   1.945  -4.922  0.00  0.00    +0.420 HD
ATOM     24  C   LIG    1       -2.817   3.716  -4.155  0.00  0.00    +0.100 A 
ATOM     25  C   LIG    1       -3.891   4.154  -4.923  0.00  0.00    -0.010 A 
ATOM     26  C   LIG    1       -4.554   5.310  -4.575  0.00  0.00    +0.020 A 
ATOM     27  C   LIG    1       -4.163   6.044  -3.464  0.00  0.00    -0.020 A 
ATOM     28  C   LIG    1       -3.111   5.632  -2.695  0.00  0.00    +0.050 A 
ATOM     29  C   LIG    1       -2.424   4.463  -3.030  0.00  0.00    -0.100 A 
ENDBRANCH  19  20
ENDBRANCH   1  19
TORSDOF 8
