REMARK  Name = ZINCbw0000000Hkh.0
REMARK                            x       y       z     vdW  Elec       q    Type
REMARK                         _______ _______ _______ _____ _____    ______ ____
ROOT
ATOM      1  C   LIG    1       -2.525   6.606   0.059  0.00  0.00    +0.140 C 
ATOM      2  C   LIG    1       -1.723   5.330   0.045  0.00  0.00    +0.090 A 
ATOM      3  C   LIG    1       -0.382   5.262   0.033  0.00  0.00    -0.050 A 
ATOM      4  C   LIG    1       -0.025   3.842   0.022  0.00  0.00    -0.080 A 
ATOM      5  C   LIG    1        1.186   3.146   0.007  0.00  0.00    +0.050 A 
ATOM      6  C   LIG    1        1.184   1.779   0.000  0.00  0.00    +0.010 A 
ATOM      7  C   LIG    1       -0.013   1.076   0.008  0.00  0.00    +0.010 A 
ATOM      8  C   LIG    1       -1.220   1.743   0.017  0.00  0.00    +0.090 A 
ATOM      9  F   LIG    1       -2.379   1.048   0.019  0.00  0.00    -0.140 F 
ATOM     10  C   LIG    1       -1.241   3.135   0.030  0.00  0.00    +0.060 A 
ATOM     11  N   LIG    1       -2.253   4.069   0.044  0.00  0.00    -0.590 N 
ATOM     12  H   LIG    1       -3.201   3.864   0.052  0.00  0.00    +0.420 HD
ENDROOT
TORSDOF 0
