REMARK  Name = ZINCkj000005hzm7.1
REMARK                            x       y       z     vdW  Elec       q    Type
REMARK                         _______ _______ _______ _____ _____    ______ ____
ROOT
ATOM      1  C   LIG    1       -2.762  -0.315   1.961  0.00  0.00    +0.500 C 
ATOM      2  N   LIG    1       -3.413   0.492   2.822  0.00  0.00    -0.690 N 
ATOM      3  H   LIG    1       -3.034   1.352   3.063  0.00  0.00    +0.410 HD
ATOM      4  O   LIG    1       -3.276  -1.350   1.593  0.00  0.00    -0.490 OA
ENDROOT
BRANCH   2   5
ATOM      5  C   LIG    1       -4.694   0.070   3.396  0.00  0.00    +0.230 C 
ATOM      6  C   LIG    1       -5.111   0.880   4.634  0.00  0.00    +0.060 C 
ATOM      7  C   LIG    1       -4.334  -0.154   5.472  0.00  0.00    +0.040 C 
ATOM      8  C   LIG    1       -4.580  -1.149   4.326  0.00  0.00    +0.080 C 
BRANCH   5   9
ATOM      9  C   LIG    1       -5.784  -0.058   2.363  0.00  0.00    +0.170 A 
ATOM     10  N   LIG    1       -6.527  -1.109   2.149  0.00  0.00    -0.260 NA
ATOM     11  N   LIG    1       -7.356  -0.866   1.196  0.00  0.00    -0.290 NA
ATOM     12  C   LIG    1       -7.172   0.347   0.752  0.00  0.00    +0.390 A 
ATOM     13  N   LIG    1       -6.169   0.895   1.480  0.00  0.00    -0.580 N 
ATOM     14  H   LIG    1       -5.802   1.788   1.388  0.00  0.00    +0.430 HD
ENDBRANCH   5   9
ENDBRANCH   2   5
BRANCH   1  15
ATOM     15  C   LIG    1       -1.396   0.070   1.455  0.00  0.00    +0.160 C 
BRANCH  15  17
ATOM     16  C   LIG    1       -2.058  -0.266  -0.826  0.00  0.00    +0.310 C 
ATOM     17  N   LIG    1       -1.106  -0.668   0.218  0.00  0.00    -0.500 N 
ATOM     18  H   LIG    1       -0.167  -0.460  -0.086  0.00  0.00    +0.430 HD
ATOM     19  H   LIG    1       -1.192  -1.658   0.389  0.00  0.00    +0.440 HD
ENDBRANCH  15  17
BRANCH  15  20
ATOM     20  C   LIG    1       -0.345  -0.274   2.512  0.00  0.00    +0.090 C 
BRANCH  20  21
ATOM     21  C   LIG    1        0.965   0.445   2.182  0.00  0.00    -0.070 C 
ATOM     22  C   LIG    1        1.474  -0.023   0.817  0.00  0.00    +0.050 C 
ATOM     23  C   LIG    1        2.008   0.122   3.254  0.00  0.00    +0.050 C 
ATOM     24  C   LIG    1        0.722   1.956   2.145  0.00  0.00    +0.040 C 
ENDBRANCH  20  21
ENDBRANCH  15  20
ENDBRANCH   1  15
TORSDOF 6
