REMARK  Name = ZINCkj000005hzm7.0
REMARK                            x       y       z     vdW  Elec       q    Type
REMARK                         _______ _______ _______ _____ _____    ______ ____
ROOT
ATOM      1  C   LIG    1        1.413   2.093  -1.772  0.00  0.00    +0.490 C 
ATOM      2  N   LIG    1        0.247   1.453  -1.995  0.00  0.00    -0.690 N 
ATOM      3  H   LIG    1        0.136   0.534  -1.706  0.00  0.00    +0.410 HD
ATOM      4  O   LIG    1        1.552   3.242  -2.133  0.00  0.00    -0.450 OA
ENDROOT
BRANCH   2   5
ATOM      5  C   LIG    1       -0.848   2.144  -2.679  0.00  0.00    +0.240 C 
ATOM      6  C   LIG    1       -1.668   3.063  -1.758  0.00  0.00    +0.060 C 
ATOM      7  C   LIG    1       -2.555   1.839  -1.461  0.00  0.00    +0.040 C 
ATOM      8  C   LIG    1       -2.118   1.289  -2.830  0.00  0.00    +0.060 C 
BRANCH   5   9
ATOM      9  C   LIG    1       -0.412   2.808  -3.960  0.00  0.00    +0.210 A 
ATOM     10  N   LIG    1       -1.048   2.749  -5.101  0.00  0.00    -0.300 NA
ATOM     11  N   LIG    1       -0.302   3.504  -6.021  0.00  0.00    -0.480 N 
ATOM     12  H   LIG    1       -0.513   3.655  -6.955  0.00  0.00    +0.450 HD
ATOM     13  C   LIG    1        0.766   3.970  -5.350  0.00  0.00    +0.470 A 
ATOM     14  N   LIG    1        0.687   3.545  -4.115  0.00  0.00    -0.500 NA
ENDBRANCH   5   9
ENDBRANCH   2   5
BRANCH   1  15
ATOM     15  C   LIG    1        2.542   1.380  -1.074  0.00  0.00    +0.160 C 
BRANCH  15  17
ATOM     16  C   LIG    1        2.795   3.196   0.474  0.00  0.00    +0.320 C 
ATOM     17  N   LIG    1        3.482   2.369  -0.528  0.00  0.00    -0.500 N 
ATOM     18  H   LIG    1        3.822   2.957  -1.274  0.00  0.00    +0.430 HD
ATOM     19  H   LIG    1        4.258   1.891  -0.095  0.00  0.00    +0.430 HD
ENDBRANCH  15  17
BRANCH  15  20
ATOM     20  C   LIG    1        3.272   0.480  -2.072  0.00  0.00    +0.080 C 
BRANCH  20  21
ATOM     21  C   LIG    1        4.152  -0.515  -1.313  0.00  0.00    -0.080 C 
ATOM     22  C   LIG    1        5.271   0.241  -0.593  0.00  0.00    +0.030 C 
ATOM     23  C   LIG    1        4.763  -1.512  -2.300  0.00  0.00    +0.050 C 
ATOM     24  C   LIG    1        3.303  -1.268  -0.287  0.00  0.00    +0.040 C 
ENDBRANCH  20  21
ENDBRANCH  15  20
ENDBRANCH   1  15
TORSDOF 6
