REMARK  Name = ZINCnE000001T8uw.0
REMARK                            x       y       z     vdW  Elec       q    Type
REMARK                         _______ _______ _______ _____ _____    ______ ____
ROOT
ATOM      1  S   LIG    1       -0.017   1.417   0.010  0.00  0.00    +2.570 S 
ATOM      2  O   LIG    1        1.190   2.166   0.002  0.00  0.00    -1.010 OA
ATOM      3  O   LIG    1        0.002  -0.004   0.002  0.00  0.00    -1.010 OA
ENDROOT
BRANCH   1   6
ATOM      4  O   LIG    1        0.887   0.922  -2.604  0.00  0.00    -0.590 OA
ATOM      5  C   LIG    1       -0.180   1.506  -2.589  0.00  0.00    +0.580 C 
ATOM      6  N   LIG    1       -0.759   1.823  -1.414  0.00  0.00    -1.130 NA
BRANCH   5   7
ATOM      7  C   LIG    1       -0.836   1.866  -3.849  0.00  0.00    -0.150 A 
ATOM      8  C   LIG    1       -0.351   1.600  -5.100  0.00  0.00    -0.090 A 
ATOM      9  C   LIG    1       -1.173   2.050  -6.107  0.00  0.00    +0.020 A 
ATOM     10  C   LIG    1       -2.290   2.661  -5.698  0.00  0.00    -0.120 A 
ATOM     11 BR   LIG    1        1.285   0.706  -5.413  0.00  0.00    -0.020 Br
ATOM     12  S   LIG    1       -2.376   2.700  -3.995  0.00  0.00    +0.270 S 
ENDBRANCH   5   7
ENDBRANCH   1   6
BRANCH   1  13
ATOM     13  C   LIG    1       -1.139   2.031   1.296  0.00  0.00    -0.340 C 
BRANCH  13  14
ATOM     14  C   LIG    1       -0.558   1.712   2.675  0.00  0.00    -0.030 C 
ATOM     15  C   LIG    1       -1.350   0.760   3.573  0.00  0.00    +0.030 C 
ATOM     16  C   LIG    1       -1.302   2.254   3.897  0.00  0.00    -0.020 C 
BRANCH  16  17
ATOM     17  C   LIG    1       -0.461   2.689   5.100  0.00  0.00    +0.100 C 
BRANCH  17  18
ATOM     18  C   LIG    1       -1.358   3.302   6.144  0.00  0.00    -0.070 A 
ATOM     19  C   LIG    1       -1.609   4.661   6.128  0.00  0.00    +0.000 A 
ATOM     20  C   LIG    1       -2.436   5.223   7.083  0.00  0.00    +0.000 A 
ATOM     21  C   LIG    1       -3.003   4.427   8.060  0.00  0.00    -0.010 A 
ATOM     22  C   LIG    1       -2.748   3.068   8.080  0.00  0.00    +0.000 A 
ATOM     23  C   LIG    1       -1.926   2.506   7.121  0.00  0.00    +0.010 A 
ENDBRANCH  17  18
ENDBRANCH  16  17
ENDBRANCH  13  14
ENDBRANCH   1  13
TORSDOF 6
