REMARK  Name = ZINCtV00000L6jb6.0
REMARK                            x       y       z     vdW  Elec       q    Type
REMARK                         _______ _______ _______ _____ _____    ______ ____
ROOT
ATOM      1  C   LIG    1       -5.221  -3.754   0.494  0.00  0.00    +0.210 A 
ATOM      2  C   LIG    1       -4.144  -4.305   1.176  0.00  0.00    -0.050 A 
ATOM      3  C   LIG    1       -3.261  -3.485   1.849  0.00  0.00    +0.070 A 
ATOM      4  C   LIG    1       -3.450  -2.109   1.846  0.00  0.00    +0.080 A 
ATOM      5  C   LIG    1       -4.531  -1.558   1.169  0.00  0.00    +0.040 A 
ATOM      6  C   LIG    1       -5.410  -2.378   0.491  0.00  0.00    -0.050 A 
ENDROOT
BRANCH   4   7
ATOM      7  N   LIG    1       -2.555  -1.277   2.530  0.00  0.00    -0.660 N 
ATOM      8  H   LIG    1       -2.879  -0.478   2.975  0.00  0.00    +0.410 HD
ATOM      9  C   LIG    1       -1.244  -1.587   2.571  0.00  0.00    +0.560 C 
ATOM     10  O   LIG    1       -0.851  -2.630   2.086  0.00  0.00    -0.510 OA
BRANCH   9  11
ATOM     11  C   LIG    1       -0.285  -0.659   3.207  0.00  0.00    -0.100 A 
ATOM     12  C   LIG    1       -0.734   0.539   3.765  0.00  0.00    +0.020 A 
ATOM     13  C   LIG    1        0.165   1.403   4.357  0.00  0.00    +0.050 A 
ATOM     14  C   LIG    1        1.510   1.086   4.400  0.00  0.00    -0.020 A 
ATOM     15  C   LIG    1        1.966  -0.104   3.847  0.00  0.00    +0.100 A 
ATOM     16  C   LIG    1        1.073  -0.978   3.251  0.00  0.00    +0.080 A 
BRANCH  15  17
ATOM     17  O   LIG    1        3.289  -0.410   3.892  0.00  0.00    -0.320 OA
BRANCH  17  18
ATOM     18  C   LIG    1        4.153   0.537   4.523  0.00  0.00    +0.600 C 
ATOM     19  F   LIG    1        3.762   0.710   5.855  0.00  0.00    -0.200 F 
ATOM     20  F   LIG    1        4.073   1.761   3.851  0.00  0.00    -0.200 F 
ENDBRANCH  17  18
ENDBRANCH  15  17
ENDBRANCH   9  11
ENDBRANCH   4   7
BRANCH   1  21
ATOM     21  N   LIG    1       -6.116  -4.585  -0.189  0.00  0.00    -0.580 N 
BRANCH  21  22
ATOM     22  C   LIG    1       -5.978  -5.973  -0.111  0.00  0.00    +0.150 A 
ATOM     23  C   LIG    1       -5.012  -6.620  -0.871  0.00  0.00    +0.000 A 
ATOM     24  C   LIG    1       -4.876  -7.992  -0.789  0.00  0.00    +0.020 A 
ATOM     25  C   LIG    1       -5.707  -8.722   0.042  0.00  0.00    +0.000 A 
ATOM     26  C   LIG    1       -6.673  -8.082   0.796  0.00  0.00    +0.010 A 
ATOM     27  C   LIG    1       -6.811  -6.710   0.722  0.00  0.00    +0.000 A 
ENDBRANCH  21  22
BRANCH  21  29
ATOM     28  C   LIG    1       -7.141  -4.557  -2.409  0.00  0.00    +0.030 C 
ATOM     29  C   LIG    1       -7.197  -3.999  -0.986  0.00  0.00    +0.230 C 
ATOM     30  C   LIG    1       -8.545  -4.351  -0.353  0.00  0.00    +0.020 C 
ENDBRANCH  21  29
ENDBRANCH   1  21
TORSDOF 7
