REMARK  Name = ZINCpk00000xQHvy.0
REMARK                            x       y       z     vdW  Elec       q    Type
REMARK                         _______ _______ _______ _____ _____    ______ ____
ROOT
ATOM      1  C   LIG    1       -2.748   4.479   1.465  0.00  0.00    +0.170 C 
ATOM      2  C   LIG    1       -3.391   5.852   1.159  0.00  0.00    +0.080 C 
ATOM      3  C   LIG    1       -2.861   6.213  -0.210  0.00  0.00    +0.520 C 
ATOM      4  N   LIG    1       -2.347   5.125  -0.809  0.00  0.00    -0.580 N 
ATOM      5  O   LIG    1       -2.893   7.324  -0.698  0.00  0.00    -0.520 OA
ATOM      6  C   LIG    1       -2.471   3.938   0.045  0.00  0.00    +0.280 C 
ENDROOT
BRANCH   6   7
ATOM      7  C   LIG    1       -1.188   3.147   0.029  0.00  0.00    -0.160 A 
ATOM      8  C   LIG    1       -1.218   1.762   0.017  0.00  0.00    +0.080 A 
ATOM      9  C   LIG    1       -0.013   1.076   0.008  0.00  0.00    -0.030 A 
ATOM     10  C   LIG    1        1.169   1.792   0.001  0.00  0.00    +0.260 A 
ATOM     11  N   LIG    1        1.159   3.110   0.007  0.00  0.00    -0.480 NA
ATOM     12  C   LIG    1        0.033   3.795   0.021  0.00  0.00    +0.270 A 
ENDBRANCH   6   7
BRANCH   4  13
ATOM     13  C   LIG    1       -1.741   5.124  -2.143  0.00  0.00    +0.200 C 
ATOM     14  C   LIG    1       -1.506   6.479  -2.813  0.00  0.00    +0.040 C 
ATOM     15  C   LIG    1       -2.619   5.558  -3.318  0.00  0.00    +0.010 C 
ENDBRANCH   4  13
BRANCH   1  16
ATOM     16  N   LIG    1       -3.687   3.608   2.186  0.00  0.00    -0.660 NA
ATOM     17  H   LIG    1       -3.587   2.648   1.892  0.00  0.00    +0.350 HD
BRANCH  16  18
ATOM     18  C   LIG    1       -3.513   3.735   3.639  0.00  0.00    +0.280 C 
BRANCH  18  22
ATOM     19  C   LIG    1       -6.302   1.283   5.593  0.00  0.00    +0.260 A 
ATOM     20  C   LIG    1       -5.028   0.761   5.385  0.00  0.00    +0.030 A 
ATOM     21  C   LIG    1       -4.096   1.560   4.740  0.00  0.00    +0.080 A 
ATOM     22  C   LIG    1       -4.489   2.829   4.343  0.00  0.00    +0.030 A 
ATOM     23  N   LIG    1       -5.717   3.245   4.586  0.00  0.00    -0.180 NA
ATOM     24  N   LIG    1       -6.585   2.507   5.178  0.00  0.00    -0.300 NA
BRANCH  19  26
ATOM     25  C   LIG    1       -8.532   1.142   6.399  0.00  0.00    +0.250 C 
ATOM     26  O   LIG    1       -7.249   0.540   6.221  0.00  0.00    -0.300 OA
ENDBRANCH  19  26
ENDBRANCH  18  22
ENDBRANCH  16  18
ENDBRANCH   1  16
TORSDOF 6
