REMARK  Name = ZINCrH000004qjHZ.0
REMARK                            x       y       z     vdW  Elec       q    Type
REMARK                         _______ _______ _______ _____ _____    ______ ____
ROOT
ATOM      1  C   LIG    1       -3.594  -7.138  -2.860  0.00  0.00    +0.150 C 
ATOM      2  C   LIG    1       -4.032  -6.103  -1.856  0.00  0.00    +0.210 A 
ATOM      3  C   LIG    1       -3.126  -5.188  -1.355  0.00  0.00    -0.150 A 
ATOM      4  C   LIG    1       -3.574  -4.244  -0.427  0.00  0.00    +0.450 A 
ATOM      5  N   LIG    1       -4.849  -4.261  -0.055  0.00  0.00    -0.570 NA
ATOM      6  C   LIG    1       -5.688  -5.153  -0.563  0.00  0.00    +0.400 A 
ATOM      7  N   LIG    1       -5.290  -6.059  -1.445  0.00  0.00    -0.550 NA
ENDROOT
BRANCH   6   8
ATOM      8  C   LIG    1       -7.107  -5.140  -0.130  0.00  0.00    -0.040 A 
ATOM      9  C   LIG    1       -7.546  -4.196   0.796  0.00  0.00    +0.140 A 
ATOM     10  C   LIG    1       -8.868  -4.188   1.195  0.00  0.00    +0.030 A 
ATOM     11  C   LIG    1       -9.755  -5.114   0.677  0.00  0.00    +0.120 A 
ATOM     12  C   LIG    1       -9.324  -6.053  -0.243  0.00  0.00    -0.050 A 
ATOM     13  C   LIG    1       -8.006  -6.067  -0.652  0.00  0.00    +0.160 A 
BRANCH  12  14
ATOM     14  N   LIG    1      -10.279  -7.041  -0.793  0.00  0.00    +0.030 N 
ATOM     15  O   LIG    1       -9.901  -7.868  -1.603  0.00  0.00    -0.150 OA
ATOM     16  O   LIG    1      -11.444  -7.027  -0.435  0.00  0.00    -0.160 OA
ENDBRANCH  12  14
ENDBRANCH   6   8
BRANCH   4  17
ATOM     17  N   LIG    1       -2.700  -3.308   0.102  0.00  0.00    -0.710 N 
ATOM     18  H   LIG    1       -3.018  -2.657   0.746  0.00  0.00    +0.410 HD
BRANCH  17  19
ATOM     19  C   LIG    1       -1.294  -3.303  -0.311  0.00  0.00    +0.300 C 
BRANCH  19  20
ATOM     20  C   LIG    1       -0.553  -2.179   0.415  0.00  0.00    +0.170 C 
ATOM     21  C   LIG    1        0.937  -2.147   0.000  0.00  0.00    +0.100 C 
ATOM     22  C   LIG    1        1.228  -0.658  -0.007  0.00  0.00    -0.180 A 
ATOM     23  C   LIG    1        2.406   0.053  -0.018  0.00  0.00    +0.060 A 
ATOM     24  C   LIG    1        2.379   1.437  -0.013  0.00  0.00    -0.020 A 
ATOM     25  C   LIG    1        1.166   2.099   0.002  0.00  0.00    +0.050 A 
ATOM     26  C   LIG    1       -0.017   1.388   0.010  0.00  0.00    -0.010 A 
ATOM     27  C   LIG    1        0.002  -0.004   0.002  0.00  0.00    +0.100 A 
ATOM     28  O   LIG    1       -1.030  -0.891  -0.010  0.00  0.00    -0.300 OA
ENDBRANCH  19  20
ENDBRANCH  17  19
ENDBRANCH   4  17
TORSDOF 5
