REMARK  Name = ZINCpe000000TrMU.0
REMARK                            x       y       z     vdW  Elec       q    Type
REMARK                         _______ _______ _______ _____ _____    ______ ____
ROOT
ATOM      1  N   LIG    1        0.686  -0.258  -1.274  0.00  0.00    -0.510 NA
ENDROOT
BRANCH   1   3
ATOM      2  C   LIG    1        0.420   1.952  -0.252  0.00  0.00    +0.040 C 
ATOM      3  C   LIG    1        0.212   0.447  -0.075  0.00  0.00    +0.170 C 
ENDBRANCH   1   3
BRANCH   1   4
ATOM      4  C   LIG    1       -0.219  -0.033  -2.409  0.00  0.00    +0.240 C 
BRANCH   4   5
ATOM      5  C   LIG    1        0.470  -0.432  -3.688  0.00  0.00    -0.080 A 
ATOM      6  C   LIG    1        1.291   0.468  -4.339  0.00  0.00    +0.040 A 
ATOM      7  C   LIG    1        1.930   0.105  -5.511  0.00  0.00    -0.030 A 
ATOM      8  C   LIG    1        1.738  -1.161  -6.040  0.00  0.00    +0.100 A 
ATOM      9  C   LIG    1        0.906  -2.066  -5.388  0.00  0.00    +0.100 A 
ATOM     10  C   LIG    1        0.274  -1.698  -4.212  0.00  0.00    -0.040 A 
BRANCH   9  11
ATOM     11  O   LIG    1        0.715  -3.310  -5.903  0.00  0.00    -0.310 OA
ATOM     12  C   LIG    1       -0.151  -4.186  -5.179  0.00  0.00    +0.230 C 
ENDBRANCH   9  11
BRANCH   8  13
ATOM     13  O   LIG    1        2.360  -1.518  -7.196  0.00  0.00    -0.310 OA
ATOM     14  C   LIG    1        3.199  -0.537  -7.810  0.00  0.00    +0.250 C 
ENDBRANCH   8  13
ENDBRANCH   4   5
ENDBRANCH   1   4
BRANCH   1  15
ATOM     15  C   LIG    1        0.854  -1.693  -1.010  0.00  0.00    +0.210 C 
BRANCH  15  16
ATOM     16  C   LIG    1        1.966  -1.894  -0.014  0.00  0.00    +0.520 C 
ATOM     17  N   LIG    1        2.300  -3.138   0.382  0.00  0.00    -0.730 N 
ATOM     18  H   LIG    1        1.824  -3.905   0.024  0.00  0.00    +0.400 HD
ATOM     19  O   LIG    1        2.561  -0.936   0.433  0.00  0.00    -0.510 OA
BRANCH  17  20
ATOM     20  C   LIG    1        3.381  -3.334   1.351  0.00  0.00    +0.270 C 
ATOM     21  C   LIG    1        2.822  -3.219   2.780  0.00  0.00    +0.050 C 
ATOM     22  C   LIG    1        3.922  -3.753   3.731  0.00  0.00    -0.300 C 
ATOM     23  S   LIG    1        4.518  -5.245   2.849  0.00  0.00    +2.400 S 
ATOM     24  O   LIG    1        5.938  -5.288   2.901  0.00  0.00    -0.930 OA
ATOM     25  O   LIG    1        3.759  -6.372   3.263  0.00  0.00    -0.930 OA
ATOM     26  C   LIG    1        3.989  -4.739   1.172  0.00  0.00    -0.320 C 
ENDBRANCH  17  20
ENDBRANCH  15  16
ENDBRANCH   1  15
TORSDOF 8
