REMARK  Name = ZINCCC0000000cAP.0
REMARK                            x       y       z     vdW  Elec       q    Type
REMARK                         _______ _______ _______ _____ _____    ______ ____
ROOT
ATOM      1  C   LIG    1        0.166  -6.484  -4.402  0.00  0.00    -0.670 A 
ATOM      2  C   LIG    1       -0.454  -6.356  -5.636  0.00  0.00    +0.150 A 
ATOM      3  C   LIG    1       -1.009  -5.151  -6.005  0.00  0.00    +0.060 A 
ATOM      4  C   LIG    1       -0.951  -4.059  -5.144  0.00  0.00    -0.140 A 
ATOM      5  S   LIG    1       -1.553  -2.412  -5.315  0.00  0.00    +0.130 S 
ATOM      6  C   LIG    1       -0.933  -2.005  -3.721  0.00  0.00    +0.290 A 
ATOM      7  N   LIG    1       -0.354  -3.026  -3.191  0.00  0.00    -0.480 NA
ATOM      8  C   LIG    1       -0.328  -4.174  -3.897  0.00  0.00    +0.070 A 
ATOM      9  C   LIG    1        0.233  -5.418  -3.540  0.00  0.00    +0.190 A 
ENDROOT
BRANCH   6  10
ATOM     10  N   LIG    1       -1.046  -0.765  -3.126  0.00  0.00    -0.460 N 
ATOM     11  C   LIG    1       -1.706  -0.868  -1.818  0.00  0.00    +0.200 C 
ATOM     12  C   LIG    1       -1.944   0.535  -1.253  0.00  0.00    +0.060 C 
ATOM     13  C   LIG    1       -0.602   1.258  -1.113  0.00  0.00    +0.010 C 
ATOM     14  C   LIG    1        0.087   1.309  -2.480  0.00  0.00    +0.060 C 
ATOM     15  C   LIG    1        0.266  -0.116  -3.009  0.00  0.00    +0.210 C 
BRANCH  14  16
ATOM     16  C   LIG    1        1.435   1.967  -2.340  0.00  0.00    -0.080 A 
ATOM     17  C   LIG    1        1.598   3.292  -2.700  0.00  0.00    +0.020 A 
ATOM     18  C   LIG    1        2.834   3.897  -2.568  0.00  0.00    +0.020 A 
ATOM     19  C   LIG    1        3.909   3.175  -2.084  0.00  0.00    +0.000 A 
ATOM     20  C   LIG    1        3.747   1.849  -1.729  0.00  0.00    +0.000 A 
ATOM     21  C   LIG    1        2.510   1.245  -1.857  0.00  0.00    +0.000 A 
ENDBRANCH  14  16
BRANCH  13  22
ATOM     22  C   LIG    1        0.285   0.503  -0.122  0.00  0.00    +0.160 C 
BRANCH  22  23
ATOM     23  O   LIG    1       -0.341   0.487   1.162  0.00  0.00    -0.570 OA
ATOM     24  H   LIG    1        0.167   0.024   1.842  0.00  0.00    +0.380 HD
ENDBRANCH  22  23
ENDBRANCH  13  22
ENDBRANCH   6  10
BRANCH   1  25
ATOM     25  S   LIG    1        0.874  -8.029  -3.937  0.00  0.00    +2.690 S 
ATOM     26  O   LIG    1        0.205  -9.023  -4.700  0.00  0.00    -0.940 OA
ATOM     27  O   LIG    1        0.919  -8.038  -2.517  0.00  0.00    -0.950 OA
BRANCH  25  28
ATOM     28  N   LIG    1        2.448  -8.023  -4.454  0.00  0.00    -1.110 NA
ATOM     29  H   LIG    1        2.736  -8.647  -5.138  0.00  0.00    +0.420 HD
BRANCH  28  33
ATOM     30  N   LIG    1        5.844  -5.550  -4.131  0.00  0.00    -0.530 NA
ATOM     31  C   LIG    1        5.792  -6.717  -3.241  0.00  0.00    +0.200 C 
ATOM     32  C   LIG    1        4.784  -7.731  -3.786  0.00  0.00    +0.060 C 
ATOM     33  C   LIG    1        3.404  -7.074  -3.878  0.00  0.00    +0.240 C 
ATOM     34  C   LIG    1        3.497  -5.835  -4.772  0.00  0.00    +0.030 C 
ATOM     35  C   LIG    1        4.542  -4.875  -4.199  0.00  0.00    +0.170 C 
BRANCH  30  36
ATOM     36  C   LIG    1        6.900  -4.617  -3.716  0.00  0.00    +0.190 C 
BRANCH  36  37
ATOM     37  C   LIG    1        6.765  -3.312  -4.501  0.00  0.00    +0.250 C 
BRANCH  37  39
ATOM     38  C   LIG    1        9.132  -2.924  -4.461  0.00  0.00    +0.320 C 
ATOM     39  N   LIG    1        7.821  -2.379  -4.086  0.00  0.00    -0.390 N 
ATOM     40  C   LIG    1        7.620  -1.084  -4.751  0.00  0.00    +0.320 C 
ATOM     41  H   LIG    1        7.783  -2.252  -3.085  0.00  0.00    +0.430 HD
ENDBRANCH  37  39
ENDBRANCH  36  37
ENDBRANCH  30  36
ENDBRANCH  28  33
ENDBRANCH  25  28
ENDBRANCH   1  25
TORSDOF 10
