REMARK  Name = ZINCvU0000000BLa.0
REMARK                            x       y       z     vdW  Elec       q    Type
REMARK                         _______ _______ _______ _____ _____    ______ ____
ROOT
ATOM      1  C   LIG    1       -0.928  -8.649  -0.628  0.00  0.00    +0.540 C 
ATOM      2  N   LIG    1        0.067  -9.558  -0.669  0.00  0.00    -0.720 N 
ATOM      3  H   LIG    1        0.991  -9.268  -0.615  0.00  0.00    +0.400 HD
ATOM      4  O   LIG    1       -2.083  -9.012  -0.695  0.00  0.00    -0.510 OA
ENDROOT
BRANCH   1   5
ATOM      5  C   LIG    1       -0.605  -7.183  -0.498  0.00  0.00    +0.100 C 
BRANCH   5   6
ATOM      6  S   LIG    1       -2.144  -6.224  -0.470  0.00  0.00    +0.100 S 
BRANCH   6  10
ATOM      7  C   LIG    1       -1.180  -2.106  -0.102  0.00  0.00    +0.300 A 
ATOM      8  N   LIG    1       -0.115  -2.844  -0.127  0.00  0.00    -0.340 NA
ATOM      9  N   LIG    1       -0.332  -4.200  -0.245  0.00  0.00    -0.260 NA
ATOM     10  C   LIG    1       -1.574  -4.564  -0.316  0.00  0.00    -0.000 A 
ATOM     11  S   LIG    1       -2.602  -3.137  -0.226  0.00  0.00    +0.100 S 
BRANCH   7  12
ATOM     12  N   LIG    1       -1.197  -0.721   0.010  0.00  0.00    -0.620 N 
ATOM     13  H   LIG    1       -2.036  -0.238  -0.063  0.00  0.00    +0.430 HD
BRANCH  12  18
ATOM     14  C   LIG    1        3.635   2.112   0.899  0.00  0.00    +0.100 C 
ATOM     15  C   LIG    1        2.351   1.360   0.662  0.00  0.00    -0.100 A 
ATOM     16  C   LIG    1        2.212   0.067   1.133  0.00  0.00    +0.040 A 
ATOM     17  C   LIG    1        1.037  -0.626   0.919  0.00  0.00    +0.020 A 
ATOM     18  C   LIG    1       -0.007  -0.023   0.229  0.00  0.00    +0.150 A 
ATOM     19  C   LIG    1        0.135   1.276  -0.243  0.00  0.00    -0.010 A 
ATOM     20  C   LIG    1        1.313   1.963  -0.025  0.00  0.00    +0.030 A 
ENDBRANCH  12  18
ENDBRANCH   7  12
ENDBRANCH   6  10
ENDBRANCH   5   6
ENDBRANCH   1   5
BRANCH   2  21
ATOM     21  C   LIG    1       -0.248 -10.983  -0.796  0.00  0.00    +0.340 C 
BRANCH  21  22
ATOM     22  C   LIG    1       -0.523 -11.560   0.569  0.00  0.00    -0.090 A 
ATOM     23  C   LIG    1        0.250 -11.178   1.650  0.00  0.00    +0.020 A 
ATOM     24  C   LIG    1       -0.005 -11.703   2.902  0.00  0.00    +0.000 A 
ATOM     25  C   LIG    1       -1.027 -12.619   3.073  0.00  0.00    +0.000 A 
ATOM     26  C   LIG    1       -1.797 -13.004   1.992  0.00  0.00    +0.000 A 
ATOM     27  C   LIG    1       -1.545 -12.475   0.740  0.00  0.00    +0.020 A 
ENDBRANCH  21  22
BRANCH  21  28
ATOM     28  C   LIG    1        0.921 -11.702  -1.419  0.00  0.00    -0.090 A 
ATOM     29  C   LIG    1        2.212 -11.364  -1.059  0.00  0.00    +0.010 A 
ATOM     30  C   LIG    1        3.284 -12.027  -1.627  0.00  0.00    +0.020 A 
ATOM     31  C   LIG    1        3.065 -13.021  -2.562  0.00  0.00    +0.010 A 
ATOM     32  C   LIG    1        1.774 -13.356  -2.925  0.00  0.00    +0.020 A 
ATOM     33  C   LIG    1        0.702 -12.697  -2.354  0.00  0.00    +0.030 A 
ENDBRANCH  21  28
ENDBRANCH   2  21
TORSDOF 8
