REMARK  Name = ZINCrH000004tNaQ.0
REMARK                            x       y       z     vdW  Elec       q    Type
REMARK                         _______ _______ _______ _____ _____    ______ ____
ROOT
ATOM      1  N   LIG    1       -1.195   2.161   0.019  0.00  0.00    -0.720 N 
ATOM      2  H   LIG    1       -2.028   1.664   0.021  0.00  0.00    +0.410 HD
ATOM      3  C   LIG    1       -0.018   1.503   0.010  0.00  0.00    +0.520 C 
ATOM      4  O   LIG    1        1.024   2.123   0.004  0.00  0.00    -0.530 OA
ENDROOT
BRANCH   1   5
ATOM      5  C   LIG    1       -1.214   3.626   0.028  0.00  0.00    +0.300 C 
BRANCH   5   7
ATOM      6  O   LIG    1       -3.553   3.308   0.037  0.00  0.00    -0.530 OA
ATOM      7  C   LIG    1       -2.642   4.109   0.037  0.00  0.00    +0.510 C 
ATOM      8  N   LIG    1       -2.906   5.430   0.045  0.00  0.00    -0.730 N 
ATOM      9  H   LIG    1       -2.178   6.070   0.045  0.00  0.00    +0.410 HD
BRANCH   8  10
ATOM     10  C   LIG    1       -4.294   5.900   0.054  0.00  0.00    +0.260 C 
BRANCH  10  11
ATOM     11  C   LIG    1       -4.315   7.429   0.063  0.00  0.00    +0.070 C 
BRANCH  11  12
ATOM     12  C   LIG    1       -5.742   7.912   0.072  0.00  0.00    -0.080 A 
ATOM     13  C   LIG    1       -6.400   8.146  -1.121  0.00  0.00    +0.030 A 
ATOM     14  C   LIG    1       -7.711   8.584  -1.113  0.00  0.00    +0.030 A 
ATOM     15  C   LIG    1       -8.361   8.800   0.089  0.00  0.00    -0.030 A 
ATOM     16  C   LIG    1       -7.700   8.571   1.283  0.00  0.00    +0.030 A 
ATOM     17 CL   LIG    1      -10.005   9.358   0.100  0.00  0.00    -0.070 Cl
ATOM     18  C   LIG    1       -6.391   8.127   1.274  0.00  0.00    +0.030 A 
ENDBRANCH  11  12
ENDBRANCH  10  11
ENDBRANCH   8  10
ENDBRANCH   5   7
ENDBRANCH   1   5
BRANCH   3  19
ATOM     19  C   LIG    1        0.002  -0.004   0.002  0.00  0.00    +0.060 C 
BRANCH  19  20
ATOM     20  C   LIG    1        1.451  -0.494  -0.015  0.00  0.00    -0.030 C 
ATOM     21  C   LIG    1        2.178   0.019   1.231  0.00  0.00    +0.030 C 
ATOM     22  C   LIG    1        3.627  -0.472   1.214  0.00  0.00    -0.010 C 
ATOM     23  C   LIG    1        4.329   0.055  -0.039  0.00  0.00    +0.010 C 
ATOM     24  C   LIG    1        3.603  -0.458  -1.284  0.00  0.00    -0.010 C 
ATOM     25  C   LIG    1        3.624  -1.988  -1.292  0.00  0.00    +0.010 C 
ATOM     26  C   LIG    1        2.921  -2.514  -0.039  0.00  0.00    -0.010 C 
ATOM     27  C   LIG    1        3.647  -2.002   1.206  0.00  0.00    +0.010 C 
ATOM     28  C   LIG    1        2.154   0.032  -1.268  0.00  0.00    +0.030 C 
ATOM     29  C   LIG    1        1.472  -2.024  -0.023  0.00  0.00    +0.020 C 
ENDBRANCH  19  20
ENDBRANCH   3  19
TORSDOF 7
