REMARK  Name = ZINCqH0000038pJ3.0
REMARK                            x       y       z     vdW  Elec       q    Type
REMARK                         _______ _______ _______ _____ _____    ______ ____
ROOT
ATOM      1  C   LIG    1        1.641   3.135   0.003  0.00  0.00    -0.070 C 
ENDROOT
BRANCH   1   5
ATOM      2  C   LIG    1        1.236  -0.437  -0.012  0.00  0.00    +0.220 A 
ATOM      3  N   LIG    1        0.002  -0.004   0.002  0.00  0.00    -0.360 NA
ATOM      4  O   LIG    1       -0.014   1.209   0.009  0.00  0.00    +0.080 OA
ATOM      5  C   LIG    1        1.235   1.683  -0.001  0.00  0.00    +0.200 A 
ATOM      6  N   LIG    1        2.040   0.650  -0.014  0.00  0.00    -0.460 NA
BRANCH   2  13
ATOM      7  C   LIG    1       -0.744  -2.546  -0.003  0.00  0.00    +0.110 C 
ATOM      8  C   LIG    1        0.726  -2.878  -0.021  0.00  0.00    -0.050 A 
ATOM      9  C   LIG    1        1.137  -4.195  -0.033  0.00  0.00    +0.000 A 
ATOM     10  C   LIG    1        2.486  -4.501  -0.048  0.00  0.00    +0.040 A 
ATOM     11  C   LIG    1        3.429  -3.490  -0.052  0.00  0.00    +0.000 A 
ATOM     12  C   LIG    1        3.029  -2.169  -0.045  0.00  0.00    +0.070 A 
ATOM     13  C   LIG    1        1.672  -1.855  -0.024  0.00  0.00    -0.030 A 
ENDBRANCH   2  13
ENDBRANCH   1   5
BRANCH   1  14
ATOM     14  S   LIG    1        1.787   3.726  -1.706  0.00  0.00    +1.290 S 
ATOM     15  O   LIG    1        0.517   3.664  -2.339  0.00  0.00    -0.800 OA
BRANCH  14  16
ATOM     16  C   LIG    1        2.275   5.460  -1.497  0.00  0.00    -0.120 C 
BRANCH  16  17
ATOM     17  C   LIG    1        2.439   6.102  -2.851  0.00  0.00    +0.030 A 
ATOM     18  N   LIG    1        1.518   6.716  -3.539  0.00  0.00    -0.340 NA
ATOM     19  O   LIG    1        1.940   7.132  -4.592  0.00  0.00    +0.130 OA
ATOM     20  C   LIG    1        3.244   6.839  -4.749  0.00  0.00    +0.050 A 
ATOM     21  C   LIG    1        3.620   6.161  -3.616  0.00  0.00    -0.010 A 
BRANCH  20  22
ATOM     22  C   LIG    1        4.096   7.181  -5.897  0.00  0.00    +0.030 A 
ATOM     23  C   LIG    1        3.702   7.861  -7.011  0.00  0.00    +0.010 A 
ATOM     24  C   LIG    1        4.832   7.963  -7.844  0.00  0.00    -0.050 A 
ATOM     25  C   LIG    1        5.849   7.348  -7.208  0.00  0.00    +0.210 A 
ATOM     26  O   LIG    1        5.403   6.882  -6.031  0.00  0.00    -0.160 OA
ENDBRANCH  20  22
ENDBRANCH  16  17
ENDBRANCH  14  16
ENDBRANCH   1  14
TORSDOF 6
