REMARK  Name = ZINCrH000004mkIk.0
REMARK                            x       y       z     vdW  Elec       q    Type
REMARK                         _______ _______ _______ _____ _____    ______ ____
ROOT
ATOM      1  C   LIG    1        8.006  -1.760  -6.452  0.00  0.00    +0.110 A 
ATOM      2  C   LIG    1        8.734  -1.474  -5.312  0.00  0.00    -0.030 A 
ATOM      3  C   LIG    1        8.360  -0.427  -4.477  0.00  0.00    -0.060 A 
ATOM      4  C   LIG    1        7.257   0.336  -4.793  0.00  0.00    -0.100 A 
ATOM      5  C   LIG    1        6.805   1.493  -3.938  0.00  0.00    +0.330 C 
ATOM      6  N   LIG    1        7.530   1.478  -2.662  0.00  0.00    -0.620 N 
ATOM      7  C   LIG    1        8.981   1.235  -2.713  0.00  0.00    +0.280 C 
ATOM      8  C   LIG    1        6.894   1.684  -1.492  0.00  0.00    +0.520 C 
ATOM      9  O   LIG    1        7.517   1.667  -0.452  0.00  0.00    -0.540 OA
ATOM     10  C   LIG    1        6.521   0.050  -5.935  0.00  0.00    -0.030 A 
ATOM     11  C   LIG    1        9.195  -0.186  -3.247  0.00  0.00    +0.080 C 
ATOM     12  C   LIG    1        6.887  -0.993  -6.766  0.00  0.00    +0.100 A 
ENDROOT
BRANCH   1  14
ATOM     13  C   LIG    1        9.538  -3.529  -6.875  0.00  0.00    +0.250 C 
ATOM     14  O   LIG    1        8.380  -2.786  -7.262  0.00  0.00    -0.310 OA
ENDBRANCH   1  14
BRANCH  12  15
ATOM     15  O   LIG    1        6.160  -1.267  -7.881  0.00  0.00    -0.310 OA
ATOM     16  C   LIG    1        5.026  -0.436  -8.137  0.00  0.00    +0.250 C 
ENDBRANCH  12  15
BRANCH   8  17
ATOM     17  C   LIG    1        5.408   1.937  -1.476  0.00  0.00    +0.050 C 
BRANCH  17  18
ATOM     18  C   LIG    1        4.940   2.137  -0.034  0.00  0.00    +0.130 C 
BRANCH  18  19
ATOM     19  C   LIG    1        3.454   2.390  -0.018  0.00  0.00    -0.170 A 
ATOM     20  C   LIG    1        2.848   3.587  -0.005  0.00  0.00    +0.230 A 
ATOM     21  N   LIG    1        1.490   3.423   0.007  0.00  0.00    -0.600 N 
ATOM     22  H   LIG    1        0.841   4.144   0.017  0.00  0.00    +0.420 HD
ATOM     23  C   LIG    1        1.181   2.081   0.002  0.00  0.00    +0.090 A 
ATOM     24  C   LIG    1       -0.017   1.374   0.010  0.00  0.00    -0.010 A 
ATOM     25  C   LIG    1        0.002  -0.004   0.002  0.00  0.00    +0.020 A 
ATOM     26  C   LIG    1        1.205  -0.696  -0.013  0.00  0.00    -0.030 A 
ATOM     27  C   LIG    1        2.394  -0.021  -0.021  0.00  0.00    +0.050 A 
ATOM     28  C   LIG    1        2.398   1.375  -0.013  0.00  0.00    -0.100 A 
ENDBRANCH  18  19
ENDBRANCH  17  18
ENDBRANCH   8  17
TORSDOF 5
