REMARK  Name = ZINCvU0000000I1L.0
REMARK                            x       y       z     vdW  Elec       q    Type
REMARK                         _______ _______ _______ _____ _____    ______ ____
ROOT
ATOM      1  C   LIG    1       -3.892   3.318  -5.329  0.00  0.00    +0.150 C 
ATOM      2  C   LIG    1       -2.643   2.561  -4.957  0.00  0.00    -0.180 A 
ATOM      3  C   LIG    1       -2.247   2.342  -3.717  0.00  0.00    -0.070 A 
ATOM      4  C   LIG    1       -1.016   1.585  -3.595  0.00  0.00    -0.230 A 
ATOM      5  C   LIG    1       -0.300   1.176  -2.439  0.00  0.00    +0.500 A 
ATOM      6  N   LIG    1        0.820   0.489  -2.586  0.00  0.00    -0.580 NA
ATOM      7  C   LIG    1        1.284   0.181  -3.796  0.00  0.00    +0.450 A 
ATOM      8  N   LIG    1        0.653   0.546  -4.900  0.00  0.00    -0.510 NA
ATOM      9  C   LIG    1       -0.486   1.243  -4.844  0.00  0.00    +0.120 A 
ATOM     10  C   LIG    1       -3.018   2.837  -2.520  0.00  0.00    +0.120 C 
ATOM     11  S   LIG    1       -1.531   1.859  -6.116  0.00  0.00    +0.180 S 
ENDROOT
BRANCH   7  12
ATOM     12  C   LIG    1        2.538  -0.588  -3.908  0.00  0.00    -0.160 A 
ATOM     13  C   LIG    1        3.117  -0.971  -5.065  0.00  0.00    +0.080 A 
ATOM     14  C   LIG    1        4.289  -1.679  -4.916  0.00  0.00    +0.000 A 
ATOM     15  C   LIG    1        4.669  -1.887  -3.651  0.00  0.00    -0.040 A 
ATOM     16  S   LIG    1        3.507  -1.154  -2.553  0.00  0.00    +0.180 S 
ENDBRANCH   7  12
BRANCH   5  17
ATOM     17  N   LIG    1       -0.771   1.488  -1.176  0.00  0.00    -0.710 N 
ATOM     18  H   LIG    1       -1.636   1.914  -1.073  0.00  0.00    +0.420 HD
BRANCH  17  19
ATOM     19  C   LIG    1        0.038   1.174   0.005  0.00  0.00    +0.430 C 
BRANCH  19  20
ATOM     20  C   LIG    1       -0.696   1.612   1.246  0.00  0.00    +0.130 A 
ATOM     21  N   LIG    1       -1.532   0.889   1.946  0.00  0.00    -0.210 NA
ATOM     22  N   LIG    1       -1.979   1.566   2.945  0.00  0.00    -0.270 NA
ATOM     23  C   LIG    1       -1.444   2.776   2.933  0.00  0.00    +0.210 A 
ATOM     24  C   LIG    1       -1.575   3.901   3.769  0.00  0.00    +0.110 A 
ATOM     25  C   LIG    1       -0.858   5.023   3.490  0.00  0.00    +0.100 A 
ATOM     26  C   LIG    1       -0.011   5.049   2.369  0.00  0.00    -0.190 A 
ATOM     27  C   LIG    1        0.101   3.964   1.574  0.00  0.00    +0.320 A 
ATOM     28  N   LIG    1       -0.605   2.830   1.847  0.00  0.00    -0.390 N 
BRANCH  26  29
ATOM     29  C   LIG    1        0.777   6.294   2.053  0.00  0.00    +0.520 C 
ATOM     30  F   LIG    1        1.915   5.951   1.315  0.00  0.00    -0.170 F 
ATOM     31  F   LIG    1        1.165   6.915   3.245  0.00  0.00    -0.160 F 
ATOM     32  F   LIG    1       -0.016   7.171   1.307  0.00  0.00    -0.170 F 
ENDBRANCH  26  29
ENDBRANCH  19  20
ENDBRANCH  17  19
ENDBRANCH   5  17
TORSDOF 5
