REMARK  Name = ZINCrg00000BlAIH.0
REMARK                            x       y       z     vdW  Elec       q    Type
REMARK                         _______ _______ _______ _____ _____    ______ ____
ROOT
ATOM      1  C   LIG    1        5.379  -2.608  -3.268  0.00  0.00    +0.240 C 
ATOM      2  C   LIG    1        4.243  -3.584  -3.674  0.00  0.00    +0.030 C 
ATOM      3  C   LIG    1        4.925  -4.492  -4.719  0.00  0.00    +0.250 C 
ATOM      4  N   LIG    1        6.374  -4.419  -4.482  0.00  0.00    -0.620 N 
ATOM      5  C   LIG    1        7.320  -5.057  -5.199  0.00  0.00    +0.560 C 
ATOM      6  O   LIG    1        8.494  -4.855  -4.969  0.00  0.00    -0.530 OA
ATOM      7  C   LIG    1        6.620  -3.534  -3.329  0.00  0.00    +0.260 C 
ENDROOT
BRANCH   5   8
ATOM      8  C   LIG    1        6.920  -6.021  -6.286  0.00  0.00    -0.080 C 
ATOM      9  C   LIG    1        8.174  -6.567  -7.014  0.00  0.00    +0.050 C 
ATOM     10  C   LIG    1        8.515  -5.422  -8.005  0.00  0.00    +0.010 C 
ATOM     11  C   LIG    1        7.140  -4.911  -8.482  0.00  0.00    +0.020 C 
ATOM     12  C   LIG    1        6.126  -5.291  -7.389  0.00  0.00    +0.040 C 
BRANCH   8  13
ATOM     13  C   LIG    1        6.096  -7.170  -5.704  0.00  0.00    +0.200 C 
BRANCH  13  14
ATOM     14  O   LIG    1        6.818  -7.780  -4.633  0.00  0.00    -0.570 OA
ATOM     15  H   LIG    1        6.354  -8.519  -4.215  0.00  0.00    +0.380 HD
ENDBRANCH  13  14
ENDBRANCH   8  13
ENDBRANCH   5   8
BRANCH   1  18
ATOM     16  O   LIG    1        4.088  -0.318  -2.673  0.00  0.00    -0.520 OA
ATOM     17  C   LIG    1        4.511  -0.938  -1.720  0.00  0.00    +0.520 C 
ATOM     18  N   LIG    1        5.172  -2.098  -1.911  0.00  0.00    -0.720 N 
ATOM     19  H   LIG    1        5.511  -2.594  -1.149  0.00  0.00    +0.400 HD
BRANCH  17  20
ATOM     20  C   LIG    1        4.298  -0.413  -0.324  0.00  0.00    +0.130 C 
BRANCH  20  21
ATOM     21  C   LIG    1        3.539   0.887  -0.387  0.00  0.00    -0.020 A 
ATOM     22  C   LIG    1        4.204   2.069  -0.381  0.00  0.00    +0.070 A 
ATOM     23  C   LIG    1        3.533   3.297  -0.438  0.00  0.00    +0.070 A 
ATOM     24  C   LIG    1        2.181   3.374  -0.503  0.00  0.00    +0.080 A 
ATOM     25  C   LIG    1        1.421   2.188  -0.514  0.00  0.00    +0.020 A 
ATOM     26  N   LIG    1        0.163   1.828  -0.566  0.00  0.00    -0.340 NA
ATOM     27  O   LIG    1        0.095   0.616  -0.545  0.00  0.00    +0.380 OA
ATOM     28  N   LIG    1        1.151   0.019  -0.482  0.00  0.00    -0.340 NA
ATOM     29  C   LIG    1        2.132   0.886  -0.454  0.00  0.00    +0.030 A 
ENDBRANCH  20  21
ENDBRANCH  17  20
ENDBRANCH   1  18
TORSDOF 6
