REMARK  Name = ZINCqH0000001Eew.0
REMARK                            x       y       z     vdW  Elec       q    Type
REMARK                         _______ _______ _______ _____ _____    ______ ____
ROOT
ATOM      1  C   LIG    1       -1.771  -1.313  -1.064  0.00  0.00    +0.360 A 
ATOM      2  N   LIG    1       -2.427  -1.800  -2.089  0.00  0.00    -0.540 NA
ATOM      3  C   LIG    1       -2.052  -1.531  -3.362  0.00  0.00    +0.170 A 
ATOM      4  C   LIG    1       -2.752  -2.050  -4.455  0.00  0.00    +0.020 A 
ATOM      5  C   LIG    1       -2.338  -1.752  -5.733  0.00  0.00    +0.060 A 
ATOM      6  C   LIG    1       -1.232  -0.940  -5.952  0.00  0.00    -0.010 A 
ATOM      7  C   LIG    1       -0.526  -0.416  -4.891  0.00  0.00    +0.100 A 
ATOM      8  C   LIG    1       -0.928  -0.705  -3.588  0.00  0.00    -0.200 A 
ATOM      9  C   LIG    1       -0.214  -0.169  -2.421  0.00  0.00    +0.550 A 
ATOM     10  O   LIG    1        0.758   0.552  -2.551  0.00  0.00    -0.490 OA
ATOM     11  N   LIG    1       -0.676  -0.509  -1.195  0.00  0.00    -0.520 N 
ENDROOT
BRANCH  11  12
ATOM     12  C   LIG    1        0.002  -0.004   0.002  0.00  0.00    +0.230 C 
ATOM     13  C   LIG    1       -0.019   1.534   0.011  0.00  0.00    +0.020 C 
ATOM     14  C   LIG    1        1.453   1.995  -0.001  0.00  0.00    +0.030 C 
ATOM     15  C   LIG    1        2.232   0.792   0.586  0.00  0.00    +0.020 C 
ATOM     16  C   LIG    1        1.486  -0.425  -0.014  0.00  0.00    +0.020 C 
ENDBRANCH  11  12
BRANCH   1  17
ATOM     17  S   LIG    1       -2.329  -1.716   0.558  0.00  0.00    +0.080 S 
BRANCH  17  18
ATOM     18  C   LIG    1       -3.749  -2.762   0.151  0.00  0.00    +0.110 C 
BRANCH  18  21
ATOM     19  N   LIG    1       -5.489  -4.034   1.365  0.00  0.00    -0.720 N 
ATOM     20  H   LIG    1       -5.848  -4.303   0.505  0.00  0.00    +0.400 HD
ATOM     21  C   LIG    1       -4.404  -3.237   1.423  0.00  0.00    +0.530 C 
ATOM     22  O   LIG    1       -3.954  -2.901   2.498  0.00  0.00    -0.520 OA
BRANCH  19  23
ATOM     23  C   LIG    1       -6.125  -4.496   2.602  0.00  0.00    +0.240 C 
ATOM     24  C   LIG    1       -7.112  -3.436   3.094  0.00  0.00    +0.020 C 
BRANCH  23  26
ATOM     25  C   LIG    1       -7.537  -6.286   3.624  0.00  0.00    +0.030 C 
ATOM     26  C   LIG    1       -6.872  -5.804   2.333  0.00  0.00    -0.020 C 
ATOM     27  C   LIG    1       -7.943  -5.569   1.265  0.00  0.00    +0.020 C 
ENDBRANCH  23  26
ENDBRANCH  19  23
ENDBRANCH  18  21
ENDBRANCH  17  18
ENDBRANCH   1  17
TORSDOF 6
