REMARK  Name = ZINCqH0000006S5B.0
REMARK                            x       y       z     vdW  Elec       q    Type
REMARK                         _______ _______ _______ _____ _____    ______ ____
ROOT
ATOM      1  N   LIG    1       -5.475  -2.385   0.579  0.00  0.00    -0.670 N 
ATOM      2  H   LIG    1       -5.129  -3.125   0.057  0.00  0.00    +0.410 HD
ATOM      3  C   LIG    1       -4.723  -1.283   0.767  0.00  0.00    +0.600 C 
ATOM      4  O   LIG    1       -5.191  -0.317   1.340  0.00  0.00    -0.520 OA
ENDROOT
BRANCH   1   7
ATOM      5  C   LIG    1       -9.031  -3.225   1.028  0.00  0.00    +0.190 A 
ATOM      6  C   LIG    1       -7.762  -3.150   0.474  0.00  0.00    -0.080 A 
ATOM      7  C   LIG    1       -6.755  -2.461   1.137  0.00  0.00    +0.230 A 
ATOM      8  C   LIG    1       -7.018  -1.853   2.358  0.00  0.00    -0.040 A 
ATOM      9  C   LIG    1       -8.289  -1.925   2.908  0.00  0.00    +0.190 A 
ATOM     10  C   LIG    1       -9.294  -2.613   2.245  0.00  0.00    -0.170 A 
BRANCH   5  12
ATOM     11  C   LIG    1      -11.299  -3.936   1.008  0.00  0.00    +0.250 C 
ATOM     12  O   LIG    1      -10.017  -3.899   0.380  0.00  0.00    -0.310 OA
ENDBRANCH   5  12
BRANCH   9  13
ATOM     13  O   LIG    1       -8.548  -1.325   4.100  0.00  0.00    -0.310 OA
ATOM     14  C   LIG    1       -9.877  -1.445   4.611  0.00  0.00    +0.250 C 
ENDBRANCH   9  13
ENDBRANCH   1   7
BRANCH   3  15
ATOM     15  C   LIG    1       -3.333  -1.247   0.279  0.00  0.00    -0.300 A 
ATOM     16  C   LIG    1       -2.448  -0.194   0.399  0.00  0.00    +0.170 A 
ATOM     17  N   LIG    1       -1.292  -0.572  -0.176  0.00  0.00    -0.310 N 
ATOM     18  N   LIG    1       -1.447  -1.872  -0.669  0.00  0.00    -0.280 NA
ATOM     19  C   LIG    1       -2.726   1.135   1.054  0.00  0.00    +0.170 C 
ATOM     20  C   LIG    1       -2.655  -2.286  -0.399  0.00  0.00    +0.290 A 
BRANCH  17  21
ATOM     21  C   LIG    1       -0.131   0.207  -0.271  0.00  0.00    +0.140 A 
ATOM     22  C   LIG    1       -0.227   1.580  -0.450  0.00  0.00    +0.000 A 
ATOM     23  C   LIG    1        0.919   2.345  -0.543  0.00  0.00    +0.050 A 
ATOM     24  C   LIG    1        2.162   1.744  -0.459  0.00  0.00    +0.010 A 
ATOM     25  C   LIG    1        2.261   0.377  -0.279  0.00  0.00    -0.070 A 
ATOM     26  C   LIG    1        3.617  -0.274  -0.187  0.00  0.00    +0.100 C 
ATOM     27  C   LIG    1        1.119  -0.394  -0.185  0.00  0.00    +0.040 A 
ENDBRANCH  17  21
ENDBRANCH   3  15
TORSDOF 5
