REMARK  Name = ZINCrD00000F5Lzl.0
REMARK                            x       y       z     vdW  Elec       q    Type
REMARK                         _______ _______ _______ _____ _____    ______ ____
ROOT
ATOM      1  C   LIG    1       -4.299   5.917   5.794  0.00  0.00    -0.150 C 
ATOM      2  C   LIG    1       -3.211   5.075   5.885  0.00  0.00    +0.240 C 
ENDROOT
BRANCH   2   3
ATOM      3  C   LIG    1       -2.481   4.689   4.677  0.00  0.00    -0.130 A 
ATOM      4  C   LIG    1       -2.176   5.650   3.701  0.00  0.00    +0.130 A 
ATOM      5  C   LIG    1       -1.495   5.285   2.576  0.00  0.00    -0.020 A 
ATOM      6  C   LIG    1       -1.101   3.961   2.396  0.00  0.00    +0.140 A 
ATOM      7  C   LIG    1       -1.406   3.001   3.359  0.00  0.00    -0.060 A 
ATOM      8  C   LIG    1       -2.083   3.357   4.491  0.00  0.00    +0.080 A 
BRANCH   6   9
ATOM      9  N   LIG    1       -0.408   3.594   1.250  0.00  0.00    -0.490 N 
ATOM     10  C   LIG    1        0.814   4.396   1.094  0.00  0.00    +0.180 C 
ATOM     11  C   LIG    1        1.515   4.002  -0.209  0.00  0.00    +0.220 C 
ATOM     12  O   LIG    1        1.786   2.598  -0.193  0.00  0.00    -0.380 OA
ATOM     13  C   LIG    1        0.617   1.787  -0.044  0.00  0.00    +0.220 C 
ATOM     14  C   LIG    1       -0.092   2.159   1.261  0.00  0.00    +0.170 C 
ENDBRANCH   6   9
ENDBRANCH   2   3
BRANCH   1  17
ATOM     15  N   LIG    1       -5.824   7.189   4.374  0.00  0.00    -0.720 N 
ATOM     16  H   LIG    1       -6.147   7.642   5.168  0.00  0.00    +0.400 HD
ATOM     17  C   LIG    1       -4.861   6.252   4.477  0.00  0.00    +0.570 C 
ATOM     18  O   LIG    1       -4.456   5.684   3.480  0.00  0.00    -0.510 OA
BRANCH  15  20
ATOM     19  C   LIG    1       -7.507   6.540   2.721  0.00  0.00    +0.040 C 
ATOM     20  C   LIG    1       -6.384   7.522   3.062  0.00  0.00    +0.290 C 
BRANCH  20  21
ATOM     21  C   LIG    1       -6.936   8.924   3.093  0.00  0.00    -0.100 A 
ATOM     22  C   LIG    1       -7.625   9.372   4.205  0.00  0.00    +0.000 A 
ATOM     23  C   LIG    1       -8.127  10.659   4.235  0.00  0.00    +0.010 A 
ATOM     24  C   LIG    1       -7.949  11.496   3.150  0.00  0.00    +0.000 A 
ATOM     25  C   LIG    1       -7.264  11.047   2.036  0.00  0.00    +0.020 A 
ATOM     26  C   LIG    1       -6.758   9.761   2.007  0.00  0.00    +0.020 A 
ENDBRANCH  20  21
ENDBRANCH  15  20
ENDBRANCH   1  17
BRANCH   1  27
ATOM     27  C   LIG    1       -4.881   6.465   6.981  0.00  0.00    +0.250 C 
ATOM     28  N   LIG    1       -5.343   6.901   7.924  0.00  0.00    -0.410 NA
ENDBRANCH   1  27
TORSDOF 6
