REMARK  Name = ZINCnE000001P92U.1
REMARK                            x       y       z     vdW  Elec       q    Type
REMARK                         _______ _______ _______ _____ _____    ______ ____
ROOT
ATOM      1  C   LIG    1       -0.450   1.380  -4.848  0.00  0.00    +0.010 A 
ATOM      2  C   LIG    1       -0.925   1.702  -3.578  0.00  0.00    -0.060 A 
ATOM      3  C   LIG    1       -0.252   1.247  -2.454  0.00  0.00    +0.230 A 
ATOM      4  C   LIG    1        0.888   0.464  -2.597  0.00  0.00    -0.050 A 
ATOM      5  C   LIG    1        1.356   0.140  -3.856  0.00  0.00    +0.060 A 
ATOM      6  C   LIG    1        0.696   0.592  -4.980  0.00  0.00    -0.010 A 
ENDROOT
BRANCH   1  11
ATOM      7  C   LIG    1       -1.267   1.931  -9.690  0.00  0.00    +0.140 C 
ATOM      8  C   LIG    1       -1.564   2.139  -8.227  0.00  0.00    +0.070 A 
ATOM      9  C   LIG    1       -2.611   2.859  -7.811  0.00  0.00    -0.080 A 
ATOM     10  S   LIG    1       -2.611   2.864  -6.048  0.00  0.00    +0.090 S 
ATOM     11  C   LIG    1       -1.159   1.865  -6.051  0.00  0.00    +0.130 A 
ATOM     12  N   LIG    1       -0.809   1.628  -7.282  0.00  0.00    -0.470 NA
ENDBRANCH   1  11
BRANCH   3  13
ATOM     13  N   LIG    1       -0.721   1.571  -1.179  0.00  0.00    -0.730 N 
ATOM     14  H   LIG    1       -1.516   2.118  -1.079  0.00  0.00    +0.410 HD
BRANCH  13  15
ATOM     15  C   LIG    1       -0.013   1.086   0.008  0.00  0.00    +0.290 C 
BRANCH  15  16
ATOM     16  C   LIG    1       -0.718   1.572   1.248  0.00  0.00    +0.440 C 
ATOM     17  N   LIG    1       -0.242   1.246   2.466  0.00  0.00    -0.670 NA
ATOM     18  O   LIG    1       -1.714   2.256   1.150  0.00  0.00    -0.610 OA
BRANCH  17  19
ATOM     19  C   LIG    1       -0.891   1.693   3.607  0.00  0.00    +0.260 A 
ATOM     20  C   LIG    1       -0.537   1.445   4.902  0.00  0.00    -0.200 A 
ATOM     21  C   LIG    1       -1.514   2.124   5.657  0.00  0.00    +0.010 A 
ATOM     22  N   LIG    1       -2.325   2.679   4.801  0.00  0.00    -0.420 NA
ATOM     23  C   LIG    1       -1.607   2.190   7.160  0.00  0.00    +0.140 C 
ATOM     24  O   LIG    1       -1.997   2.453   3.660  0.00  0.00    +0.040 OA
ENDBRANCH  17  19
ENDBRANCH  15  16
ENDBRANCH  13  15
ENDBRANCH   3  13
TORSDOF 5
