REMARK  Name = ZINCvU0000000GgK.0
REMARK                            x       y       z     vdW  Elec       q    Type
REMARK                         _______ _______ _______ _____ _____    ______ ____
ROOT
ATOM      1  C   LIG    1        0.156  -0.298  -0.657  0.00  0.00    +0.170 C 
ATOM      2  C   LIG    1       -0.593   0.251  -1.873  0.00  0.00    +0.000 C 
ATOM      3  C   LIG    1        0.355   0.293  -3.075  0.00  0.00    +0.270 C 
ATOM      4  N   LIG    1        1.552   1.062  -2.707  0.00  0.00    -0.610 N 
ATOM      5  C   LIG    1        2.296   0.674  -1.501  0.00  0.00    +0.290 C 
ATOM      6  C   LIG    1        1.958   2.102  -3.461  0.00  0.00    +0.600 C 
ATOM      7  O   LIG    1        2.999   2.675  -3.196  0.00  0.00    -0.530 OA
ATOM      8  C   LIG    1        1.326   0.627  -0.317  0.00  0.00    +0.040 C 
ENDROOT
BRANCH   6   9
ATOM      9  C   LIG    1        1.145   2.546  -4.601  0.00  0.00    -0.220 A 
ATOM     10  C   LIG    1       -0.209   2.446  -4.726  0.00  0.00    +0.280 A 
ATOM     11  N   LIG    1       -0.599   2.962  -5.916  0.00  0.00    -0.470 N 
ATOM     12  C   LIG    1        0.493   3.423  -6.622  0.00  0.00    +0.090 A 
ATOM     13  C   LIG    1        0.636   4.027  -7.867  0.00  0.00    -0.010 A 
ATOM     14  C   LIG    1        1.888   4.385  -8.317  0.00  0.00    +0.030 A 
ATOM     15  C   LIG    1        3.013   4.149  -7.540  0.00  0.00    -0.010 A 
ATOM     16  C   LIG    1        2.892   3.552  -6.305  0.00  0.00    +0.060 A 
ATOM     17  C   LIG    1        1.632   3.191  -5.834  0.00  0.00    -0.060 A 
BRANCH  11  18
ATOM     18  C   LIG    1       -1.985   3.022  -6.387  0.00  0.00    +0.300 C 
BRANCH  18  19
ATOM     19  C   LIG    1       -2.278   1.805  -7.267  0.00  0.00    +0.020 C 
BRANCH  19  20
ATOM     20  C   LIG    1       -3.725   1.868  -7.759  0.00  0.00    +0.200 C 
BRANCH  20  21
ATOM     21  C   LIG    1       -4.007   0.697  -8.605  0.00  0.00    +0.200 C 
ATOM     22  N   LIG    1       -4.224  -0.207  -9.258  0.00  0.00    -0.430 NA
ENDBRANCH  20  21
ENDBRANCH  19  20
ENDBRANCH  18  19
ENDBRANCH  11  18
ENDBRANCH   6   9
BRANCH   1  23
ATOM     23  O   LIG    1       -0.735  -0.369   0.459  0.00  0.00    -0.310 OA
BRANCH  23  28
ATOM     24  C   LIG    1       -3.929  -4.988   0.890  0.00  0.00    +0.090 C 
ATOM     25  C   LIG    1       -3.074  -3.752   0.774  0.00  0.00    -0.130 A 
ATOM     26  C   LIG    1       -3.090  -2.805   1.782  0.00  0.00    +0.050 A 
ATOM     27  C   LIG    1       -2.304  -1.674   1.681  0.00  0.00    -0.020 A 
ATOM     28  C   LIG    1       -1.505  -1.484   0.562  0.00  0.00    +0.130 A 
ATOM     29  C   LIG    1       -1.491  -2.435  -0.447  0.00  0.00    -0.080 A 
ATOM     30  C   LIG    1       -2.275  -3.567  -0.339  0.00  0.00    -0.050 A 
ATOM     31  C   LIG    1       -2.260  -4.601  -1.435  0.00  0.00    +0.090 C 
ENDBRANCH  23  28
ENDBRANCH   1  23
TORSDOF 7
