REMARK  Name = ZINCqH0000008w7m.0
REMARK                            x       y       z     vdW  Elec       q    Type
REMARK                         _______ _______ _______ _____ _____    ______ ____
ROOT
ATOM      1  C   LIG    1       -0.815   4.247  -0.794  0.00  0.00    +0.150 A 
ATOM      2  N   LIG    1       -0.427   5.054  -1.756  0.00  0.00    -0.290 NA
ATOM      3  N   LIG    1       -0.635   4.509  -2.901  0.00  0.00    -0.260 NA
ATOM      4  C   LIG    1       -1.162   3.317  -2.741  0.00  0.00    +0.230 A 
ATOM      5  N   LIG    1       -1.290   3.112  -1.386  0.00  0.00    -0.430 N 
ENDROOT
BRANCH   4   6
ATOM      6  C   LIG    1       -1.547   2.375  -3.813  0.00  0.00    -0.070 A 
ATOM      7  C   LIG    1       -1.044   2.529  -5.110  0.00  0.00    +0.120 A 
ATOM      8  C   LIG    1       -1.431   1.617  -6.076  0.00  0.00    -0.020 A 
ATOM      9  C   LIG    1       -2.301   0.598  -5.735  0.00  0.00    +0.270 A 
ATOM     10  N   LIG    1       -2.763   0.479  -4.505  0.00  0.00    -0.480 NA
ATOM     11  C   LIG    1       -2.421   1.319  -3.550  0.00  0.00    +0.280 A 
ENDBRANCH   4   6
BRANCH   5  12
ATOM     12  C   LIG    1       -1.829   1.925  -0.718  0.00  0.00    +0.180 C 
ATOM     13  C   LIG    1       -1.048   0.617  -0.862  0.00  0.00    +0.070 C 
ATOM     14  C   LIG    1       -1.045   1.366   0.472  0.00  0.00    +0.070 C 
ENDBRANCH   5  12
BRANCH   1  15
ATOM     15  S   LIG    1       -0.732   4.568   0.936  0.00  0.00    +0.090 S 
BRANCH  15  17
ATOM     16  C   LIG    1        1.408   6.157   0.339  0.00  0.00    +0.080 C 
ATOM     17  C   LIG    1       -0.008   6.226   0.914  0.00  0.00    +0.010 C 
BRANCH  17  18
ATOM     18  C   LIG    1        0.047   6.769   2.319  0.00  0.00    +0.540 C 
ATOM     19  N   LIG    1        0.057   8.101   2.527  0.00  0.00    -0.660 N 
ATOM     20  H   LIG    1       -0.046   8.709   1.779  0.00  0.00    +0.410 HD
ATOM     21  O   LIG    1        0.082   6.008   3.262  0.00  0.00    -0.500 OA
BRANCH  19  22
ATOM     22  C   LIG    1        0.218   8.605   3.822  0.00  0.00    +0.140 A 
ATOM     23  C   LIG    1       -0.404   9.792   4.189  0.00  0.00    -0.010 A 
ATOM     24  C   LIG    1       -0.248  10.284   5.470  0.00  0.00    +0.030 A 
ATOM     25  C   LIG    1        0.534   9.603   6.384  0.00  0.00    -0.010 A 
ATOM     26  C   LIG    1        1.159   8.424   6.020  0.00  0.00    +0.030 A 
ATOM     27  C   LIG    1        1.003   7.923   4.742  0.00  0.00    +0.010 A 
ENDBRANCH  19  22
ENDBRANCH  17  18
ENDBRANCH  15  17
ENDBRANCH   1  15
TORSDOF 6
