REMARK  Name = ZINCpe00000MJLDl.0
REMARK                            x       y       z     vdW  Elec       q    Type
REMARK                         _______ _______ _______ _____ _____    ______ ____
ROOT
ATOM      1  C   LIG    1       -0.612   1.634  -1.314  0.00  0.00    +0.090 C 
ATOM      2  C   LIG    1        0.618   1.589  -2.255  0.00  0.00    +0.280 C 
ATOM      3  N   LIG    1        1.761   1.959  -1.400  0.00  0.00    -1.010 NA
ATOM      4  C   LIG    1        1.423   1.651  -0.003  0.00  0.00    +0.280 C 
ATOM      5  C   LIG    1       -0.013   1.086   0.008  0.00  0.00    +0.010 C 
ENDROOT
BRANCH   1   9
ATOM      6  C   LIG    1       -5.085  -0.046  -2.826  0.00  0.00    +0.360 C 
ATOM      7  N   LIG    1       -3.663   0.012  -2.478  0.00  0.00    -0.370 N 
ATOM      8  C   LIG    1       -3.003   1.095  -2.017  0.00  0.00    +0.240 A 
ATOM      9  C   LIG    1       -1.712   0.738  -1.821  0.00  0.00    -0.230 A 
ATOM     10  C   LIG    1       -1.582  -0.612  -2.166  0.00  0.00    +0.240 A 
ATOM     11  N   LIG    1       -2.751  -1.048  -2.560  0.00  0.00    -0.290 NA
ENDBRANCH   1   9
BRANCH   3  12
ATOM     12  S   LIG    1        3.188   2.614  -1.927  0.00  0.00    +2.710 S 
ATOM     13  O   LIG    1        3.746   3.304  -0.817  0.00  0.00    -0.940 OA
ATOM     14  O   LIG    1        2.907   3.241  -3.171  0.00  0.00    -0.940 OA
BRANCH  12  15
ATOM     15  C   LIG    1        4.277   1.275  -2.279  0.00  0.00    -0.700 A 
ATOM     16  C   LIG    1        5.111   0.785  -1.289  0.00  0.00    +0.200 A 
ATOM     17  C   LIG    1        5.965  -0.270  -1.553  0.00  0.00    -0.010 A 
ATOM     18  C   LIG    1        6.001  -0.834  -2.814  0.00  0.00    +0.200 A 
ATOM     19  C   LIG    1        5.165  -0.339  -3.821  0.00  0.00    -0.080 A 
ATOM     20  F   LIG    1        6.840  -1.860  -3.074  0.00  0.00    -0.110 F 
ATOM     21  C   LIG    1        4.301   0.722  -3.542  0.00  0.00    +0.220 A 
BRANCH  19  22
ATOM     22  C   LIG    1        5.194  -0.918  -5.130  0.00  0.00    +0.240 C 
ATOM     23  N   LIG    1        5.217  -1.378  -6.169  0.00  0.00    -0.380 NA
ENDBRANCH  19  22
ENDBRANCH  12  15
ENDBRANCH   3  12
BRANCH   5  24
ATOM     24  C   LIG    1       -0.791   1.608   1.217  0.00  0.00    +0.190 C 
BRANCH  24  25
ATOM     25  O   LIG    1       -0.251   1.041   2.413  0.00  0.00    -0.570 OA
ATOM     26  H   LIG    1       -0.697   1.329   3.221  0.00  0.00    +0.380 HD
ENDBRANCH  24  25
ENDBRANCH   5  24
TORSDOF 6
