REMARK  Name = ZINCpk000000mQPo.0
REMARK                            x       y       z     vdW  Elec       q    Type
REMARK                         _______ _______ _______ _____ _____    ______ ____
ROOT
ATOM      1  C   LIG    1       -4.308   1.268   6.260  0.00  0.00    +0.520 C 
ATOM      2  N   LIG    1       -3.663   0.563   5.309  0.00  0.00    -0.670 N 
ATOM      3  H   LIG    1       -3.567  -0.398   5.399  0.00  0.00    +0.410 HD
ATOM      4  O   LIG    1       -4.517   2.452   6.100  0.00  0.00    -0.510 OA
ENDROOT
BRANCH   1  10
ATOM      5  C   LIG    1       -8.536   0.668  10.792  0.00  0.00    +0.090 C 
ATOM      6  C   LIG    1       -7.952  -0.412   9.918  0.00  0.00    +0.510 C 
ATOM      7  N   LIG    1       -6.725  -0.257   9.383  0.00  0.00    -0.620 N 
ATOM      8  C   LIG    1       -5.903   0.912   9.723  0.00  0.00    +0.270 C 
ATOM      9  C   LIG    1       -5.466   1.602   8.427  0.00  0.00    +0.050 C 
ATOM     10  C   LIG    1       -4.768   0.585   7.522  0.00  0.00    +0.010 C 
ATOM     11  C   LIG    1       -5.745  -0.538   7.166  0.00  0.00    +0.030 C 
ATOM     12  C   LIG    1       -6.185  -1.253   8.447  0.00  0.00    +0.280 C 
ATOM     13  O   LIG    1       -8.588  -1.421   9.695  0.00  0.00    -0.540 OA
ENDBRANCH   1  10
BRANCH   2  14
ATOM     14  C   LIG    1       -3.130   1.219   4.193  0.00  0.00    +0.120 A 
ATOM     15  C   LIG    1       -3.108   0.584   2.959  0.00  0.00    +0.050 A 
ATOM     16  C   LIG    1       -2.583   1.234   1.859  0.00  0.00    +0.020 A 
ATOM     17  C   LIG    1       -2.078   2.514   1.987  0.00  0.00    +0.010 A 
ATOM     18  C   LIG    1       -2.098   3.149   3.215  0.00  0.00    -0.660 A 
ATOM     19  C   LIG    1       -1.505   3.220   0.785  0.00  0.00    +0.110 C 
ATOM     20  C   LIG    1       -2.618   2.503   4.319  0.00  0.00    +0.130 A 
BRANCH  18  21
ATOM     21  S   LIG    1       -1.452   4.781   3.373  0.00  0.00    +2.700 S 
ATOM     22  O   LIG    1       -2.027   5.544   2.321  0.00  0.00    -0.950 OA
ATOM     23  O   LIG    1       -1.577   5.131   4.745  0.00  0.00    -0.950 OA
BRANCH  21  24
ATOM     24  N   LIG    1        0.172   4.699   3.057  0.00  0.00    -1.000 NA
ATOM     25  C   LIG    1        1.097   4.241   4.096  0.00  0.00    +0.300 C 
ATOM     26  C   LIG    1        0.682   5.083   1.739  0.00  0.00    +0.300 C 
ENDBRANCH  21  24
ENDBRANCH  18  21
ENDBRANCH   2  14
TORSDOF 4
