REMARK  Name = ZINCpe000000YYJ7.0
REMARK                            x       y       z     vdW  Elec       q    Type
REMARK                         _______ _______ _______ _____ _____    ______ ____
ROOT
ATOM      1  O   LIG    1        3.332   2.189  -0.018  0.00  0.00    -0.490 OA
ATOM      2  C   LIG    1        2.325   1.509  -0.012  0.00  0.00    +0.570 A 
ATOM      3  N   LIG    1        1.102   2.083   0.003  0.00  0.00    -0.660 N 
ATOM      4  H   LIG    1        1.030   3.050   0.008  0.00  0.00    +0.430 HD
ATOM      5  C   LIG    1       -0.016   1.340   0.009  0.00  0.00    +0.710 A 
ATOM      6  N   LIG    1        0.002  -0.004   0.002  0.00  0.00    -0.520 N 
ATOM      7  C   LIG    1        1.205  -0.695  -0.013  0.00  0.00    +0.210 A 
ATOM      8  C   LIG    1        1.247  -2.080  -0.021  0.00  0.00    -0.040 A 
ATOM      9  C   LIG    1        2.466  -2.729  -0.036  0.00  0.00    +0.100 A 
ATOM     10  C   LIG    1        3.650  -2.008  -0.043  0.00  0.00    -0.010 A 
ATOM     11  C   LIG    1        3.628  -0.629  -0.036  0.00  0.00    +0.140 A 
ATOM     12  O   LIG    1       -1.091   1.907   0.018  0.00  0.00    -0.540 OA
ATOM     13  C   LIG    1        2.406   0.037  -0.021  0.00  0.00    -0.200 A 
ENDROOT
BRANCH   6  14
ATOM     14  C   LIG    1       -1.261  -0.747   0.010  0.00  0.00    +0.340 C 
BRANCH  14  15
ATOM     15  C   LIG    1       -1.707  -0.994  -1.409  0.00  0.00    +0.500 C 
ATOM     16  N   LIG    1       -2.851  -1.664  -1.648  0.00  0.00    -0.610 N 
ATOM     17  C   LIG    1       -3.686  -2.175  -0.546  0.00  0.00    +0.250 C 
ATOM     18  C   LIG    1       -4.008  -3.646  -0.802  0.00  0.00    +0.220 C 
ATOM     19  O   LIG    1       -4.521  -3.809  -2.129  0.00  0.00    -0.370 OA
ATOM     20  C   LIG    1       -3.600  -3.423  -3.147  0.00  0.00    +0.140 C 
ATOM     21  C   LIG    1       -4.159  -3.703  -4.539  0.00  0.00    +0.040 C 
ATOM     22  C   LIG    1       -3.112  -3.303  -5.584  0.00  0.00    +0.010 C 
ATOM     23  C   LIG    1       -2.775  -1.819  -5.445  0.00  0.00    +0.000 C 
ATOM     24  C   LIG    1       -2.248  -1.524  -4.037  0.00  0.00    +0.050 C 
ATOM     25  C   LIG    1       -3.314  -1.922  -3.017  0.00  0.00    +0.200 C 
ATOM     26  O   LIG    1       -1.036  -0.589  -2.334  0.00  0.00    -0.510 OA
ENDBRANCH  14  15
ENDBRANCH   6  14
TORSDOF 2
