REMARK  Name = ZINCqH0000004BJ5.0
REMARK                            x       y       z     vdW  Elec       q    Type
REMARK                         _______ _______ _______ _____ _____    ______ ____
ROOT
ATOM      1  C   LIG    1        3.656   7.391   0.808  0.00  0.00    +0.560 C 
ATOM      2  N   LIG    1        3.745   6.333  -0.021  0.00  0.00    -0.610 N 
ATOM      3  C   LIG    1        4.965   5.513  -0.060  0.00  0.00    +0.290 C 
ATOM      4  C   LIG    1        5.476   5.462  -1.505  0.00  0.00    +0.290 C 
ATOM      5  N   LIG    1        4.355   5.106  -2.387  0.00  0.00    -0.610 N 
ATOM      6  C   LIG    1        3.138   5.928  -2.353  0.00  0.00    +0.270 C 
ATOM      7  C   LIG    1        4.444   4.047  -3.216  0.00  0.00    +0.560 C 
ATOM      8  O   LIG    1        5.417   3.319  -3.170  0.00  0.00    -0.510 OA
ATOM      9  C   LIG    1        2.625   5.976  -0.903  0.00  0.00    +0.280 C 
ATOM     10  O   LIG    1        4.625   7.742   1.452  0.00  0.00    -0.530 OA
ENDROOT
BRANCH   7  11
ATOM     11  C   LIG    1        3.361   3.771  -4.180  0.00  0.00    -0.150 A 
ATOM     12  C   LIG    1        2.924   4.772  -5.050  0.00  0.00    +0.090 A 
ATOM     13  C   LIG    1        1.911   4.509  -5.947  0.00  0.00    +0.050 A 
ATOM     14  C   LIG    1        1.326   3.254  -5.989  0.00  0.00    -0.050 A 
ATOM     15  C   LIG    1        1.752   2.256  -5.132  0.00  0.00    +0.030 A 
ATOM     16 BR   LIG    1       -0.063   2.904  -7.224  0.00  0.00    -0.020 Br
ATOM     17  C   LIG    1        2.767   2.506  -4.226  0.00  0.00    +0.160 A 
ATOM     18  F   LIG    1        3.182   1.531  -3.388  0.00  0.00    -0.120 F 
ENDBRANCH   7  11
BRANCH   1  22
ATOM     19  C   LIG    1       -0.012   9.504   1.167  0.00  0.00    -0.060 A 
ATOM     20  C   LIG    1        1.178  10.202   1.057  0.00  0.00    +0.010 A 
ATOM     21  C   LIG    1        2.372   9.522   0.940  0.00  0.00    +0.070 A 
ATOM     22  C   LIG    1        2.380   8.127   0.933  0.00  0.00    -0.140 A 
ATOM     23  C   LIG    1        1.176   7.428   1.039  0.00  0.00    +0.040 A 
ATOM     24  C   LIG    1       -0.011   8.120   1.160  0.00  0.00    +0.010 A 
BRANCH  19  26
ATOM     25  C   LIG    1       -1.889  10.513  -0.101  0.00  0.00    +0.030 C 
ATOM     26  C   LIG    1       -1.313  10.253   1.293  0.00  0.00    +0.070 C 
ENDBRANCH  19  26
ENDBRANCH   1  22
TORSDOF 3
