REMARK  Name = ZINCvU0000000HEY.0
REMARK                            x       y       z     vdW  Elec       q    Type
REMARK                         _______ _______ _______ _____ _____    ______ ____
ROOT
ATOM      1  C   LIG    1       -0.013   1.086   0.008  0.00  0.00    +0.160 C 
ATOM      2  C   LIG    1       -0.718   1.572   1.248  0.00  0.00    +0.140 A 
ATOM      3  N   LIG    1       -2.002   1.814   1.353  0.00  0.00    -0.280 NA
ATOM      4  N   LIG    1       -2.278   2.245   2.657  0.00  0.00    -0.310 N 
ATOM      5  C   LIG    1       -1.097   2.265   3.350  0.00  0.00    +0.340 A 
ATOM      6  N   LIG    1       -0.784   2.598   4.620  0.00  0.00    -0.580 NA
ATOM      7  C   LIG    1        0.431   2.558   5.131  0.00  0.00    +0.480 A 
ATOM      8  C   LIG    1        0.604   2.938   6.487  0.00  0.00    +0.020 A 
ATOM      9  C   LIG    1        1.827   2.917   7.061  0.00  0.00    +0.130 A 
ATOM     10  C   LIG    1        2.982   2.494   6.264  0.00  0.00    -0.120 A 
ATOM     11  C   LIG    1        4.265   2.458   6.816  0.00  0.00    +0.080 A 
ATOM     12  C   LIG    1        5.329   2.055   6.038  0.00  0.00    -0.010 A 
ATOM     13  C   LIG    1        5.133   1.688   4.715  0.00  0.00    +0.070 A 
ATOM     14  C   LIG    1        3.872   1.718   4.157  0.00  0.00    -0.020 A 
ATOM     15  C   LIG    1        2.784   2.121   4.922  0.00  0.00    +0.190 A 
ATOM     16  N   LIG    1        1.514   2.160   4.383  0.00  0.00    -0.520 N 
ATOM     17  C   LIG    1        1.304   1.770   2.978  0.00  0.00    +0.360 C 
ATOM     18  C   LIG    1       -0.117   1.843   2.468  0.00  0.00    -0.320 A 
ENDROOT
BRANCH   4  19
ATOM     19  C   LIG    1       -3.536   2.597   3.161  0.00  0.00    +0.160 A 
ATOM     20  C   LIG    1       -3.862   2.312   4.481  0.00  0.00    +0.040 A 
ATOM     21  C   LIG    1       -5.102   2.664   4.976  0.00  0.00    +0.050 A 
ATOM     22  C   LIG    1       -6.023   3.292   4.156  0.00  0.00    -0.040 A 
ATOM     23  C   LIG    1       -5.704   3.572   2.839  0.00  0.00    +0.050 A 
ATOM     24 CL   LIG    1       -7.583   3.727   4.781  0.00  0.00    -0.060 Cl
ATOM     25  C   LIG    1       -4.463   3.226   2.340  0.00  0.00    +0.040 A 
ENDBRANCH   4  19
BRANCH  17  26
ATOM     26  C   LIG    1        2.158   2.664   2.115  0.00  0.00    -0.150 A 
ATOM     27  C   LIG    1        2.940   2.125   1.105  0.00  0.00    +0.070 A 
ATOM     28  C   LIG    1        3.705   2.986   0.332  0.00  0.00    -0.030 A 
ATOM     29  C   LIG    1        3.672   4.341   0.601  0.00  0.00    +0.260 A 
ATOM     30  N   LIG    1        2.920   4.818   1.573  0.00  0.00    -0.480 NA
ATOM     31  C   LIG    1        2.175   4.030   2.324  0.00  0.00    +0.270 A 
ENDBRANCH  17  26
TORSDOF 2
