REMARK  Name = ZINCrD000000BQ8G.0
REMARK                            x       y       z     vdW  Elec       q    Type
REMARK                         _______ _______ _______ _____ _____    ______ ____
ROOT
ATOM      1  C   LIG    1       -1.926  -0.840  -1.223  0.00  0.00    +0.150 C 
ATOM      2  C   LIG    1       -1.606  -2.306  -0.835  0.00  0.00    +0.060 C 
ATOM      3  C   LIG    1       -1.153  -2.182   0.638  0.00  0.00    +0.030 C 
ATOM      4  C   LIG    1       -1.761  -0.857   1.136  0.00  0.00    +0.190 C 
ATOM      5  N   LIG    1       -2.537  -0.287   0.013  0.00  0.00    -0.450 N 
ENDROOT
BRANCH   5   6
ATOM      6  C   LIG    1       -2.476   1.090   0.020  0.00  0.00    +0.390 A 
ATOM      7  N   LIG    1       -1.336   1.723  -0.219  0.00  0.00    -0.570 NA
ATOM      8  C   LIG    1       -1.265   3.045  -0.216  0.00  0.00    +0.510 A 
ATOM      9  N   LIG    1       -2.303   3.815   0.009  0.00  0.00    -0.510 NA
ATOM     10  C   LIG    1       -3.505   3.279   0.268  0.00  0.00    +0.160 A 
ATOM     11  C   LIG    1       -4.630   4.070   0.530  0.00  0.00    +0.030 A 
ATOM     12  C   LIG    1       -5.829   3.473   0.787  0.00  0.00    +0.060 A 
ATOM     13  C   LIG    1       -5.952   2.086   0.795  0.00  0.00    +0.000 A 
ATOM     14  C   LIG    1       -4.876   1.286   0.544  0.00  0.00    +0.100 A 
ATOM     15  C   LIG    1       -3.631   1.868   0.282  0.00  0.00    -0.130 A 
ENDBRANCH   5   6
BRANCH   1  17
ATOM     16  O   LIG    1       -4.021  -0.348  -2.193  0.00  0.00    -0.510 OA
ATOM     17  C   LIG    1       -2.907  -0.796  -2.367  0.00  0.00    +0.520 C 
ATOM     18  N   LIG    1       -2.546  -1.254  -3.582  0.00  0.00    -0.720 N 
ATOM     19  H   LIG    1       -1.656  -1.612  -3.720  0.00  0.00    +0.400 HD
BRANCH  18  20
ATOM     20  C   LIG    1       -3.499  -1.210  -4.694  0.00  0.00    +0.320 C 
ATOM     21  C   LIG    1       -2.739  -1.187  -6.026  0.00  0.00    +0.020 C 
ATOM     22  C   LIG    1       -3.723  -1.410  -7.177  0.00  0.00    +0.050 C 
ATOM     23  C   LIG    1       -4.227  -2.858  -7.149  0.00  0.00    +0.140 C 
ATOM     24  C   LIG    1       -4.694  -3.173  -5.749  0.00  0.00    -0.010 A 
ATOM     25  O   LIG    1       -5.473  -4.186  -5.353  0.00  0.00    -0.170 OA
ATOM     26  C   LIG    1       -5.659  -4.114  -4.022  0.00  0.00    +0.150 A 
ATOM     27  C   LIG    1       -4.989  -3.042  -3.555  0.00  0.00    -0.030 A 
ATOM     28  C   LIG    1       -4.370  -2.439  -4.664  0.00  0.00    -0.190 A 
ENDBRANCH  18  20
ENDBRANCH   1  17
TORSDOF 3
