REMARK  Name = ZINCpk00000xI5Nr.0
REMARK                            x       y       z     vdW  Elec       q    Type
REMARK                         _______ _______ _______ _____ _____    ______ ____
ROOT
ATOM      1  C   LIG    1       -3.241  -2.106   3.875  0.00  0.00    +0.120 C 
ATOM      2  C   LIG    1       -3.601  -2.619   2.472  0.00  0.00    +0.300 C 
ATOM      3  N   LIG    1       -3.709  -1.462   1.571  0.00  0.00    -1.000 NA
ATOM      4  C   LIG    1       -4.567  -0.340   1.980  0.00  0.00    +0.300 C 
ATOM      5  C   LIG    1       -4.175   0.081   3.400  0.00  0.00    +0.180 C 
ATOM      6  N   LIG    1       -4.220  -1.091   4.285  0.00  0.00    -0.520 NA
ENDROOT
BRANCH   3   7
ATOM      7  S   LIG    1       -2.891  -1.426   0.131  0.00  0.00    +2.690 S 
ATOM      8  O   LIG    1       -2.637  -2.779  -0.220  0.00  0.00    -0.950 OA
ATOM      9  O   LIG    1       -3.599  -0.524  -0.709  0.00  0.00    -0.950 OA
BRANCH   7  10
ATOM     10  C   LIG    1       -1.321  -0.689   0.442  0.00  0.00    -0.710 A 
ATOM     11  C   LIG    1       -1.166   0.681   0.329  0.00  0.00    +0.160 A 
ATOM     12  C   LIG    1        0.065   1.256   0.569  0.00  0.00    -0.030 A 
ATOM     13  C   LIG    1        1.151   0.464   0.928  0.00  0.00    +0.190 A 
ATOM     14  O   LIG    1        2.347   1.067   1.153  0.00  0.00    -0.310 OA
ATOM     15  C   LIG    1        3.343   0.330   1.863  0.00  0.00    +0.240 C 
ATOM     16  C   LIG    1        3.464  -1.060   1.224  0.00  0.00    +0.010 C 
ATOM     17  C   LIG    1        2.140  -1.800   1.433  0.00  0.00    +0.090 C 
ATOM     18  C   LIG    1        0.991  -0.906   1.043  0.00  0.00    -0.180 A 
ATOM     19  C   LIG    1       -0.245  -1.478   0.798  0.00  0.00    +0.160 A 
ENDBRANCH   7  10
ENDBRANCH   3   7
BRANCH   1  21
ATOM     20  C   LIG    1       -2.203  -4.298   4.477  0.00  0.00    +0.010 C 
ATOM     21  C   LIG    1       -3.270  -3.272   4.866  0.00  0.00    +0.030 C 
ENDBRANCH   1  21
BRANCH   6  22
ATOM     22  C   LIG    1       -4.018  -0.700   5.687  0.00  0.00    +0.140 C 
BRANCH  22  23
ATOM     23  C   LIG    1       -5.302  -0.069   6.230  0.00  0.00    +0.220 C 
ATOM     24  C   LIG    1       -5.139   0.210   7.726  0.00  0.00    +0.010 C 
BRANCH  23  25
ATOM     25  O   LIG    1       -5.559   1.157   5.542  0.00  0.00    -0.560 OA
ATOM     26  H   LIG    1       -4.856   1.815   5.635  0.00  0.00    +0.370 HD
ENDBRANCH  23  25
ENDBRANCH  22  23
ENDBRANCH   6  22
TORSDOF 6
