REMARK  Name = ZINCkj000005hzhl.0
REMARK                            x       y       z     vdW  Elec       q    Type
REMARK                         _______ _______ _______ _____ _____    ______ ____
ROOT
ATOM      1  C   LIG    1        2.416  -5.885   2.273  0.00  0.00    -0.080 A 
ATOM      2  C   LIG    1        2.692  -5.509   1.003  0.00  0.00    +0.180 A 
ATOM      3  N   LIG    1        3.173  -4.246   1.080  0.00  0.00    -0.280 N 
ATOM      4  N   LIG    1        3.188  -3.895   2.318  0.00  0.00    -0.050 NA
ATOM      5  N   LIG    1        2.737  -4.848   3.055  0.00  0.00    -0.260 NA
ENDROOT
BRANCH   1   6
ATOM      6  C   LIG    1        1.857  -7.212   2.719  0.00  0.00    +0.190 C 
BRANCH   6   7
ATOM      7  C   LIG    1        2.784  -7.829   3.769  0.00  0.00    +0.180 C 
ATOM      8  C   LIG    1        2.155  -9.113   4.313  0.00  0.00    +0.090 C 
BRANCH   7  10
ATOM      9  C   LIG    1        5.010  -8.620   4.187  0.00  0.00    +0.330 C 
ATOM     10  N   LIG    1        4.081  -8.140   3.154  0.00  0.00    -0.510 N 
ATOM     11  H   LIG    1        4.458  -7.309   2.724  0.00  0.00    +0.430 HD
ATOM     12  H   LIG    1        3.958  -8.856   2.454  0.00  0.00    +0.430 HD
ENDBRANCH   7  10
ENDBRANCH   6   7
ENDBRANCH   1   6
BRANCH   3  13
ATOM     13  C   LIG    1        3.607  -3.423  -0.051  0.00  0.00    +0.470 C 
BRANCH  13  14
ATOM     14  C   LIG    1        2.858  -2.115  -0.037  0.00  0.00    +0.240 A 
ATOM     15  N   LIG    1        1.562  -1.998  -0.024  0.00  0.00    -0.460 NA
ATOM     16  C   LIG    1        1.223  -0.684  -0.013  0.00  0.00    +0.040 A 
ATOM     17  C   LIG    1        0.002  -0.004   0.002  0.00  0.00    +0.070 A 
ATOM     18  C   LIG    1       -0.017   1.362   0.009  0.00  0.00    +0.020 A 
ATOM     19  C   LIG    1        1.167   2.086   0.002  0.00  0.00    +0.060 A 
ATOM     20  C   LIG    1        2.383   1.437  -0.013  0.00  0.00    +0.010 A 
ATOM     21  C   LIG    1        2.422   0.049  -0.021  0.00  0.00    +0.060 A 
ATOM     22  N   LIG    1        3.439  -0.885  -0.036  0.00  0.00    -0.580 N 
ATOM     23  H   LIG    1        4.391  -0.698  -0.044  0.00  0.00    +0.430 HD
ENDBRANCH  13  14
ENDBRANCH   3  13
TORSDOF 5
