REMARK  Name = ZINCrD00000F5LGQ.1
REMARK                            x       y       z     vdW  Elec       q    Type
REMARK                         _______ _______ _______ _____ _____    ______ ____
ROOT
ATOM      1  C   LIG    1       -2.789   1.139   0.030  0.00  0.00    +0.570 C 
ATOM      2  N   LIG    1       -2.597  -0.194  -0.035  0.00  0.00    -0.600 N 
ATOM      3  C   LIG    1       -1.245  -0.764   0.057  0.00  0.00    +0.280 C 
ATOM      4  C   LIG    1       -0.901  -1.456  -1.268  0.00  0.00    +0.120 C 
ATOM      5  C   LIG    1       -2.082  -2.283  -1.704  0.00  0.00    -0.020 A 
ATOM      6  C   LIG    1       -3.341  -2.135  -1.240  0.00  0.00    +0.000 A 
ATOM      7  N   LIG    1       -4.118  -3.032  -1.852  0.00  0.00    -0.470 NA
ATOM      8  C   LIG    1       -3.389  -3.735  -2.679  0.00  0.00    +0.400 A 
ATOM      9  N   LIG    1       -2.111  -3.297  -2.613  0.00  0.00    -0.560 N 
ATOM     10  H   LIG    1       -1.357  -3.641  -3.118  0.00  0.00    +0.420 HD
ATOM     11  C   LIG    1       -3.737  -1.114  -0.194  0.00  0.00    +0.400 C 
ATOM     12  O   LIG    1       -3.918   1.590   0.042  0.00  0.00    -0.520 OA
ENDROOT
BRANCH  11  13
ATOM     13  C   LIG    1       -4.028  -1.801   1.115  0.00  0.00    -0.070 A 
ATOM     14  C   LIG    1       -5.240  -1.598   1.748  0.00  0.00    +0.040 A 
ATOM     15  C   LIG    1       -5.508  -2.228   2.949  0.00  0.00    +0.040 A 
ATOM     16  C   LIG    1       -4.564  -3.062   3.518  0.00  0.00    +0.020 A 
ATOM     17  C   LIG    1       -3.350  -3.267   2.885  0.00  0.00    -0.040 A 
ATOM     18 CL   LIG    1       -2.164  -4.314   3.598  0.00  0.00    -0.070 Cl
ATOM     19  C   LIG    1       -3.085  -2.639   1.681  0.00  0.00    +0.030 A 
ENDBRANCH  11  13
BRANCH   1  22
ATOM     20  C   LIG    1        0.635   2.595  -0.536  0.00  0.00    -0.230 A 
ATOM     21  C   LIG    1       -0.460   1.733  -0.598  0.00  0.00    +0.110 A 
ATOM     22  C   LIG    1       -1.629   2.050   0.088  0.00  0.00    -0.150 A 
ATOM     23  C   LIG    1       -1.707   3.236   0.828  0.00  0.00    +0.130 A 
ATOM     24  C   LIG    1       -0.628   4.088   0.891  0.00  0.00    -0.010 A 
ATOM     25  C   LIG    1        0.547   3.781   0.215  0.00  0.00    +0.200 A 
BRANCH  20  27
ATOM     26  O   LIG    1        2.825   3.019  -1.197  0.00  0.00    -0.440 OA
ATOM     27  C   LIG    1        1.875   2.267  -1.252  0.00  0.00    +0.490 C 
ENDBRANCH  20  27
BRANCH  25  28
ATOM     28  O   LIG    1        1.605   4.623   0.281  0.00  0.00    -0.480 OA
ATOM     29  H   LIG    1        2.211   4.438   1.012  0.00  0.00    +0.400 HD
ENDBRANCH  25  28
ENDBRANCH   1  22
TORSDOF 4
