REMARK  Name = ZINCpe00000Rf97S.0
REMARK                            x       y       z     vdW  Elec       q    Type
REMARK                         _______ _______ _______ _____ _____    ______ ____
ROOT
ATOM      1  C   LIG    1       -1.137  -4.926  -0.012  0.00  0.00    +0.520 C 
ATOM      2  N   LIG    1       -1.186  -6.273  -0.018  0.00  0.00    -0.520 N 
ATOM      3  H   LIG    1       -0.365  -6.788  -0.029  0.00  0.00    +0.430 HD
ATOM      4  O   LIG    1       -2.164  -4.281   0.002  0.00  0.00    -0.540 OA
ENDROOT
BRANCH   2   5
ATOM      5  N   LIG    1       -2.425  -6.928  -0.009  0.00  0.00    -0.520 N 
ATOM      6  H   LIG    1       -3.246  -6.412   0.002  0.00  0.00    +0.430 HD
ATOM      7  C   LIG    1       -2.474  -8.275  -0.015  0.00  0.00    +0.520 C 
ATOM      8  O   LIG    1       -1.447  -8.919  -0.029  0.00  0.00    -0.540 OA
BRANCH   7   9
ATOM      9  C   LIG    1       -3.806  -8.980  -0.006  0.00  0.00    +0.080 C 
BRANCH   9  10
ATOM     10  C   LIG    1       -3.582 -10.493  -0.016  0.00  0.00    +0.210 C 
BRANCH  10  11
ATOM     11  N   LIG    1       -4.880 -11.181  -0.006  0.00  0.00    -0.540 NA
ATOM     12  C   LIG    1       -5.591 -10.947   1.259  0.00  0.00    +0.150 C 
ATOM     13  C   LIG    1       -6.960 -11.629   1.203  0.00  0.00    +0.220 C 
ATOM     14  O   LIG    1       -6.782 -13.022   0.930  0.00  0.00    -0.390 OA
ATOM     15  C   LIG    1       -6.094 -13.286  -0.295  0.00  0.00    +0.220 C 
ATOM     16  C   LIG    1       -4.716 -12.620  -0.254  0.00  0.00    +0.160 C 
ENDBRANCH  10  11
ENDBRANCH   9  10
ENDBRANCH   7   9
ENDBRANCH   2   5
BRANCH   1  17
ATOM     17  C   LIG    1        0.195  -4.221  -0.021  0.00  0.00    +0.090 C 
BRANCH  17  18
ATOM     18  C   LIG    1       -0.029  -2.707  -0.011  0.00  0.00    +0.220 C 
BRANCH  18  19
ATOM     19  O   LIG    1        1.234  -2.039  -0.020  0.00  0.00    -0.310 OA
BRANCH  19  25
ATOM     20  C   LIG    1        2.403   0.034  -0.021  0.00  0.00    -0.110 A 
ATOM     21  C   LIG    1        2.379   1.415  -0.013  0.00  0.00    +0.050 A 
ATOM     22  C   LIG    1        1.170   2.086   0.002  0.00  0.00    -0.030 A 
ATOM     23  C   LIG    1       -0.017   1.377   0.010  0.00  0.00    +0.030 A 
ATOM     24  C   LIG    1        0.002  -0.004   0.002  0.00  0.00    -0.080 A 
ATOM     25  C   LIG    1        1.213  -0.680  -0.013  0.00  0.00    +0.130 A 
BRANCH  20  27
ATOM     26  C   LIG    1        4.092  -1.048  -1.479  0.00  0.00    +0.030 C 
ATOM     27  C   LIG    1        3.721  -0.698  -0.037  0.00  0.00    +0.060 C 
ENDBRANCH  20  27
ENDBRANCH  19  25
ENDBRANCH  18  19
ENDBRANCH  17  18
ENDBRANCH   1  17
TORSDOF 9
