REMARK  Name = ZINCvU00000009jq.0
REMARK                            x       y       z     vdW  Elec       q    Type
REMARK                         _______ _______ _______ _____ _____    ______ ____
ROOT
ATOM      1  S   LIG    1       -2.775  -0.650   0.804  0.00  0.00    +0.070 S 
ENDROOT
BRANCH   1   2
ATOM      2  C   LIG    1       -2.855  -0.093  -0.866  0.00  0.00    +0.150 A 
ATOM      3  N   LIG    1       -3.659  -0.547  -1.802  0.00  0.00    -0.290 NA
ATOM      4  N   LIG    1       -3.450   0.078  -2.905  0.00  0.00    -0.250 NA
ATOM      5  C   LIG    1       -2.502   0.972  -2.741  0.00  0.00    +0.230 A 
ATOM      6  N   LIG    1       -2.095   0.892  -1.429  0.00  0.00    -0.430 N 
BRANCH   5   7
ATOM      7  C   LIG    1       -1.974   1.891  -3.771  0.00  0.00    -0.060 A 
ATOM      8  C   LIG    1       -0.596   2.044  -3.932  0.00  0.00    +0.060 A 
ATOM      9  C   LIG    1       -0.109   2.903  -4.896  0.00  0.00    +0.010 A 
ATOM     10  C   LIG    1       -0.981   3.612  -5.702  0.00  0.00    +0.070 A 
ATOM     11  C   LIG    1       -2.349   3.466  -5.548  0.00  0.00    +0.000 A 
ATOM     12  C   LIG    1       -2.851   2.605  -4.591  0.00  0.00    +0.140 A 
ATOM     13  F   LIG    1       -4.186   2.459  -4.446  0.00  0.00    -0.120 F 
ENDBRANCH   5   7
BRANCH   6  14
ATOM     14  C   LIG    1       -1.058   1.693  -0.774  0.00  0.00    +0.190 C 
ATOM     15  C   LIG    1        0.037   0.944  -0.012  0.00  0.00    +0.060 C 
ATOM     16  C   LIG    1       -1.040   1.713   0.757  0.00  0.00    +0.070 C 
ENDBRANCH   6  14
ENDBRANCH   1   2
BRANCH   1  17
ATOM     17  C   LIG    1       -4.053  -1.932   0.769  0.00  0.00    +0.080 C 
BRANCH  17  18
ATOM     18  C   LIG    1       -4.165  -2.567   2.131  0.00  0.00    +0.450 C 
ATOM     19  O   LIG    1       -3.451  -2.189   3.037  0.00  0.00    -0.460 OA
BRANCH  18  23
ATOM     20  C   LIG    1       -7.841  -6.025   1.433  0.00  0.00    +0.140 C 
ATOM     21  C   LIG    1       -6.762  -5.162   2.036  0.00  0.00    +0.020 A 
ATOM     22  C   LIG    1       -6.070  -4.212   1.385  0.00  0.00    +0.020 A 
ATOM     23  C   LIG    1       -5.136  -3.639   2.362  0.00  0.00    -0.250 A 
ATOM     24  C   LIG    1       -5.357  -4.322   3.543  0.00  0.00    +0.120 A 
ATOM     25  C   LIG    1       -4.632  -4.096   4.845  0.00  0.00    +0.140 C 
ATOM     26  N   LIG    1       -6.333  -5.222   3.330  0.00  0.00    -0.440 N 
BRANCH  26  27
ATOM     27  C   LIG    1       -6.859  -6.140   4.343  0.00  0.00    +0.340 C 
BRANCH  27  28
ATOM     28  C   LIG    1       -6.050  -7.439   4.323  0.00  0.00    +0.440 C 
ATOM     29  F   LIG    1       -6.150  -8.031   3.059  0.00  0.00    -0.170 F 
ATOM     30  F   LIG    1       -6.551  -8.316   5.290  0.00  0.00    -0.170 F 
ATOM     31  F   LIG    1       -4.708  -7.157   4.600  0.00  0.00    -0.170 F 
ENDBRANCH  27  28
ENDBRANCH  26  27
ENDBRANCH  18  23
ENDBRANCH  17  18
ENDBRANCH   1  17
TORSDOF 8
