REMARK  Name = ZINCrg000000qTQS.0
REMARK                            x       y       z     vdW  Elec       q    Type
REMARK                         _______ _______ _______ _____ _____    ______ ____
ROOT
ATOM      1  C   LIG    1        1.558   0.742  -2.288  0.00  0.00    +0.110 A 
ATOM      2  C   LIG    1        2.211   1.060  -1.107  0.00  0.00    -0.060 A 
ATOM      3  C   LIG    1        1.485   1.491  -0.015  0.00  0.00    +0.060 A 
ATOM      4  C   LIG    1        0.103   1.607  -0.099  0.00  0.00    +0.110 A 
ATOM      5  C   LIG    1       -0.552   1.293  -1.279  0.00  0.00    -0.070 A 
ATOM      6  C   LIG    1       -2.047   1.412  -1.406  0.00  0.00    +0.090 C 
ATOM      7  C   LIG    1       -2.705   1.397  -0.026  0.00  0.00    +0.030 C 
ATOM      8  C   LIG    1       -2.019   2.444   0.862  0.00  0.00    +0.270 C 
ATOM      9  N   LIG    1       -0.615   2.042   1.028  0.00  0.00    -0.540 N 
ATOM     10  C   LIG    1       -0.029   2.087   2.241  0.00  0.00    +0.530 C 
ATOM     11  O   LIG    1        1.093   1.651   2.389  0.00  0.00    -0.510 OA
ATOM     12  C   LIG    1        0.180   0.859  -2.372  0.00  0.00    +0.000 A 
ENDROOT
BRANCH  10  13
ATOM     13  C   LIG    1       -0.767   2.680   3.413  0.00  0.00    +0.000 C 
ATOM     14  C   LIG    1       -1.544   1.590   4.186  0.00  0.00    +0.080 C 
ATOM     15  C   LIG    1       -1.414   1.999   5.637  0.00  0.00    +0.520 C 
ATOM     16  N   LIG    1       -0.423   2.897   5.777  0.00  0.00    -0.610 N 
ATOM     17  O   LIG    1       -2.102   1.578   6.542  0.00  0.00    -0.510 OA
ATOM     18  C   LIG    1        0.219   3.186   4.489  0.00  0.00    +0.300 C 
BRANCH  16  19
ATOM     19  C   LIG    1       -0.035   3.508   7.050  0.00  0.00    +0.280 C 
ATOM     20  C   LIG    1        0.355   2.416   8.062  0.00  0.00    +0.070 C 
ATOM     21  C   LIG    1        0.424   3.046   9.467  0.00  0.00    -0.310 C 
ATOM     22  S   LIG    1       -0.745   4.452   9.418  0.00  0.00    +2.400 S 
ATOM     23  O   LIG    1       -1.860   4.167  10.251  0.00  0.00    -0.930 OA
ATOM     24  O   LIG    1       -0.028   5.667   9.583  0.00  0.00    -0.930 OA
ATOM     25  C   LIG    1       -1.238   4.271   7.661  0.00  0.00    -0.320 C 
ENDBRANCH  16  19
ENDBRANCH  10  13
BRANCH   1  27
ATOM     26  C   LIG    1        3.688   0.218  -3.208  0.00  0.00    +0.250 C 
ATOM     27  O   LIG    1        2.271   0.315  -3.365  0.00  0.00    -0.320 OA
ENDBRANCH   1  27
TORSDOF 3
