REMARK  Name = ZINCrD000000CPTm.0
REMARK                            x       y       z     vdW  Elec       q    Type
REMARK                         _______ _______ _______ _____ _____    ______ ____
ROOT
ATOM      1  N   LIG    1       -2.158   7.309   0.121  0.00  0.00    -0.670 N 
ATOM      2  H   LIG    1       -1.454   7.934  -0.114  0.00  0.00    +0.410 HD
ATOM      3  C   LIG    1       -3.378   7.767   0.464  0.00  0.00    +0.560 C 
ATOM      4  O   LIG    1       -4.236   6.991   0.839  0.00  0.00    -0.510 OA
ENDROOT
BRANCH   1  11
ATOM      5  O   LIG    1       -1.504  -0.283   0.425  0.00  0.00    -0.490 OA
ATOM      6  C   LIG    1       -1.881   0.863   0.554  0.00  0.00    +0.540 C 
ATOM      7  C   LIG    1       -3.169   1.109   1.293  0.00  0.00    -0.270 C 
ATOM      8  S   LIG    1       -3.028   2.681   2.197  0.00  0.00    +2.510 S 
ATOM      9  C   LIG    1       -2.261   3.746   1.016  0.00  0.00    -0.660 A 
ATOM     10  C   LIG    1       -2.512   5.099   1.037  0.00  0.00    +0.170 A 
ATOM     11  C   LIG    1       -1.907   5.932   0.103  0.00  0.00    +0.110 A 
ATOM     12  C   LIG    1       -1.052   5.391  -0.848  0.00  0.00    +0.080 A 
ATOM     13  C   LIG    1       -0.802   4.035  -0.866  0.00  0.00    +0.010 A 
ATOM     14  C   LIG    1       -1.404   3.197   0.069  0.00  0.00    +0.220 A 
ATOM     15  O   LIG    1       -2.080   2.573   3.250  0.00  0.00    -0.910 OA
ATOM     16  O   LIG    1       -4.310   3.253   2.414  0.00  0.00    -0.900 OA
ATOM     17  N   LIG    1       -1.131   1.832   0.039  0.00  0.00    -0.660 N 
ATOM     18  H   LIG    1       -0.313   1.561  -0.406  0.00  0.00    +0.420 HD
ENDBRANCH   1  11
BRANCH   3  19
ATOM     19  C   LIG    1       -3.675   9.213   0.384  0.00  0.00    -0.140 A 
ATOM     20  C   LIG    1       -2.691  10.107  -0.041  0.00  0.00    +0.040 A 
ATOM     21  C   LIG    1       -2.976  11.455  -0.118  0.00  0.00    +0.010 A 
ATOM     22  C   LIG    1       -4.229  11.922   0.234  0.00  0.00    +0.050 A 
ATOM     23  C   LIG    1       -5.207  11.041   0.661  0.00  0.00    -0.080 A 
ATOM     24  C   LIG    1       -4.938   9.691   0.738  0.00  0.00    +0.090 A 
BRANCH  23  25
ATOM     25  C   LIG    1       -6.570  11.558   1.044  0.00  0.00    +0.020 C 
ATOM     26  C   LIG    1       -7.200  12.316  -0.144  0.00  0.00    +0.020 C 
ATOM     27  C   LIG    1       -7.954  13.497   0.517  0.00  0.00    +0.010 C 
ATOM     28  C   LIG    1       -7.003  13.909   1.669  0.00  0.00    +0.000 C 
ATOM     29  C   LIG    1       -6.446  12.571   2.196  0.00  0.00    +0.020 C 
ENDBRANCH  23  25
ENDBRANCH   3  19
TORSDOF 3
