REMARK  Name = ZINCpe000000XUme.0
REMARK                            x       y       z     vdW  Elec       q    Type
REMARK                         _______ _______ _______ _____ _____    ______ ____
ROOT
ATOM      1  N   LIG    1       -9.010  -1.419   2.768  0.00  0.00    -0.500 N 
ATOM      2  C   LIG    1       -9.227  -2.007   1.439  0.00  0.00    +0.190 C 
ATOM      3  C   LIG    1       -7.893  -2.519   0.887  0.00  0.00    +0.280 C 
ATOM      4  N   LIG    1       -6.917  -1.419   0.929  0.00  0.00    -0.630 N 
ATOM      5  C   LIG    1       -6.739  -0.695   2.196  0.00  0.00    +0.320 C 
ATOM      6  C   LIG    1       -6.200  -1.088  -0.164  0.00  0.00    +0.710 C 
ATOM      7  N   LIG    1       -6.444  -1.700  -1.340  0.00  0.00    -0.740 N 
ATOM      8  H   LIG    1       -7.082  -2.428  -1.385  0.00  0.00    +0.400 HD
ATOM      9  O   LIG    1       -5.334  -0.238  -0.088  0.00  0.00    -0.590 OA
ATOM     10  C   LIG    1       -8.123  -0.251   2.695  0.00  0.00    +0.180 C 
ENDROOT
BRANCH   1  17
ATOM     11  C   LIG    1       -9.736  -2.790   5.153  0.00  0.00    +0.110 C 
ATOM     12  C   LIG    1      -10.619  -1.733   4.540  0.00  0.00    -0.060 A 
ATOM     13  C   LIG    1      -11.820  -1.404   5.136  0.00  0.00    +0.010 A 
ATOM     14  C   LIG    1      -12.630  -0.434   4.574  0.00  0.00    +0.000 A 
ATOM     15  C   LIG    1      -12.241   0.209   3.414  0.00  0.00    +0.000 A 
ATOM     16  C   LIG    1      -11.038  -0.112   2.815  0.00  0.00    -0.020 A 
ATOM     17  C   LIG    1      -10.225  -1.089   3.374  0.00  0.00    +0.080 A 
ENDBRANCH   1  17
BRANCH   7  18
ATOM     18  C   LIG    1       -5.744  -1.263  -2.551  0.00  0.00    +0.320 C 
BRANCH  18  19
ATOM     19  C   LIG    1       -6.199  -2.115  -3.738  0.00  0.00    +0.140 C 
ATOM     20  C   LIG    1       -5.384  -1.760  -5.008  0.00  0.00    +0.040 C 
ATOM     21  C   LIG    1       -6.347  -2.191  -6.141  0.00  0.00    +0.030 C 
ATOM     22  C   LIG    1       -7.734  -2.219  -5.469  0.00  0.00    +0.160 C 
ATOM     23  O   LIG    1       -7.557  -1.793  -4.108  0.00  0.00    -0.340 OA
BRANCH  22  24
ATOM     24  C   LIG    1       -8.668  -1.278  -6.184  0.00  0.00    +0.510 C 
ATOM     25  O   LIG    1       -9.102  -0.302  -5.609  0.00  0.00    -0.520 OA
ATOM     26  N   LIG    1       -9.018  -1.517  -7.463  0.00  0.00    -0.850 N 
ATOM     27  H   LIG    1       -8.671  -2.298  -7.923  0.00  0.00    +0.400 HD
ATOM     28  H   LIG    1       -9.616  -0.909  -7.924  0.00  0.00    +0.410 HD
ENDBRANCH  22  24
ENDBRANCH  18  19
ENDBRANCH   7  18
TORSDOF 4
