REMARK  Name = ZINCrH000004n8Xy.0
REMARK                            x       y       z     vdW  Elec       q    Type
REMARK                         _______ _______ _______ _____ _____    ______ ____
ROOT
ATOM      1  C   LIG    1       -1.193   1.629  -0.067  0.00  0.00    +0.550 C 
ATOM      2  N   LIG    1       -0.015   0.975  -0.114  0.00  0.00    -0.740 N 
ATOM      3  H   LIG    1        0.003   0.006  -0.093  0.00  0.00    +0.400 HD
ATOM      4  O   LIG    1       -1.216   2.841  -0.093  0.00  0.00    -0.530 OA
ENDROOT
BRANCH   1   5
ATOM      5  C   LIG    1       -2.482   0.853   0.018  0.00  0.00    +0.050 C 
BRANCH   5  14
ATOM      6  C   LIG    1       -7.185  -0.459   0.951  0.00  0.00    +0.120 A 
ATOM      7  C   LIG    1       -5.980  -0.774   1.562  0.00  0.00    -0.080 A 
ATOM      8  C   LIG    1       -4.857  -0.023   1.287  0.00  0.00    +0.040 A 
ATOM      9  C   LIG    1       -4.920   1.046   0.403  0.00  0.00    -0.110 A 
ATOM     10  C   LIG    1       -6.114   1.359  -0.208  0.00  0.00    -0.030 A 
ATOM     11  C   LIG    1       -6.251   2.495  -1.188  0.00  0.00    +0.070 C 
ATOM     12  C   LIG    1       -5.075   3.461  -1.056  0.00  0.00    +0.010 C 
ATOM     13  C   LIG    1       -3.775   2.652  -1.123  0.00  0.00    +0.050 C 
ATOM     14  C   LIG    1       -3.655   1.825   0.155  0.00  0.00    +0.060 C 
ATOM     15  C   LIG    1       -7.247   0.607   0.069  0.00  0.00    -0.030 A 
BRANCH   6  17
ATOM     16  C   LIG    1       -8.157  -2.275   2.138  0.00  0.00    +0.240 C 
ATOM     17  O   LIG    1       -8.298  -1.191   1.217  0.00  0.00    -0.320 OA
ENDBRANCH   6  17
ENDBRANCH   5  14
ENDBRANCH   1   5
BRANCH   2  18
ATOM     18  C   LIG    1        1.238   1.730  -0.203  0.00  0.00    +0.320 C 
BRANCH  18  19
ATOM     19  C   LIG    1        2.365   0.898   0.353  0.00  0.00    -0.090 A 
ATOM     20  C   LIG    1        2.417  -0.458   0.092  0.00  0.00    +0.000 A 
ATOM     21  C   LIG    1        3.454  -1.220   0.598  0.00  0.00    +0.000 A 
ATOM     22  C   LIG    1        4.433  -0.627   1.373  0.00  0.00    +0.000 A 
ATOM     23  C   LIG    1        4.378   0.729   1.638  0.00  0.00    +0.020 A 
ATOM     24  C   LIG    1        3.344   1.491   1.128  0.00  0.00    +0.020 A 
ENDBRANCH  18  19
BRANCH  18  25
ATOM     25  C   LIG    1        1.527   2.067  -1.667  0.00  0.00    -0.260 C 
BRANCH  25  26
ATOM     26  S   LIG    1        0.246   3.189  -2.293  0.00  0.00    +1.280 S 
ATOM     27  O   LIG    1       -1.013   2.529  -2.272  0.00  0.00    -0.820 OA
ATOM     28  C   LIG    1        0.753   3.468  -4.013  0.00  0.00    -0.230 C 
ENDBRANCH  25  26
ENDBRANCH  18  25
ENDBRANCH   2  18
TORSDOF 7
