REMARK  Name = ZINCpe000000Z4fn.0
REMARK                            x       y       z     vdW  Elec       q    Type
REMARK                         _______ _______ _______ _____ _____    ______ ____
ROOT
ATOM      1  C   LIG    1       -1.260   5.109  -2.465  0.00  0.00    +0.020 C 
ENDROOT
BRANCH   1   2
ATOM      2  C   LIG    1       -1.925   5.660  -3.728  0.00  0.00    +0.260 C 
BRANCH   2   5
ATOM      3  O   LIG    1       -2.857   7.251  -5.694  0.00  0.00    -0.530 OA
ATOM      4  C   LIG    1       -2.255   7.819  -4.808  0.00  0.00    +0.490 C 
ATOM      5  N   LIG    1       -1.749   7.114  -3.778  0.00  0.00    -0.730 N 
ATOM      6  H   LIG    1       -1.267   7.569  -3.069  0.00  0.00    +0.400 HD
BRANCH   4   7
ATOM      7  C   LIG    1       -2.074   9.315  -4.860  0.00  0.00    +0.130 C 
ATOM      8  C   LIG    1       -3.178   9.991  -4.045  0.00  0.00    +0.010 C 
ATOM      9  C   LIG    1       -2.994  11.509  -4.097  0.00  0.00    +0.030 C 
ATOM     10  C   LIG    1       -3.069  11.982  -5.550  0.00  0.00    +0.010 C 
ATOM     11  C   LIG    1       -1.964  11.306  -6.365  0.00  0.00    +0.020 C 
ATOM     12  C   LIG    1       -2.149   9.788  -6.312  0.00  0.00    +0.070 C 
BRANCH   7  13
ATOM     13  O   LIG    1       -0.799   9.659  -4.312  0.00  0.00    -0.540 OA
ATOM     14  H   LIG    1       -0.681   9.388  -3.391  0.00  0.00    +0.370 HD
ENDBRANCH   7  13
ENDBRANCH   4   7
ENDBRANCH   2   5
ENDBRANCH   1   2
BRANCH   1  15
ATOM     15  C   LIG    1       -1.445   3.591  -2.413  0.00  0.00    +0.180 C 
BRANCH  15  16
ATOM     16  N   LIG    1       -0.806   3.062  -1.200  0.00  0.00    -0.540 NA
ATOM     17  C   LIG    1       -0.754   1.593  -1.231  0.00  0.00    +0.190 C 
ATOM     18  C   LIG    1       -0.013   1.086   0.008  0.00  0.00    +0.220 C 
ATOM     19  N   LIG    1       -0.701   1.560   1.216  0.00  0.00    -0.460 N 
ATOM     20  C   LIG    1       -0.754   3.029   1.247  0.00  0.00    +0.220 C 
ATOM     21  C   LIG    1       -1.495   3.536   0.008  0.00  0.00    +0.190 C 
BRANCH  19  22
ATOM     22  C   LIG    1       -0.099   1.061   2.358  0.00  0.00    +0.490 A 
ATOM     23  N   LIG    1        0.952   0.264   2.240  0.00  0.00    -0.550 NA
ATOM     24  C   LIG    1        1.554  -0.225   3.311  0.00  0.00    +0.340 A 
ATOM     25  C   LIG    1        1.065   0.096   4.568  0.00  0.00    -0.110 A 
ATOM     26  C   LIG    1       -0.040   0.928   4.655  0.00  0.00    +0.340 A 
ATOM     27  N   LIG    1       -0.592   1.388   3.545  0.00  0.00    -0.530 NA
ENDBRANCH  19  22
ENDBRANCH  15  16
ENDBRANCH   1  15
TORSDOF 7
