REMARK  Name = ZINCrH000004nJ8C.0
REMARK                            x       y       z     vdW  Elec       q    Type
REMARK                         _______ _______ _______ _____ _____    ______ ____
ROOT
ATOM      1  C   LIG    1       -3.613   3.140  -0.051  0.00  0.00    +0.580 C 
ATOM      2  N   LIG    1       -2.455   3.823   0.043  0.00  0.00    -0.660 N 
ATOM      3  H   LIG    1       -2.468   4.789   0.124  0.00  0.00    +0.420 HD
ATOM      4  O   LIG    1       -3.603   1.924  -0.056  0.00  0.00    -0.510 OA
ENDROOT
BRANCH   1   7
ATOM      5  C   LIG    1       -5.990   5.919  -0.223  0.00  0.00    +0.370 A 
ATOM      6  N   LIG    1       -4.890   5.206  -0.135  0.00  0.00    -0.540 NA
ATOM      7  C   LIG    1       -4.896   3.869  -0.147  0.00  0.00    +0.090 A 
ATOM      8  C   LIG    1       -6.075   3.152  -0.243  0.00  0.00    +0.050 A 
ATOM      9  C   LIG    1       -7.288   3.859  -0.334  0.00  0.00    -0.010 A 
ATOM     10  C   LIG    1       -8.524   3.205  -0.435  0.00  0.00    +0.030 A 
ATOM     11  C   LIG    1       -9.668   3.941  -0.521  0.00  0.00    +0.040 A 
ATOM     12  C   LIG    1       -9.626   5.333  -0.511  0.00  0.00    +0.010 A 
ATOM     13  C   LIG    1       -8.441   6.000  -0.414  0.00  0.00    +0.070 A 
ATOM     14  C   LIG    1       -7.245   5.277  -0.324  0.00  0.00    -0.100 A 
BRANCH   5  16
ATOM     15  C   LIG    1       -4.621   7.855  -0.106  0.00  0.00    +0.260 C 
ATOM     16  O   LIG    1       -5.922   7.272  -0.211  0.00  0.00    -0.300 OA
ENDBRANCH   5  16
ENDBRANCH   1   7
BRANCH   2  17
ATOM     17  C   LIG    1       -1.236   3.138   0.024  0.00  0.00    +0.140 A 
ATOM     18  C   LIG    1       -1.099   1.984  -0.736  0.00  0.00    +0.030 A 
ATOM     19  C   LIG    1        0.106   1.308  -0.750  0.00  0.00    +0.030 A 
ATOM     20  C   LIG    1        1.177   1.785  -0.017  0.00  0.00    +0.030 A 
ATOM     21  C   LIG    1        1.044   2.937   0.737  0.00  0.00    -0.090 A 
ATOM     22  C   LIG    1       -0.158   3.615   0.759  0.00  0.00    +0.000 A 
BRANCH  21  23
ATOM     23  C   LIG    1        2.215   3.454   1.534  0.00  0.00    +0.380 C 
BRANCH  23  24
ATOM     24  N   LIG    1        2.999   4.376   0.708  0.00  0.00    -0.370 N 
ATOM     25  C   LIG    1        3.322   5.647   1.026  0.00  0.00    +0.220 A 
ATOM     26  C   LIG    1        4.050   6.155   0.005  0.00  0.00    -0.120 A 
ATOM     27  C   LIG    1        4.176   5.160  -0.971  0.00  0.00    +0.220 A 
ATOM     28  N   LIG    1        3.551   4.092  -0.547  0.00  0.00    -0.290 NA
ENDBRANCH  23  24
ENDBRANCH  21  23
ENDBRANCH   2  17
TORSDOF 5
