REMARK  Name = ZINCrD00000l2ttS.1
REMARK                            x       y       z     vdW  Elec       q    Type
REMARK                         _______ _______ _______ _____ _____    ______ ____
ROOT
ATOM      1  N   LIG    1        1.731  -2.386  -1.391  0.00  0.00    -0.680 NA
ATOM      2  H   LIG    1        0.794  -2.301  -1.755  0.00  0.00    +0.350 HD
ENDROOT
BRANCH   1   3
ATOM      3  C   LIG    1        2.192  -3.780  -1.442  0.00  0.00    +0.190 C 
ATOM      4  C   LIG    1        3.714  -3.808  -1.596  0.00  0.00    +0.050 C 
BRANCH   3   5
ATOM      5  C   LIG    1        1.555  -4.477  -2.616  0.00  0.00    -0.080 A 
ATOM      6  C   LIG    1        1.413  -3.809  -3.820  0.00  0.00    +0.050 A 
ATOM      7  C   LIG    1        0.830  -4.440  -4.902  0.00  0.00    +0.030 A 
ATOM      8  C   LIG    1        0.387  -5.748  -4.782  0.00  0.00    +0.090 A 
ATOM      9  N   LIG    1       -0.226  -6.634  -5.664  0.00  0.00    -0.640 N 
ATOM     10  H   LIG    1       -0.456  -6.448  -6.588  0.00  0.00    +0.440 HD
ATOM     11  C   LIG    1       -0.445  -7.794  -5.016  0.00  0.00    +0.680 A 
ATOM     12  N   LIG    1        0.001  -7.697  -3.749  0.00  0.00    -0.640 N 
ATOM     13  H   LIG    1       -0.041  -8.396  -3.078  0.00  0.00    +0.440 HD
ATOM     14  O   LIG    1       -0.966  -8.781  -5.502  0.00  0.00    -0.550 OA
ATOM     15  C   LIG    1        0.530  -6.422  -3.567  0.00  0.00    +0.090 A 
ATOM     16  C   LIG    1        1.121  -5.782  -2.488  0.00  0.00    +0.030 A 
ENDBRANCH   3   5
ENDBRANCH   1   3
BRANCH   1  17
ATOM     17  C   LIG    1        1.817  -1.852  -0.025  0.00  0.00    +0.260 C 
BRANCH  17  23
ATOM     18  C   LIG    1       -1.207  -0.904   0.009  0.00  0.00    +0.160 C 
ATOM     19  C   LIG    1        0.002  -0.004   0.002  0.00  0.00    +0.090 A 
ATOM     20  N   LIG    1       -0.016   1.305   0.009  0.00  0.00    -0.290 NA
ATOM     21  N   LIG    1        1.309   1.761  -0.001  0.00  0.00    -0.320 N 
ATOM     22  C   LIG    1        2.120   0.679  -0.015  0.00  0.00    +0.260 A 
ATOM     23  C   LIG    1        1.337  -0.424  -0.013  0.00  0.00    -0.220 A 
BRANCH  21  24
ATOM     24  C   LIG    1        1.720   3.101   0.002  0.00  0.00    +0.150 A 
ATOM     25  C   LIG    1        3.073   3.413  -0.004  0.00  0.00    +0.030 A 
ATOM     26  C   LIG    1        3.476   4.734  -0.006  0.00  0.00    +0.030 A 
ATOM     27  C   LIG    1        2.532   5.747   0.009  0.00  0.00    +0.090 A 
ATOM     28  C   LIG    1        1.182   5.438   0.020  0.00  0.00    +0.020 A 
ATOM     29  F   LIG    1        2.928   7.039   0.012  0.00  0.00    -0.130 F 
ATOM     30  C   LIG    1        0.775   4.118   0.016  0.00  0.00    +0.060 A 
ENDBRANCH  21  24
ENDBRANCH  17  23
ENDBRANCH   1  17
TORSDOF 5
