REMARK  Name = ZINCpk00000FajTx.0
REMARK                            x       y       z     vdW  Elec       q    Type
REMARK                         _______ _______ _______ _____ _____    ______ ____
ROOT
ATOM      1  O   LIG    1       -0.959  -0.473  -1.998  0.00  0.00    -0.510 OA
ATOM      2  C   LIG    1       -1.161   0.717  -2.122  0.00  0.00    +0.510 C 
ATOM      3  N   LIG    1       -0.730   1.576  -1.177  0.00  0.00    -0.620 N 
ATOM      4  C   LIG    1       -0.013   1.086   0.008  0.00  0.00    +0.290 C 
ATOM      5  C   LIG    1       -0.738   1.584   1.265  0.00  0.00    +0.270 C 
ATOM      6  N   LIG    1       -0.979   3.028   1.125  0.00  0.00    -0.610 N 
ATOM      7  C   LIG    1       -1.697   3.518  -0.060  0.00  0.00    +0.290 C 
ATOM      8  C   LIG    1       -0.547   3.887   2.069  0.00  0.00    +0.550 C 
ATOM      9  O   LIG    1       -0.749   5.076   1.945  0.00  0.00    -0.530 OA
ATOM     10  C   LIG    1       -0.968   3.020  -1.315  0.00  0.00    +0.270 C 
ENDROOT
BRANCH   8  11
ATOM     11  C   LIG    1        0.187   3.370   3.280  0.00  0.00    -0.040 C 
ATOM     12  C   LIG    1        1.674   3.709   3.402  0.00  0.00    +0.090 C 
ATOM     13  C   LIG    1        0.653   4.395   4.315  0.00  0.00    +0.030 C 
BRANCH  13  14
ATOM     14  C   LIG    1        0.628   3.983   5.764  0.00  0.00    -0.000 A 
ATOM     15  C   LIG    1        1.375   2.900   6.187  0.00  0.00    +0.020 A 
ATOM     16  C   LIG    1        1.351   2.521   7.517  0.00  0.00    +0.060 A 
ATOM     17  C   LIG    1        0.581   3.226   8.422  0.00  0.00    +0.020 A 
ATOM     18  C   LIG    1       -0.166   4.309   7.999  0.00  0.00    +0.070 A 
ATOM     19  C   LIG    1       -0.139   4.691   6.671  0.00  0.00    -0.170 A 
BRANCH  19  20
ATOM     20  C   LIG    1       -0.948   5.875   6.210  0.00  0.00    +0.510 C 
ATOM     21  F   LIG    1       -1.868   5.463   5.240  0.00  0.00    -0.170 F 
ATOM     22  F   LIG    1       -0.095   6.840   5.663  0.00  0.00    -0.170 F 
ATOM     23  F   LIG    1       -1.634   6.424   7.299  0.00  0.00    -0.180 F 
ENDBRANCH  19  20
ENDBRANCH  13  14
ENDBRANCH   8  11
BRANCH   2  24
ATOM     24  C   LIG    1       -1.896   1.234  -3.332  0.00  0.00    +0.220 C 
BRANCH  24  25
ATOM     25  O   LIG    1       -2.247   0.139  -4.180  0.00  0.00    -0.550 OA
ATOM     26  H   LIG    1       -2.723   0.398  -4.981  0.00  0.00    +0.390 HD
ENDBRANCH  24  25
ENDBRANCH   2  24
TORSDOF 5
