REMARK  Name = ZINCnE000001TzUA.0
REMARK                            x       y       z     vdW  Elec       q    Type
REMARK                         _______ _______ _______ _____ _____    ______ ____
ROOT
ATOM      1  N   LIG    1       -3.387   0.487   3.534  0.00  0.00    -0.670 N 
ATOM      2  H   LIG    1       -3.680  -0.331   3.103  0.00  0.00    +0.410 HD
ATOM      3  C   LIG    1       -3.946   0.874   4.698  0.00  0.00    +0.510 C 
ATOM      4  O   LIG    1       -3.639   1.937   5.194  0.00  0.00    -0.510 OA
ENDROOT
BRANCH   1   9
ATOM      5  C   LIG    1       -0.352   1.428   1.684  0.00  0.00    -0.000 A 
ATOM      6  C   LIG    1       -0.396   2.805   1.792  0.00  0.00    -0.010 A 
ATOM      7  C   LIG    1       -1.435   3.416   2.469  0.00  0.00    +0.020 A 
ATOM      8  C   LIG    1       -2.428   2.651   3.050  0.00  0.00    -0.010 A 
ATOM      9  C   LIG    1       -2.383   1.266   2.948  0.00  0.00    +0.130 A 
ATOM     10  C   LIG    1       -1.341   0.656   2.262  0.00  0.00    -0.020 A 
BRANCH   5  11
ATOM     11  C   LIG    1        0.780   0.767   0.940  0.00  0.00    -0.020 C 
BRANCH  11  13
ATOM     12  O   LIG    1       -0.682   1.001  -0.904  0.00  0.00    -0.690 OA
ATOM     13  C   LIG    1        0.404   0.611  -0.511  0.00  0.00    +0.500 C 
ATOM     14  O   LIG    1        1.186   0.096  -1.291  0.00  0.00    -0.700 OA
ENDBRANCH  11  13
ENDBRANCH   5  11
ENDBRANCH   1   9
BRANCH   3  15
ATOM     15  C   LIG    1       -4.953  -0.015   5.381  0.00  0.00    +0.100 C 
BRANCH  15  16
ATOM     16  C   LIG    1       -5.521   0.706   6.606  0.00  0.00    -0.080 C 
ATOM     17  C   LIG    1       -6.630   1.700   6.300  0.00  0.00    +0.080 C 
ATOM     18  C   LIG    1       -6.909   2.580   7.521  0.00  0.00    +0.020 C 
ATOM     19  C   LIG    1       -5.596   3.248   7.946  0.00  0.00    +0.020 C 
ATOM     20  C   LIG    1       -4.719   2.203   8.636  0.00  0.00    +0.060 C 
ATOM     21  C   LIG    1       -5.590  -0.114   7.888  0.00  0.00    +0.180 C 
ATOM     22  F   LIG    1       -5.153  -1.442   7.831  0.00  0.00    -0.160 F 
ATOM     23  F   LIG    1       -6.658   0.134   8.757  0.00  0.00    -0.150 F 
ATOM     24  C   LIG    1       -4.533   0.989   7.727  0.00  0.00    +0.020 C 
ENDBRANCH  15  16
ENDBRANCH   3  15
TORSDOF 5
