REMARK  Name = ZINCvU0000000E7J.0
REMARK                            x       y       z     vdW  Elec       q    Type
REMARK                         _______ _______ _______ _____ _____    ______ ____
ROOT
ATOM      1  C   LIG    1       -0.267   4.919  -0.252  0.00  0.00    +0.300 C 
ENDROOT
BRANCH   1   2
ATOM      2  C   LIG    1       -0.186   3.481  -0.695  0.00  0.00    +0.110 A 
ATOM      3  C   LIG    1        1.049   2.877  -0.831  0.00  0.00    -0.030 A 
ATOM      4  C   LIG    1        1.113   1.553  -1.238  0.00  0.00    +0.070 A 
ATOM      5  C   LIG    1       -0.074   0.884  -1.495  0.00  0.00    -0.030 A 
ATOM      6  C   LIG    1       -1.272   1.555  -1.342  0.00  0.00    +0.270 A 
ATOM      7  N   LIG    1       -1.295   2.813  -0.948  0.00  0.00    -0.450 NA
ENDBRANCH   1   2
BRANCH   1   9
ATOM      8  O   LIG    1       -1.153   5.475   1.864  0.00  0.00    -0.500 OA
ATOM      9  C   LIG    1       -0.227   4.984   1.253  0.00  0.00    +0.510 C 
ATOM     10  N   LIG    1        0.839   4.498   1.920  0.00  0.00    -0.720 N 
ATOM     11  H   LIG    1        1.579   4.106   1.432  0.00  0.00    +0.400 HD
BRANCH  10  12
ATOM     12  C   LIG    1        0.878   4.561   3.384  0.00  0.00    +0.240 C 
ATOM     13  C   LIG    1        1.413   5.927   3.820  0.00  0.00    +0.000 C 
ATOM     14  C   LIG    1        1.454   5.993   5.348  0.00  0.00    +0.010 C 
ATOM     15  C   LIG    1        2.371   4.891   5.882  0.00  0.00    +0.000 C 
ATOM     16  C   LIG    1        1.837   3.526   5.445  0.00  0.00    +0.020 C 
ATOM     17  C   LIG    1        1.796   3.460   3.917  0.00  0.00    +0.010 C 
ENDBRANCH  10  12
ENDBRANCH   1   9
BRANCH   1  18
ATOM     18  N   LIG    1       -1.519   5.508  -0.733  0.00  0.00    -0.580 N 
ATOM     19  C   LIG    1       -1.491   6.498  -1.647  0.00  0.00    +0.520 C 
ATOM     20  O   LIG    1       -2.521   7.043  -1.982  0.00  0.00    -0.520 OA
BRANCH  18  21
ATOM     21  C   LIG    1       -2.802   5.021  -0.220  0.00  0.00    +0.270 C 
ATOM     22  C   LIG    1       -3.643   4.481  -1.379  0.00  0.00    +0.010 C 
ATOM     23  C   LIG    1       -4.982   3.972  -0.844  0.00  0.00    +0.010 C 
ATOM     24  C   LIG    1       -5.730   5.121  -0.165  0.00  0.00    +0.000 C 
ATOM     25  C   LIG    1       -4.890   5.661   0.994  0.00  0.00    +0.010 C 
ATOM     26  C   LIG    1       -3.550   6.170   0.459  0.00  0.00    +0.010 C 
ENDBRANCH  18  21
BRANCH  19  27
ATOM     27  C   LIG    1       -0.179   6.928  -2.251  0.00  0.00    -0.020 C 
ATOM     28  C   LIG    1        0.567   7.828  -1.263  0.00  0.00    +0.020 C 
ATOM     29  C   LIG    1        1.898   8.265  -1.877  0.00  0.00    +0.010 C 
ATOM     30  C   LIG    1        1.635   9.037  -3.171  0.00  0.00    +0.000 C 
ATOM     31  C   LIG    1        0.889   8.137  -4.159  0.00  0.00    +0.010 C 
ATOM     32  C   LIG    1       -0.443   7.700  -3.545  0.00  0.00    +0.050 C 
ENDBRANCH  19  27
ENDBRANCH   1  18
TORSDOF 6
