REMARK  Name = ZINCpe00000xLLUx.0
REMARK                            x       y       z     vdW  Elec       q    Type
REMARK                         _______ _______ _______ _____ _____    ______ ____
ROOT
ATOM      1  C   LIG    1        1.706  -4.742   3.682  0.00  0.00    +0.550 C 
ATOM      2  N   LIG    1        1.757  -3.911   2.623  0.00  0.00    -0.650 N 
ATOM      3  C   LIG    1        1.549  -4.073   1.170  0.00  0.00    +0.300 C 
ATOM      4  C   LIG    1        1.210  -2.572   1.157  0.00  0.00    -0.020 C 
ATOM      5  C   LIG    1        2.044  -2.474   2.448  0.00  0.00    +0.280 C 
ATOM      6  O   LIG    1        1.436  -5.914   3.522  0.00  0.00    -0.530 OA
ENDROOT
BRANCH   1   7
ATOM      7  C   LIG    1        1.983  -4.215   5.067  0.00  0.00    +0.050 C 
BRANCH   7   8
ATOM      8  C   LIG    1        1.860  -5.355   6.080  0.00  0.00    +0.130 C 
BRANCH   8   9
ATOM      9  C   LIG    1        2.142  -4.821   7.486  0.00  0.00    +0.040 C 
ATOM     10  N   LIG    1        1.838  -3.417   7.776  0.00  0.00    -0.120 NA
ATOM     11  N   LIG    1        3.044  -3.675   7.632  0.00  0.00    -0.120 NA
BRANCH   9  12
ATOM     12  C   LIG    1        2.060  -5.838   8.625  0.00  0.00    +0.120 C 
BRANCH  12  13
ATOM     13  C   LIG    1        2.367  -5.143   9.953  0.00  0.00    +0.160 C 
BRANCH  13  15
ATOM     14  C   LIG    1        2.225  -6.904  11.923  0.00  0.00    +0.030 C 
ATOM     15  C   LIG    1        2.288  -6.123  11.049  0.00  0.00    -0.190 C 
ENDBRANCH  13  15
ENDBRANCH  12  13
ENDBRANCH   9  12
ENDBRANCH   8   9
ENDBRANCH   7   8
ENDBRANCH   1   7
BRANCH   4  16
ATOM     16  C   LIG    1        1.815  -1.813  -0.026  0.00  0.00    +0.350 C 
BRANCH  16  17
ATOM     17  N   LIG    1        1.338  -0.428  -0.013  0.00  0.00    -0.360 N 
ATOM     18  C   LIG    1        2.100   0.683  -0.014  0.00  0.00    +0.320 A 
ATOM     19  C   LIG    1        1.246   1.750  -0.000  0.00  0.00    -0.090 A 
ATOM     20  N   LIG    1       -0.015   1.283   0.009  0.00  0.00    -0.180 NA
ATOM     21  N   LIG    1        0.002  -0.004   0.002  0.00  0.00    -0.050 NA
BRANCH  19  22
ATOM     22  C   LIG    1        1.639   3.170   0.003  0.00  0.00    +0.560 C 
ATOM     23  O   LIG    1        2.816   3.474  -0.007  0.00  0.00    -0.500 OA
BRANCH  22  24
ATOM     24  O   LIG    1        0.695   4.131   0.017  0.00  0.00    -0.340 OA
ATOM     25  C   LIG    1        1.155   5.508   0.020  0.00  0.00    +0.290 C 
ENDBRANCH  22  24
ENDBRANCH  19  22
ENDBRANCH  16  17
ENDBRANCH   4  16
TORSDOF 10
