REMARK  Name = ZINCpe000000UxvX.0
REMARK                            x       y       z     vdW  Elec       q    Type
REMARK                         _______ _______ _______ _____ _____    ______ ____
ROOT
ATOM      1  N   LIG    1        0.057  -0.144  -0.132  0.00  0.00    -0.470 N 
ATOM      2  C   LIG    1        0.737  -0.632   0.989  0.00  0.00    +0.050 A 
ATOM      3  C   LIG    1        2.125  -0.707   0.945  0.00  0.00    +0.030 A 
ATOM      4  C   LIG    1        2.832  -1.181   2.035  0.00  0.00    +0.080 A 
ATOM      5  C   LIG    1        2.159  -1.583   3.176  0.00  0.00    +0.020 A 
ATOM      6  C   LIG    1        0.779  -1.513   3.225  0.00  0.00    +0.030 A 
ATOM      7  F   LIG    1        4.180  -1.251   1.987  0.00  0.00    -0.140 F 
ATOM      8  C   LIG    1        0.064  -1.040   2.135  0.00  0.00    +0.090 A 
ATOM      9  O   LIG    1       -1.295  -0.992   2.214  0.00  0.00    -0.300 OA
ATOM     10  C   LIG    1       -1.969  -0.211   1.222  0.00  0.00    +0.220 C 
ATOM     11  C   LIG    1       -1.353  -0.548  -0.142  0.00  0.00    +0.160 C 
ENDROOT
BRANCH   1  12
ATOM     12  C   LIG    1        0.188   1.316  -0.231  0.00  0.00    +0.300 C 
BRANCH  12  15
ATOM     13  C   LIG    1        3.357   2.090  -1.937  0.00  0.00    +0.620 A 
ATOM     14  N   LIG    1        2.083   1.772  -1.715  0.00  0.00    -0.620 NA
ATOM     15  C   LIG    1        1.630   1.676  -0.477  0.00  0.00    +0.430 A 
ATOM     16  N   LIG    1        2.437   1.900   0.545  0.00  0.00    -0.630 NA
ATOM     17  C   LIG    1        3.713   2.213   0.332  0.00  0.00    +0.630 A 
ATOM     18  N   LIG    1        4.173   2.311  -0.911  0.00  0.00    -0.650 NA
BRANCH  13  20
ATOM     19  C   LIG    1        2.929   1.948  -4.359  0.00  0.00    +0.310 C 
ATOM     20  N   LIG    1        3.829   2.191  -3.229  0.00  0.00    -0.580 N 
ATOM     21  C   LIG    1        5.231   2.541  -3.472  0.00  0.00    +0.310 C 
ENDBRANCH  13  20
BRANCH  17  22
ATOM     22  N   LIG    1        4.557   2.441   1.400  0.00  0.00    -0.800 N 
ATOM     23  H   LIG    1        4.221   2.369   2.307  0.00  0.00    +0.420 HD
ATOM     24  H   LIG    1        5.486   2.672   1.243  0.00  0.00    +0.420 HD
ENDBRANCH  17  22
ENDBRANCH  12  15
ENDBRANCH   1  12
BRANCH  11  25
ATOM     25  C   LIG    1       -2.097   0.212  -1.243  0.00  0.00    +0.050 C 
BRANCH  25  26
ATOM     26  C   LIG    1       -1.493  -0.141  -2.603  0.00  0.00    +0.200 C 
BRANCH  26  27
ATOM     27  O   LIG    1       -2.187   0.569  -3.631  0.00  0.00    -0.580 OA
ATOM     28  H   LIG    1       -1.857   0.393  -4.523  0.00  0.00    +0.380 HD
ENDBRANCH  26  27
ENDBRANCH  25  26
ENDBRANCH  11  25
TORSDOF 7
