REMARK  Name = ZINCpk00000iSpev.0
REMARK                            x       y       z     vdW  Elec       q    Type
REMARK                         _______ _______ _______ _____ _____    ______ ____
ROOT
ATOM      1  C   LIG    1       -2.807   3.495   3.146  0.00  0.00    +0.520 C 
ATOM      2  N   LIG    1       -2.451   3.289   1.863  0.00  0.00    -0.720 N 
ATOM      3  H   LIG    1       -2.853   3.818   1.157  0.00  0.00    +0.410 HD
ATOM      4  O   LIG    1       -2.303   2.834   4.029  0.00  0.00    -0.540 OA
ENDROOT
BRANCH   1   5
ATOM      5  C   LIG    1       -3.830   4.549   3.484  0.00  0.00    +0.050 C 
BRANCH   5   6
ATOM      6  C   LIG    1       -4.050   4.579   4.998  0.00  0.00    +0.130 C 
BRANCH   6   7
ATOM      7  C   LIG    1       -5.089   5.648   5.341  0.00  0.00    +0.040 C 
ATOM      8  N   LIG    1       -6.116   5.972   4.348  0.00  0.00    -0.120 NA
ATOM      9  N   LIG    1       -5.211   6.815   4.463  0.00  0.00    -0.120 NA
BRANCH   7  10
ATOM     10  C   LIG    1       -5.428   5.810   6.824  0.00  0.00    +0.120 C 
BRANCH  10  11
ATOM     11  C   LIG    1       -6.475   6.913   6.991  0.00  0.00    +0.160 C 
BRANCH  11  13
ATOM     12  C   LIG    1       -7.061   7.193   9.556  0.00  0.00    +0.030 C 
ATOM     13  C   LIG    1       -6.801   7.069   8.418  0.00  0.00    -0.190 C 
ENDBRANCH  11  13
ENDBRANCH  10  11
ENDBRANCH   7  10
ENDBRANCH   6   7
ENDBRANCH   5   6
ENDBRANCH   1   5
BRANCH   2  14
ATOM     14  C   LIG    1       -1.456   2.264   1.534  0.00  0.00    +0.270 C 
BRANCH  14  15
ATOM     15  C   LIG    1       -1.236   2.235   0.020  0.00  0.00    +0.260 C 
BRANCH  15  16
ATOM     16  C   LIG    1       -0.126   1.269  -0.307  0.00  0.00    -0.050 A 
ATOM     17  C   LIG    1       -0.241  -0.068  -0.483  0.00  0.00    +0.150 A 
ATOM     18  N   LIG    1        1.003  -0.520  -0.763  0.00  0.00    -0.290 N 
ATOM     19  N   LIG    1        1.808   0.484  -0.755  0.00  0.00    -0.080 NA
ATOM     20  C   LIG    1        1.370  -1.913  -1.030  0.00  0.00    +0.370 C 
ATOM     21  N   LIG    1        1.166   1.566  -0.486  0.00  0.00    -0.250 NA
ENDBRANCH  15  16
BRANCH  15  22
ATOM     22  N   LIG    1       -0.870   3.578  -0.448  0.00  0.00    -0.500 NA
ATOM     23  C   LIG    1        0.289   4.110   0.314  0.00  0.00    +0.170 C 
ATOM     24  C   LIG    1        0.846   5.217  -0.616  0.00  0.00    +0.020 C 
ATOM     25  C   LIG    1        0.658   4.612  -2.026  0.00  0.00    +0.020 C 
ATOM     26  C   LIG    1       -0.443   3.548  -1.864  0.00  0.00    +0.160 C 
ENDBRANCH  15  22
ENDBRANCH  14  15
ENDBRANCH   2  14
TORSDOF 10
