REMARK  Name = ZINCqH00000s3v1R.0
REMARK                            x       y       z     vdW  Elec       q    Type
REMARK                         _______ _______ _______ _____ _____    ______ ____
ROOT
ATOM      1  C   LIG    1        3.501   1.082   0.857  0.00  0.00    +0.390 A 
ATOM      2  C   LIG    1        4.426   0.671   1.811  0.00  0.00    -0.130 A 
ATOM      3  C   LIG    1        5.773   0.655   1.460  0.00  0.00    +0.460 A 
ATOM      4  N   LIG    1        6.125   1.031   0.232  0.00  0.00    -0.560 NA
ATOM      5  C   LIG    1        5.218   1.414  -0.644  0.00  0.00    +0.310 A 
ATOM      6  N   LIG    1        3.934   1.438  -0.352  0.00  0.00    -0.560 NA
ENDROOT
BRANCH   1  13
ATOM      7  C   LIG    1       -0.732   1.582  -1.248  0.00  0.00    +0.030 C 
ATOM      8  C   LIG    1       -0.013   1.086   0.008  0.00  0.00    -0.010 C 
ATOM      9  C   LIG    1       -0.783   1.573   1.255  0.00  0.00    +0.020 C 
ATOM     10  C   LIG    1       -0.356   0.752   2.442  0.00  0.00    +0.020 C 
ATOM     11  C   LIG    1        0.815   1.384   3.223  0.00  0.00    +0.030 C 
ATOM     12  C   LIG    1        1.891   1.971   2.289  0.00  0.00    +0.180 C 
ATOM     13  N   LIG    1        2.148   1.115   1.157  0.00  0.00    -0.460 N 
ATOM     14  C   LIG    1        1.359   1.581  -0.002  0.00  0.00    +0.210 C 
ENDBRANCH   1  13
BRANCH   5  15
ATOM     15  C   LIG    1        5.662   1.831  -2.022  0.00  0.00    +0.550 C 
ATOM     16  F   LIG    1        5.594   3.224  -2.132  0.00  0.00    -0.160 F 
ATOM     17  F   LIG    1        4.826   1.246  -2.979  0.00  0.00    -0.160 F 
ATOM     18  F   LIG    1        6.980   1.411  -2.235  0.00  0.00    -0.160 F 
ENDBRANCH   5  15
BRANCH   3  19
ATOM     19  N   LIG    1        6.734   0.254   2.375  0.00  0.00    -0.590 N 
ATOM     20  C   LIG    1        6.328  -0.261   3.685  0.00  0.00    +0.310 C 
BRANCH  19  21
ATOM     21  C   LIG    1        8.155   0.345   2.032  0.00  0.00    +0.330 C 
BRANCH  21  22
ATOM     22  C   LIG    1        8.694   1.714   2.452  0.00  0.00    +0.130 C 
ATOM     23  C   LIG    1       10.159   1.881   1.988  0.00  0.00    +0.010 C 
ATOM     24  C   LIG    1       10.831   2.659   3.141  0.00  0.00    +0.000 C 
ATOM     25  C   LIG    1        9.694   2.871   4.165  0.00  0.00    +0.190 C 
ATOM     26  O   LIG    1        8.750   1.812   3.892  0.00  0.00    -0.370 OA
ENDBRANCH  21  22
ENDBRANCH  19  21
ENDBRANCH   3  19
TORSDOF 5
