REMARK  Name = ZINCpe000000Yci9.0
REMARK                            x       y       z     vdW  Elec       q    Type
REMARK                         _______ _______ _______ _____ _____    ______ ____
ROOT
ATOM      1  N   LIG    1        2.404   1.903  -0.011  0.00  0.00    -0.630 N 
ATOM      2  H   LIG    1        2.641   0.963  -0.018  0.00  0.00    +0.430 HD
ATOM      3  C   LIG    1        3.372   2.842  -0.015  0.00  0.00    +0.510 C 
ATOM      4  O   LIG    1        3.076   4.018  -0.006  0.00  0.00    -0.470 OA
ENDROOT
BRANCH   1   9
ATOM      5  C   LIG    1       -1.583   4.804   0.041  0.00  0.00    +0.190 C 
ATOM      6  C   LIG    1       -0.732   3.560   0.027  0.00  0.00    -0.010 A 
ATOM      7  C   LIG    1       -1.200   2.304   0.019  0.00  0.00    -0.120 A 
ATOM      8  C   LIG    1       -0.017   1.428   0.010  0.00  0.00    -0.170 A 
ATOM      9  C   LIG    1        1.073   2.282   0.004  0.00  0.00    +0.320 A 
ATOM     10  C   LIG    1       -2.644   1.875   0.024  0.00  0.00    +0.140 C 
ATOM     11  O   LIG    1        0.612   3.541   0.014  0.00  0.00    -0.150 OA
BRANCH   8  12
ATOM     12  C   LIG    1        0.002  -0.004   0.002  0.00  0.00    +0.280 C 
ATOM     13  N   LIG    1        0.018  -1.140  -0.004  0.00  0.00    -0.420 NA
ENDBRANCH   8  12
ENDBRANCH   1   9
BRANCH   3  14
ATOM     14  C   LIG    1        4.821   2.429  -0.031  0.00  0.00    +0.240 C 
BRANCH  14  15
ATOM     15  N   LIG    1        5.671   3.627  -0.033  0.00  0.00    -0.520 NA
ATOM     16  C   LIG    1        7.080   3.274  -0.268  0.00  0.00    +0.200 C 
ATOM     17  C   LIG    1        7.849   4.542  -0.639  0.00  0.00    +0.160 C 
ATOM     18  C   LIG    1        7.578   5.621   0.379  0.00  0.00    +0.070 A 
ATOM     19  N   LIG    1        8.383   6.650   0.439  0.00  0.00    -0.220 NA
ATOM     20  N   LIG    1        8.217   7.613   1.269  0.00  0.00    -0.340 N 
ATOM     21  C   LIG    1        7.190   7.627   2.140  0.00  0.00    +0.480 A 
ATOM     22  C   LIG    1        6.278   6.550   2.142  0.00  0.00    -0.030 A 
ATOM     23  O   LIG    1        7.049   8.558   2.916  0.00  0.00    -0.530 OA
ATOM     24  C   LIG    1        9.168   8.728   1.269  0.00  0.00    +0.360 C 
ATOM     25  C   LIG    1        6.483   5.537   1.248  0.00  0.00    -0.020 A 
ATOM     26  C   LIG    1        5.534   4.371   1.225  0.00  0.00    +0.260 C 
ENDBRANCH  14  15
ENDBRANCH   3  14
TORSDOF 4
