REMARK  Name = ZINCqH0000004Vnh.0
REMARK                            x       y       z     vdW  Elec       q    Type
REMARK                         _______ _______ _______ _____ _____    ______ ____
ROOT
ATOM      1  N   LIG    1        2.073   0.679   0.447  0.00  0.00    -0.380 N 
ATOM      2  N   LIG    1        1.208  -0.415   0.563  0.00  0.00    -0.230 NA
ATOM      3  C   LIG    1       -0.028  -0.010   0.486  0.00  0.00    +0.300 A 
ATOM      4  C   LIG    1       -0.033   1.390   0.313  0.00  0.00    -0.180 A 
ATOM      5  C   LIG    1       -1.057   2.355   0.176  0.00  0.00    -0.010 A 
ATOM      6  C   LIG    1       -0.682   3.684   0.015  0.00  0.00    -0.020 A 
ATOM      7  C   LIG    1        0.676   4.015   0.005  0.00  0.00    +0.240 A 
ATOM      8  N   LIG    1        1.612   3.091   0.139  0.00  0.00    -0.480 NA
ATOM      9  C   LIG    1        1.313   1.810   0.291  0.00  0.00    +0.320 A 
ENDROOT
BRANCH   7  10
ATOM     10  C   LIG    1        1.075   5.434  -0.161  0.00  0.00    -0.060 A 
ATOM     11  C   LIG    1        0.103   6.422  -0.310  0.00  0.00    +0.040 A 
ATOM     12  C   LIG    1        0.481   7.741  -0.458  0.00  0.00    +0.010 A 
ATOM     13  C   LIG    1        1.822   8.082  -0.471  0.00  0.00    +0.030 A 
ATOM     14  C   LIG    1        2.791   7.105  -0.329  0.00  0.00    +0.000 A 
ATOM     15  C   LIG    1        2.425   5.783  -0.175  0.00  0.00    +0.070 A 
ENDBRANCH   7  10
BRANCH   5  16
ATOM     16  C   LIG    1       -2.482   1.962   0.200  0.00  0.00    +0.570 C 
ATOM     17  N   LIG    1       -3.442   2.899   0.067  0.00  0.00    -0.660 N 
ATOM     18  H   LIG    1       -3.201   3.838   0.033  0.00  0.00    +0.420 HD
ATOM     19  O   LIG    1       -2.788   0.794   0.338  0.00  0.00    -0.490 OA
BRANCH  17  20
ATOM     20  C   LIG    1       -4.780   2.519  -0.021  0.00  0.00    +0.190 A 
ATOM     21  C   LIG    1       -5.144   1.320  -0.632  0.00  0.00    -0.030 A 
ATOM     22  C   LIG    1       -6.479   0.978  -0.695  0.00  0.00    +0.280 A 
ATOM     23  N   LIG    1       -7.406   1.773  -0.194  0.00  0.00    -0.490 NA
ATOM     24  C   LIG    1       -7.102   2.918   0.388  0.00  0.00    +0.280 A 
ATOM     25  C   LIG    1       -5.790   3.330   0.495  0.00  0.00    -0.060 A 
ENDBRANCH  17  20
ENDBRANCH   5  16
BRANCH   1  27
ATOM     26  C   LIG    1        4.079   0.429  -0.930  0.00  0.00    +0.030 C 
ATOM     27  C   LIG    1        3.536   0.625   0.488  0.00  0.00    +0.340 C 
ENDBRANCH   1  27
TORSDOF 4
