REMARK  Name = ZINCrD00000jX9U3.0
REMARK                            x       y       z     vdW  Elec       q    Type
REMARK                         _______ _______ _______ _____ _____    ______ ____
ROOT
ATOM      1  N   LIG    1       -0.138  -2.556   0.799  0.00  0.00    -0.740 N 
ATOM      2  H   LIG    1       -0.994  -2.680   0.360  0.00  0.00    +0.390 HD
ATOM      3  C   LIG    1        0.670  -1.544   0.425  0.00  0.00    +0.720 C 
ATOM      4  N   LIG    1        0.248  -0.646  -0.488  0.00  0.00    -0.630 N 
ATOM      5  C   LIG    1       -1.024  -0.710  -1.230  0.00  0.00    +0.240 C 
ATOM      6  C   LIG    1       -1.322   0.757  -1.631  0.00  0.00    +0.040 C 
ATOM      7  C   LIG    1        0.101   1.290  -1.943  0.00  0.00    +0.040 C 
ATOM      8  C   LIG    1        0.979   0.558  -0.907  0.00  0.00    +0.320 C 
ATOM      9  O   LIG    1        1.780  -1.441   0.910  0.00  0.00    -0.580 OA
ENDROOT
BRANCH   8  10
ATOM     10  C   LIG    1        2.293   0.168  -1.533  0.00  0.00    -0.230 A 
ATOM     11  C   LIG    1        3.470   0.821  -1.387  0.00  0.00    +0.240 A 
ATOM     12  N   LIG    1        4.401   0.155  -2.102  0.00  0.00    -0.380 N 
ATOM     13  N   LIG    1        3.775  -0.938  -2.714  0.00  0.00    -0.300 NA
ATOM     14  C   LIG    1        5.816   0.516  -2.221  0.00  0.00    +0.350 C 
ATOM     15  C   LIG    1        2.511  -0.929  -2.372  0.00  0.00    +0.240 A 
ENDBRANCH   8  10
BRANCH   1  16
ATOM     16  C   LIG    1        0.277  -3.468   1.868  0.00  0.00    +0.310 C 
BRANCH  16  17
ATOM     17  C   LIG    1       -0.753  -4.590   2.009  0.00  0.00    -0.040 C 
ATOM     18  C   LIG    1       -0.171  -5.892   2.584  0.00  0.00    +0.040 C 
ATOM     19  C   LIG    1        0.149  -6.296   1.135  0.00  0.00    +0.010 C 
ATOM     20  C   LIG    1       -1.000  -5.368   0.706  0.00  0.00    +0.030 C 
BRANCH  17  26
ATOM     21  C   LIG    1       -1.987  -3.741   4.021  0.00  0.00    +0.140 A 
ATOM     22  C   LIG    1       -3.154  -3.327   4.646  0.00  0.00    -0.080 A 
ATOM     23  C   LIG    1       -4.344  -3.313   3.946  0.00  0.00    +0.040 A 
ATOM     24  C   LIG    1       -4.373  -3.711   2.622  0.00  0.00    -0.030 A 
ATOM     25  C   LIG    1       -3.211  -4.119   1.995  0.00  0.00    +0.050 A 
ATOM     26  C   LIG    1       -2.019  -4.140   2.692  0.00  0.00    -0.100 A 
BRANCH  21  28
ATOM     27  C   LIG    1       -0.874  -3.437   6.099  0.00  0.00    +0.240 C 
ATOM     28  O   LIG    1       -0.814  -3.755   4.708  0.00  0.00    -0.310 OA
ENDBRANCH  21  28
ENDBRANCH  17  26
ENDBRANCH  16  17
ENDBRANCH   1  16
TORSDOF 5
