REMARK  Name = ZINCqH0000008qHH.0
REMARK                            x       y       z     vdW  Elec       q    Type
REMARK                         _______ _______ _______ _____ _____    ______ ____
ROOT
ATOM      1  N   LIG    1        0.688  -0.476  -1.203  0.00  0.00    -0.720 N 
ATOM      2  H   LIG    1        1.632  -0.695  -1.170  0.00  0.00    +0.410 HD
ATOM      3  C   LIG    1        0.006  -0.608  -2.358  0.00  0.00    +0.610 C 
ATOM      4  O   LIG    1       -1.178  -0.335  -2.400  0.00  0.00    -0.530 OA
ENDROOT
BRANCH   3   5
ATOM      5  C   LIG    1        0.698  -1.085  -3.574  0.00  0.00    -0.020 A 
ATOM      6  N   LIG    1        1.970  -1.416  -3.674  0.00  0.00    -0.260 NA
ATOM      7  N   LIG    1        2.235  -1.787  -4.875  0.00  0.00    -0.270 N 
ATOM      8  C   LIG    1        1.126  -1.717  -5.641  0.00  0.00    +0.170 A 
ATOM      9  C   LIG    1        0.119  -1.278  -4.851  0.00  0.00    -0.010 A 
BRANCH   7  10
ATOM     10  C   LIG    1        3.553  -2.224  -5.344  0.00  0.00    +0.260 C 
ATOM     11  C   LIG    1        3.753  -1.776  -6.795  0.00  0.00    +0.010 C 
ATOM     12  C   LIG    1        5.098  -2.304  -7.303  0.00  0.00    +0.240 C 
ATOM     13  O   LIG    1        5.125  -3.728  -7.183  0.00  0.00    -0.380 OA
ATOM     14  C   LIG    1        4.989  -4.203  -5.842  0.00  0.00    +0.230 C 
ATOM     15  C   LIG    1        3.640  -3.751  -5.276  0.00  0.00    -0.000 C 
ENDBRANCH   7  10
ENDBRANCH   3   5
BRANCH   1  17
ATOM     16  C   LIG    1       -0.019   1.526   0.010  0.00  0.00    +0.040 C 
ATOM     17  C   LIG    1        0.002  -0.004   0.002  0.00  0.00    +0.280 C 
BRANCH  17  18
ATOM     18  C   LIG    1        0.731  -0.503   1.223  0.00  0.00    -0.090 A 
ATOM     19  C   LIG    1        2.113  -0.524   1.242  0.00  0.00    +0.050 A 
ATOM     20  C   LIG    1        2.781  -0.978   2.364  0.00  0.00    +0.030 A 
ATOM     21  C   LIG    1        2.068  -1.420   3.462  0.00  0.00    +0.070 A 
ATOM     22  C   LIG    1        0.686  -1.404   3.441  0.00  0.00    -0.180 A 
ATOM     23  C   LIG    1        0.017  -0.946   2.321  0.00  0.00    +0.080 A 
BRANCH  22  24
ATOM     24  C   LIG    1       -0.092  -1.886   4.638  0.00  0.00    +0.510 C 
ATOM     25  F   LIG    1       -1.308  -1.198   4.712  0.00  0.00    -0.180 F 
ATOM     26  F   LIG    1        0.649  -1.651   5.801  0.00  0.00    -0.180 F 
ATOM     27  F   LIG    1       -0.339  -3.257   4.512  0.00  0.00    -0.180 F 
ENDBRANCH  22  24
ENDBRANCH  17  18
ENDBRANCH   1  17
TORSDOF 5
