REMARK  Name = ZINCtj00000nxPOg.1
REMARK                            x       y       z     vdW  Elec       q    Type
REMARK                         _______ _______ _______ _____ _____    ______ ____
ROOT
ATOM      1  C   LIG    1        1.155   9.185  -4.060  0.00  0.00    +0.230 C 
ENDROOT
BRANCH   1   3
ATOM      2  O   LIG    1        3.421   8.527  -4.105  0.00  0.00    -0.520 OA
ATOM      3  C   LIG    1        2.605   9.363  -4.430  0.00  0.00    +0.520 C 
ATOM      4  N   LIG    1        2.995  10.452  -5.122  0.00  0.00    -0.610 N 
ATOM      5  C   LIG    1        2.021  11.475  -5.531  0.00  0.00    +0.290 C 
ATOM      6  C   LIG    1        2.547  12.848  -5.083  0.00  0.00    +0.210 C 
ATOM      7  N   LIG    1        3.906  13.040  -5.607  0.00  0.00    -0.460 N 
ATOM      8  C   LIG    1        4.836  12.048  -5.052  0.00  0.00    +0.230 C 
ATOM      9  C   LIG    1        4.405  10.646  -5.494  0.00  0.00    +0.300 C 
BRANCH   7  10
ATOM     10  C   LIG    1        4.353  14.328  -5.367  0.00  0.00    +0.490 A 
ATOM     11  N   LIG    1        5.487  14.506  -4.705  0.00  0.00    -0.550 NA
ATOM     12  C   LIG    1        5.944  15.723  -4.463  0.00  0.00    +0.350 A 
ATOM     13  C   LIG    1        5.217  16.819  -4.901  0.00  0.00    -0.100 A 
ATOM     14  C   LIG    1        4.032  16.597  -5.586  0.00  0.00    +0.350 A 
ATOM     15  N   LIG    1        3.634  15.354  -5.799  0.00  0.00    -0.530 NA
ENDBRANCH   7  10
ENDBRANCH   1   3
BRANCH   1  16
ATOM     16  N   LIG    1        0.991   7.930  -3.315  0.00  0.00    -0.540 NA
ATOM     17  C   LIG    1        1.359   6.764  -4.151  0.00  0.00    +0.210 C 
ATOM     18  C   LIG    1        0.910   5.432  -3.525  0.00  0.00    +0.060 C 
ATOM     19  C   LIG    1        1.143   5.402  -2.035  0.00  0.00    +0.260 C 
ATOM     20  N   LIG    1       -0.090   5.844  -1.351  0.00  0.00    -0.360 N 
ATOM     21  C   LIG    1       -0.225   7.236  -1.329  0.00  0.00    +0.240 C 
ATOM     22  H   LIG    1       -0.886   5.448  -1.828  0.00  0.00    +0.410 HD
ATOM     23  C   LIG    1       -0.334   7.836  -2.743  0.00  0.00    +0.220 C 
BRANCH  20  24
ATOM     24  C   LIG    1       -0.070   5.347   0.031  0.00  0.00    +0.320 C 
BRANCH  24  25
ATOM     25  C   LIG    1       -0.050   3.840   0.023  0.00  0.00    -0.160 A 
ATOM     26  C   LIG    1        1.156   3.165   0.008  0.00  0.00    +0.030 A 
ATOM     27  C   LIG    1        1.175   1.783   0.000  0.00  0.00    +0.030 A 
ATOM     28  C   LIG    1       -0.013   1.076   0.008  0.00  0.00    +0.060 A 
ATOM     29  C   LIG    1       -1.219   1.751   0.017  0.00  0.00    +0.030 A 
ATOM     30  C   LIG    1       -1.238   3.133   0.030  0.00  0.00    +0.040 A 
ENDBRANCH  24  25
ENDBRANCH  20  24
ENDBRANCH   1  16
TORSDOF 5
