REMARK  Name = ZINCtj00000nxPOg.0
REMARK                            x       y       z     vdW  Elec       q    Type
REMARK                         _______ _______ _______ _____ _____    ______ ____
ROOT
ATOM      1  C   LIG    1       -5.148  -0.593   4.942  0.00  0.00    +0.260 C 
ENDROOT
BRANCH   1   3
ATOM      2  O   LIG    1       -3.149  -1.843   5.026  0.00  0.00    -0.550 OA
ATOM      3  C   LIG    1       -4.266  -1.693   5.473  0.00  0.00    +0.490 C 
ATOM      4  N   LIG    1       -4.718  -2.510   6.445  0.00  0.00    -0.610 N 
ATOM      5  C   LIG    1       -6.067  -2.341   7.005  0.00  0.00    +0.300 C 
ATOM      6  C   LIG    1       -6.782  -3.701   6.960  0.00  0.00    +0.210 C 
ATOM      7  N   LIG    1       -5.951  -4.707   7.635  0.00  0.00    -0.460 N 
ATOM      8  C   LIG    1       -4.672  -4.897   6.937  0.00  0.00    +0.230 C 
ATOM      9  C   LIG    1       -3.873  -3.590   6.977  0.00  0.00    +0.290 C 
BRANCH   7  10
ATOM     10  C   LIG    1       -6.629  -5.907   7.761  0.00  0.00    +0.490 A 
ATOM     11  N   LIG    1       -6.088  -7.011   7.268  0.00  0.00    -0.550 NA
ATOM     12  C   LIG    1       -6.708  -8.175   7.377  0.00  0.00    +0.350 A 
ATOM     13  C   LIG    1       -7.942  -8.228   8.006  0.00  0.00    -0.100 A 
ATOM     14  C   LIG    1       -8.482  -7.053   8.506  0.00  0.00    +0.360 A 
ATOM     15  N   LIG    1       -7.807  -5.923   8.368  0.00  0.00    -0.530 NA
ENDBRANCH   7  10
ENDBRANCH   1   3
BRANCH   1  16
ATOM     16  N   LIG    1       -4.474   0.078   3.822  0.00  0.00    -0.510 NA
ATOM     17  C   LIG    1       -3.210   0.636   4.239  0.00  0.00    +0.190 C 
ATOM     18  C   LIG    1       -2.895   1.984   3.561  0.00  0.00    +0.070 C 
ATOM     19  C   LIG    1       -3.264   1.981   2.064  0.00  0.00    +0.240 C 
ATOM     20  N   LIG    1       -2.907   0.738   1.424  0.00  0.00    -0.380 N 
ATOM     21  C   LIG    1       -4.097  -0.136   1.424  0.00  0.00    +0.280 C 
ATOM     22  H   LIG    1       -2.158   0.294   1.934  0.00  0.00    +0.420 HD
ATOM     23  C   LIG    1       -4.279  -0.854   2.684  0.00  0.00    +0.210 C 
BRANCH  20  24
ATOM     24  C   LIG    1       -2.481   0.996   0.042  0.00  0.00    +0.330 C 
BRANCH  24  25
ATOM     25  C   LIG    1       -1.198   1.785   0.051  0.00  0.00    -0.160 A 
ATOM     26  C   LIG    1        0.018   1.128   0.058  0.00  0.00    +0.040 A 
ATOM     27  C   LIG    1        1.196   1.852   0.061  0.00  0.00    +0.030 A 
ATOM     28  C   LIG    1        1.157   3.234   0.062  0.00  0.00    +0.060 A 
ATOM     29  C   LIG    1       -0.059   3.891   0.060  0.00  0.00    +0.030 A 
ATOM     30  C   LIG    1       -1.236   3.167   0.058  0.00  0.00    +0.030 A 
ENDBRANCH  24  25
ENDBRANCH  20  24
ENDBRANCH   1  16
TORSDOF 5
