REMARK  Name = ZINCpk00000y6upg.0
REMARK                            x       y       z     vdW  Elec       q    Type
REMARK                         _______ _______ _______ _____ _____    ______ ____
ROOT
ATOM      1  C   LIG    1        5.015  -2.697  -0.058  0.00  0.00    +0.580 C 
ATOM      2  N   LIG    1        6.139  -1.961  -0.167  0.00  0.00    -0.610 N 
ATOM      3  C   LIG    1        6.205  -0.489  -0.172  0.00  0.00    +0.230 C 
ATOM      4  C   LIG    1        7.523  -0.153  -0.913  0.00  0.00    +0.170 C 
ATOM      5  C   LIG    1        8.457  -1.288  -0.416  0.00  0.00    +0.080 C 
ATOM      6  C   LIG    1        7.503  -2.494  -0.292  0.00  0.00    +0.280 C 
ATOM      7  O   LIG    1        5.086  -3.909   0.002  0.00  0.00    -0.510 OA
ENDROOT
BRANCH   6   8
ATOM      8  C   LIG    1        7.852  -3.304   0.931  0.00  0.00    -0.070 A 
ATOM      9  C   LIG    1        8.588  -4.466   0.802  0.00  0.00    +0.060 A 
ATOM     10  C   LIG    1        8.910  -5.210   1.922  0.00  0.00    +0.030 A 
ATOM     11  C   LIG    1        8.495  -4.790   3.174  0.00  0.00    +0.070 A 
ATOM     12  C   LIG    1        7.756  -3.623   3.303  0.00  0.00    +0.070 A 
ATOM     13  F   LIG    1        7.350  -3.212   4.524  0.00  0.00    -0.130 F 
ATOM     14  F   LIG    1        8.809  -5.516   4.269  0.00  0.00    -0.130 F 
ATOM     15  C   LIG    1        7.441  -2.879   2.180  0.00  0.00    +0.030 A 
ENDBRANCH   6   8
BRANCH   1  19
ATOM     16  C   LIG    1        1.299  -0.729   0.105  0.00  0.00    +0.100 A 
ATOM     17  C   LIG    1        1.334  -2.034  -0.382  0.00  0.00    +0.050 A 
ATOM     18  C   LIG    1        2.547  -2.698  -0.450  0.00  0.00    +0.140 A 
ATOM     19  C   LIG    1        3.695  -2.029  -0.013  0.00  0.00    -0.160 A 
ATOM     20  C   LIG    1        3.579  -0.722   0.468  0.00  0.00    +0.300 A 
ATOM     21  N   LIG    1        2.409  -0.125   0.511  0.00  0.00    -0.460 NA
BRANCH  16  25
ATOM     22  N   LIG    1       -0.039   1.252   0.651  0.00  0.00    -0.830 N 
ATOM     23  H   LIG    1       -0.885   1.725   0.694  0.00  0.00    +0.410 HD
ATOM     24  H   LIG    1        0.776   1.688   0.946  0.00  0.00    +0.410 HD
ATOM     25  C   LIG    1        0.005  -0.008   0.176  0.00  0.00    +0.580 C 
ATOM     26  O   LIG    1       -1.016  -0.554  -0.194  0.00  0.00    -0.530 OA
ENDBRANCH  16  25
ENDBRANCH   1  19
BRANCH   4  27
ATOM     27  O   LIG    1        8.019   1.128  -0.521  0.00  0.00    -0.550 OA
ATOM     28  H   LIG    1        7.421   1.861  -0.724  0.00  0.00    +0.390 HD
ENDBRANCH   4  27
TORSDOF 4
