REMARK  Name = ZINCrg00001JduQi.0
REMARK                            x       y       z     vdW  Elec       q    Type
REMARK                         _______ _______ _______ _____ _____    ______ ____
ROOT
ATOM      1  N   LIG    1        3.864   0.196   0.633  0.00  0.00    -0.590 N 
ATOM      2  C   LIG    1        4.116   0.005  -0.677  0.00  0.00    +0.510 C 
ATOM      3  O   LIG    1        3.200  -0.035  -1.471  0.00  0.00    -0.510 OA
ENDROOT
BRANCH   1   4
ATOM      4  C   LIG    1        2.481   0.248   1.113  0.00  0.00    +0.280 C 
ATOM      5  C   LIG    1        1.778  -1.093   0.841  0.00  0.00    +0.070 C 
ATOM      6  C   LIG    1        0.260  -0.904   1.037  0.00  0.00    -0.310 C 
ATOM      7  S   LIG    1       -0.053   0.858   0.657  0.00  0.00    +2.390 S 
ATOM      8  O   LIG    1       -0.511   1.518   1.829  0.00  0.00    -0.930 OA
ATOM      9  O   LIG    1       -0.798   0.955  -0.549  0.00  0.00    -0.930 OA
ATOM     10  C   LIG    1        1.688   1.330   0.335  0.00  0.00    -0.310 C 
ENDBRANCH   1   4
BRANCH   1  11
ATOM     11  C   LIG    1        4.974   0.351   1.577  0.00  0.00    +0.270 C 
BRANCH  11  13
ATOM     12  C   LIG    1        4.324   2.693   2.158  0.00  0.00    +0.020 C 
ATOM     13  C   LIG    1        5.435   1.810   1.586  0.00  0.00    -0.050 C 
ATOM     14  C   LIG    1        6.689   1.942   2.452  0.00  0.00    +0.030 C 
ENDBRANCH  11  13
ENDBRANCH   1  11
BRANCH   2  15
ATOM     15  C   LIG    1        5.535  -0.158  -1.156  0.00  0.00    +0.330 C 
BRANCH  15  16
ATOM     16  N   LIG    1        5.546  -0.300  -2.614  0.00  0.00    -0.530 N 
ATOM     17  C   LIG    1        5.462  -1.503  -3.157  0.00  0.00    +0.530 C 
ATOM     18  C   LIG    1        5.480  -1.502  -4.668  0.00  0.00    +0.110 C 
ATOM     19  S   LIG    1        5.629   0.266  -5.090  0.00  0.00    +0.050 S 
ATOM     20  O   LIG    1        5.376  -2.518  -2.500  0.00  0.00    -0.480 OA
ATOM     21  C   LIG    1        5.647   0.809  -3.402  0.00  0.00    +0.200 C 
ATOM     22  C   LIG    1        5.747   2.116  -2.966  0.00  0.00    -0.140 C 
BRANCH  22  23
ATOM     23  C   LIG    1        5.845   3.152  -3.888  0.00  0.00    +0.410 C 
ATOM     24  O   LIG    1        5.842   2.907  -5.080  0.00  0.00    -0.470 OA
BRANCH  23  25
ATOM     25  C   LIG    1        5.953   4.577  -3.411  0.00  0.00    -0.090 C 
ATOM     26  C   LIG    1        5.107   5.629  -4.132  0.00  0.00    +0.050 C 
ATOM     27  C   LIG    1        6.622   5.586  -4.347  0.00  0.00    +0.050 C 
ENDBRANCH  23  25
ENDBRANCH  22  23
ENDBRANCH  15  16
ENDBRANCH   2  15
TORSDOF 7
