REMARK  Name = ZINCqH00000361JT.0
REMARK                            x       y       z     vdW  Elec       q    Type
REMARK                         _______ _______ _______ _____ _____    ______ ____
ROOT
ATOM      1  N   LIG    1        3.645   2.083  -0.022  0.00  0.00    -0.670 N 
ATOM      2  H   LIG    1        3.658   3.050  -0.099  0.00  0.00    +0.410 HD
ATOM      3  C   LIG    1        4.803   1.398   0.065  0.00  0.00    +0.710 C 
ATOM      4  N   LIG    1        5.973   2.061   0.158  0.00  0.00    -0.640 N 
ATOM      5  H   LIG    1        5.981   3.031   0.163  0.00  0.00    +0.420 HD
ATOM      6  O   LIG    1        4.792   0.182   0.059  0.00  0.00    -0.560 OA
ENDROOT
BRANCH   1  10
ATOM      7  C   LIG    1       -0.001   0.003   0.060  0.00  0.00    +0.140 A 
ATOM      8  C   LIG    1        1.124  -0.526   0.624  0.00  0.00    -0.050 A 
ATOM      9  C   LIG    1        2.333   0.162   0.598  0.00  0.00    +0.070 A 
ATOM     10  C   LIG    1        2.426   1.400  -0.000  0.00  0.00    +0.140 A 
ATOM     11  C   LIG    1        1.280   1.971  -0.592  0.00  0.00    -0.080 A 
ATOM     12  C   LIG    1        1.330   3.231  -1.213  0.00  0.00    +0.070 A 
ATOM     13  C   LIG    1        0.180   3.724  -1.765  0.00  0.00    -0.020 A 
ATOM     14  C   LIG    1       -0.995   2.980  -1.702  0.00  0.00    +0.280 A 
ATOM     15  N   LIG    1       -1.035   1.802  -1.126  0.00  0.00    -0.450 NA
ATOM     16  C   LIG    1        0.052   1.267  -0.562  0.00  0.00    +0.130 A 
BRANCH   7  18
ATOM     17  C   LIG    1       -1.151  -1.962   0.745  0.00  0.00    +0.240 C 
ATOM     18  O   LIG    1       -1.171  -0.688   0.098  0.00  0.00    -0.290 OA
ENDBRANCH   7  18
ENDBRANCH   1  10
BRANCH   4  19
ATOM     19  C   LIG    1        7.180   1.347   0.249  0.00  0.00    +0.050 A 
ATOM     20  C   LIG    1        7.312  -0.002   0.259  0.00  0.00    +0.260 A 
ATOM     21  N   LIG    1        8.637  -0.290   0.354  0.00  0.00    -0.450 N 
ATOM     22  H   LIG    1        9.025  -1.179   0.381  0.00  0.00    +0.450 HD
ATOM     23  N   LIG    1        9.343   0.917   0.414  0.00  0.00    -0.250 NA
ATOM     24  C   LIG    1        8.474   1.907   0.352  0.00  0.00    +0.120 A 
BRANCH  24  25
ATOM     25  C   LIG    1        8.796   3.349   0.382  0.00  0.00    +0.140 A 
ATOM     26  N   LIG    1        7.930   4.319   0.313  0.00  0.00    -0.470 NA
ATOM     27  C   LIG    1        8.401   5.545   0.359  0.00  0.00    +0.220 A 
ATOM     28  C   LIG    1        9.729   5.655   0.463  0.00  0.00    -0.070 A 
ATOM     29  S   LIG    1       10.415   4.032   0.511  0.00  0.00    +0.150 S 
ENDBRANCH  24  25
ENDBRANCH   4  19
TORSDOF 4
