REMARK  Name = ZINCvU0000000HAb.0
REMARK                            x       y       z     vdW  Elec       q    Type
REMARK                         _______ _______ _______ _____ _____    ______ ____
ROOT
ATOM      1  O   LIG    1        2.330  -2.751  -0.074  0.00  0.00    -0.490 OA
ATOM      2  C   LIG    1        1.267  -2.160  -0.033  0.00  0.00    +0.550 C 
ATOM      3  N   LIG    1        0.112  -2.854  -0.008  0.00  0.00    -0.670 N 
ATOM      4  H   LIG    1       -0.733  -2.386   0.088  0.00  0.00    +0.410 HD
ENDROOT
BRANCH   2   5
ATOM      5  C   LIG    1        1.243  -0.687  -0.009  0.00  0.00    -0.130 A 
ATOM      6  C   LIG    1        0.025  -0.004   0.038  0.00  0.00    +0.070 A 
ATOM      7  C   LIG    1        0.009   1.373   0.060  0.00  0.00    -0.010 A 
ATOM      8  C   LIG    1        1.196   2.088   0.036  0.00  0.00    +0.070 A 
ATOM      9  C   LIG    1        2.408   1.429  -0.011  0.00  0.00    -0.020 A 
ATOM     10  C   LIG    1        2.445   0.040  -0.034  0.00  0.00    -0.060 A 
BRANCH  10  11
ATOM     11  S   LIG    1        3.990  -0.804  -0.093  0.00  0.00    +0.090 S 
BRANCH  11  12
ATOM     12  C   LIG    1        5.195   0.551  -0.108  0.00  0.00    +0.020 C 
BRANCH  12  13
ATOM     13  C   LIG    1        6.590  -0.017  -0.159  0.00  0.00    +0.550 C 
ATOM     14  N   LIG    1        7.654   0.809  -0.178  0.00  0.00    -0.620 N 
ATOM     15  C   LIG    1        7.599   2.279  -0.160  0.00  0.00    +0.240 C 
ATOM     16  C   LIG    1        9.053   2.793  -0.218  0.00  0.00    +0.040 C 
ATOM     17  C   LIG    1        9.818   1.597  -0.844  0.00  0.00    +0.040 C 
ATOM     18  C   LIG    1        9.067   0.390  -0.226  0.00  0.00    +0.250 C 
ATOM     19  O   LIG    1        6.755  -1.218  -0.182  0.00  0.00    -0.520 OA
ENDBRANCH  12  13
ENDBRANCH  11  12
ENDBRANCH  10  11
ENDBRANCH   2   5
BRANCH   3  20
ATOM     20  C   LIG    1        0.130  -4.249  -0.122  0.00  0.00    +0.150 A 
ATOM     21  C   LIG    1       -0.892  -4.904  -0.796  0.00  0.00    +0.010 A 
ATOM     22  C   LIG    1       -0.871  -6.280  -0.913  0.00  0.00    +0.040 A 
ATOM     23  C   LIG    1        0.166  -7.008  -0.347  0.00  0.00    +0.070 A 
ATOM     24  C   LIG    1        1.185  -6.355   0.330  0.00  0.00    +0.030 A 
ATOM     25  C   LIG    1        1.167  -4.979   0.443  0.00  0.00    +0.050 A 
BRANCH  23  26
ATOM     26  O   LIG    1        0.184  -8.363  -0.458  0.00  0.00    -0.260 OA
BRANCH  26  27
ATOM     27  C   LIG    1       -0.154  -9.097   0.634  0.00  0.00    +0.120 A 
ATOM     28  C   LIG    1       -0.400  -8.467   1.846  0.00  0.00    -0.070 A 
ATOM     29  C   LIG    1       -0.748  -9.215   2.954  0.00  0.00    +0.050 A 
ATOM     30  C   LIG    1       -0.840 -10.592   2.859  0.00  0.00    -0.030 A 
ATOM     31  C   LIG    1       -0.590 -11.223   1.654  0.00  0.00    +0.050 A 
ATOM     32  C   LIG    1       -0.247 -10.479   0.542  0.00  0.00    -0.020 A 
ENDBRANCH  26  27
ENDBRANCH  23  26
ENDBRANCH   3  20
TORSDOF 7
