REMARK  Name = ZINCpe00000VVH56.1
REMARK                            x       y       z     vdW  Elec       q    Type
REMARK                         _______ _______ _______ _____ _____    ______ ____
ROOT
ATOM      1  N   LIG    1        2.429   1.293   0.315  0.00  0.00    -0.680 N 
ATOM      2  H   LIG    1        2.428   0.330   0.433  0.00  0.00    +0.420 HD
ATOM      3  C   LIG    1        1.265   1.955   0.162  0.00  0.00    +0.510 C 
ATOM      4  O   LIG    1        1.267   3.160   0.014  0.00  0.00    -0.520 OA
ENDROOT
BRANCH   3   5
ATOM      5  C   LIG    1       -0.027   1.206   0.176  0.00  0.00    +0.510 C 
ATOM      6  N   LIG    1       -1.191   1.867   0.018  0.00  0.00    -0.640 N 
ATOM      7  H   LIG    1       -1.196   2.837  -0.024  0.00  0.00    +0.420 HD
ATOM      8  O   LIG    1       -0.029   0.002   0.324  0.00  0.00    -0.500 OA
BRANCH   6   9
ATOM      9  C   LIG    1       -2.389   1.157  -0.086  0.00  0.00    +0.140 A 
ATOM     10  C   LIG    1       -3.564   1.695   0.423  0.00  0.00    -0.010 A 
ATOM     11  C   LIG    1       -4.745   0.989   0.318  0.00  0.00    +0.040 A 
ATOM     12  C   LIG    1       -4.765  -0.255  -0.292  0.00  0.00    -0.110 A 
ATOM     13  C   LIG    1       -5.913  -1.212  -0.529  0.00  0.00    +0.080 C 
ATOM     14  C   LIG    1       -5.250  -2.571  -0.838  0.00  0.00    +0.030 C 
ATOM     15  C   LIG    1       -3.881  -2.148  -1.412  0.00  0.00    +0.080 C 
ATOM     16  C   LIG    1       -3.596  -0.793  -0.801  0.00  0.00    -0.080 A 
ATOM     17  C   LIG    1       -2.411  -0.086  -0.703  0.00  0.00    +0.020 A 
ENDBRANCH   6   9
ENDBRANCH   3   5
BRANCH   1  18
ATOM     18  C   LIG    1        3.697   2.028   0.301  0.00  0.00    +0.280 C 
BRANCH  18  20
ATOM     19  C   LIG    1        6.169   1.826   0.604  0.00  0.00    +0.010 C 
ATOM     20  C   LIG    1        4.856   1.048   0.492  0.00  0.00    +0.160 C 
BRANCH  20  21
ATOM     21  N   LIG    1        4.643   0.270   1.720  0.00  0.00    -0.530 NA
ATOM     22  C   LIG    1        4.599   1.147   2.898  0.00  0.00    +0.180 C 
ATOM     23  C   LIG    1        4.297   0.310   4.144  0.00  0.00    +0.180 C 
ATOM     24  N   LIG    1        5.329  -0.724   4.298  0.00  0.00    -0.550 NA
ATOM     25  C   LIG    1        5.373  -1.601   3.120  0.00  0.00    +0.180 C 
ATOM     26  C   LIG    1        5.116  -1.501   5.526  0.00  0.00    +0.190 C 
ATOM     27  C   LIG    1        5.675  -0.764   1.875  0.00  0.00    +0.190 C 
ENDBRANCH  20  21
ENDBRANCH  18  20
ENDBRANCH   1  18
TORSDOF 5
