REMARK  Name = ZINCvU0000000G7v.0
REMARK                            x       y       z     vdW  Elec       q    Type
REMARK                         _______ _______ _______ _____ _____    ______ ____
ROOT
ATOM      1  N   LIG    1        3.589  -5.645  -5.412  0.00  0.00    -0.730 N 
ATOM      2  H   LIG    1        4.436  -5.560  -5.877  0.00  0.00    +0.410 HD
ENDROOT
BRANCH   1   3
ATOM      3  C   LIG    1        3.470  -5.207  -4.091  0.00  0.00    +0.230 A 
ATOM      4  C   LIG    1        4.564  -4.648  -3.442  0.00  0.00    -0.070 A 
ATOM      5  C   LIG    1        4.443  -4.215  -2.136  0.00  0.00    +0.060 A 
ATOM      6  C   LIG    1        3.235  -4.337  -1.475  0.00  0.00    -0.150 A 
ATOM      7  C   LIG    1        2.145  -4.898  -2.116  0.00  0.00    +0.070 A 
ATOM      8  C   LIG    1        2.258  -5.328  -3.424  0.00  0.00    -0.080 A 
BRANCH   6   9
ATOM      9  C   LIG    1        3.106  -3.863  -0.050  0.00  0.00    +0.200 C 
BRANCH   9  10
ATOM     10  C   LIG    1        2.680  -2.418  -0.038  0.00  0.00    +0.110 A 
ATOM     11  N   LIG    1        1.462  -2.027  -0.024  0.00  0.00    -0.470 NA
ATOM     12  C   LIG    1        1.227  -0.701  -0.014  0.00  0.00    +0.080 A 
ATOM     13  C   LIG    1        0.002  -0.004   0.002  0.00  0.00    +0.060 A 
ATOM     14  C   LIG    1       -0.016   1.358   0.009  0.00  0.00    +0.030 A 
ATOM     15  C   LIG    1        1.166   2.084   0.002  0.00  0.00    +0.040 A 
ATOM     16  C   LIG    1        2.377   1.430  -0.013  0.00  0.00    +0.060 A 
ATOM     17  C   LIG    1        2.416   0.037  -0.021  0.00  0.00    -0.190 A 
ATOM     18  S   LIG    1        3.761  -1.098  -0.041  0.00  0.00    +0.100 S 
ENDBRANCH   9  10
ENDBRANCH   6   9
ENDBRANCH   1   3
BRANCH   1  19
ATOM     19  C   LIG    1        2.434  -6.235  -6.095  0.00  0.00    +0.240 C 
ATOM     20  C   LIG    1        2.351  -7.726  -5.762  0.00  0.00    +0.050 C 
BRANCH  19  23
ATOM     21  N   LIG    1        1.640  -6.528  -8.419  0.00  0.00    -0.720 N 
ATOM     22  H   LIG    1        0.858  -6.977  -8.061  0.00  0.00    +0.400 HD
ATOM     23  C   LIG    1        2.589  -6.061  -7.584  0.00  0.00    +0.510 C 
ATOM     24  O   LIG    1        3.567  -5.499  -8.030  0.00  0.00    -0.530 OA
BRANCH  21  25
ATOM     25  C   LIG    1        1.790  -6.359  -9.866  0.00  0.00    +0.330 C 
BRANCH  25  29
ATOM     26  C   LIG    1       -1.578  -8.078 -11.858  0.00  0.00    +0.140 A 
ATOM     27  C   LIG    1       -1.605  -6.746 -11.471  0.00  0.00    -0.020 A 
ATOM     28  C   LIG    1       -0.515  -6.193 -10.827  0.00  0.00    +0.070 A 
ATOM     29  C   LIG    1        0.602  -6.965 -10.569  0.00  0.00    -0.150 A 
ATOM     30  C   LIG    1        0.634  -8.291 -10.959  0.00  0.00    +0.070 A 
ATOM     31  C   LIG    1       -0.456  -8.851 -11.598  0.00  0.00    -0.080 A 
BRANCH  26  33
ATOM     32  C   LIG    1       -2.550 -10.001 -12.862  0.00  0.00    +0.250 C 
ATOM     33  O   LIG    1       -2.648  -8.624 -12.492  0.00  0.00    -0.320 OA
ENDBRANCH  26  33
ENDBRANCH  25  29
ENDBRANCH  21  25
ENDBRANCH  19  23
ENDBRANCH   1  19
TORSDOF 8
