REMARK  Name = ZINCpe00000VVGs8.0
REMARK                            x       y       z     vdW  Elec       q    Type
REMARK                         _______ _______ _______ _____ _____    ______ ____
ROOT
ATOM      1  N   LIG    1       -4.606   6.452   3.526  0.00  0.00    -0.520 N 
ATOM      2  H   LIG    1       -4.251   6.759   2.677  0.00  0.00    +0.430 HD
ATOM      3  C   LIG    1       -5.725   7.009   4.030  0.00  0.00    +0.510 C 
ATOM      4  O   LIG    1       -6.220   6.565   5.044  0.00  0.00    -0.510 OA
ENDROOT
BRANCH   1   6
ATOM      5  C   LIG    1       -2.836   4.872   3.724  0.00  0.00    +0.500 C 
ATOM      6  N   LIG    1       -3.955   5.429   4.228  0.00  0.00    -0.520 N 
ATOM      7  H   LIG    1       -4.310   5.122   5.077  0.00  0.00    +0.430 HD
ATOM      8  O   LIG    1       -2.393   5.256   2.663  0.00  0.00    -0.520 OA
BRANCH   5   9
ATOM      9  C   LIG    1       -2.136   3.772   4.480  0.00  0.00    +0.390 C 
BRANCH   9  16
ATOM     10  C   LIG    1        0.713   4.960   4.767  0.00  0.00    +0.140 C 
ATOM     11  C   LIG    1        0.289   3.847   3.844  0.00  0.00    +0.090 A 
ATOM     12  C   LIG    1        1.089   3.178   2.982  0.00  0.00    -0.120 A 
ATOM     13  C   LIG    1        0.307   2.227   2.318  0.00  0.00    +0.080 A 
ATOM     14  N   LIG    1       -0.920   2.327   2.761  0.00  0.00    -0.290 NA
ATOM     15  C   LIG    1        0.792   1.260   1.268  0.00  0.00    +0.160 C 
ATOM     16  N   LIG    1       -0.955   3.339   3.729  0.00  0.00    -0.360 N 
ENDBRANCH   9  16
ENDBRANCH   5   9
ENDBRANCH   1   6
BRANCH   3  17
ATOM     17  C   LIG    1       -6.362   8.183   3.332  0.00  0.00    +0.180 C 
BRANCH  17  18
ATOM     18  C   LIG    1       -6.858   7.748   1.951  0.00  0.00    -0.020 C 
ATOM     19  C   LIG    1       -7.378   8.969   1.189  0.00  0.00    +0.030 C 
ATOM     20  C   LIG    1       -7.987   6.729   2.112  0.00  0.00    +0.040 C 
ENDBRANCH  17  18
BRANCH  17  21
ATOM     21  O   LIG    1       -7.466   8.656   4.107  0.00  0.00    -0.330 OA
BRANCH  21  22
ATOM     22  C   LIG    1       -7.440  10.063   4.357  0.00  0.00    +0.180 C 
BRANCH  22  23
ATOM     23  C   LIG    1       -8.595  10.436   5.289  0.00  0.00    +0.160 C 
ATOM     24  C   LIG    1       -8.553  11.950   5.617  0.00  0.00    +0.020 C 
ATOM     25  C   LIG    1      -10.042  12.217   5.966  0.00  0.00    +0.000 C 
ATOM     26  C   LIG    1      -10.781  11.253   5.013  0.00  0.00    +0.190 C 
ATOM     27  O   LIG    1       -9.854  10.230   4.629  0.00  0.00    -0.370 OA
ENDBRANCH  22  23
ENDBRANCH  21  22
ENDBRANCH  17  21
ENDBRANCH   3  17
TORSDOF 8
