REMARK  Name = ZINCpe000000URVk.0
REMARK                            x       y       z     vdW  Elec       q    Type
REMARK                         _______ _______ _______ _____ _____    ______ ____
ROOT
ATOM      1  N   LIG    1       -2.369   2.029   5.033  0.00  0.00    -0.710 N 
ATOM      2  H   LIG    1       -1.901   2.799   5.391  0.00  0.00    +0.400 HD
ATOM      3  C   LIG    1       -3.474   1.565   5.650  0.00  0.00    +0.560 C 
ATOM      4  O   LIG    1       -4.008   0.548   5.255  0.00  0.00    -0.520 OA
ENDROOT
BRANCH   3   5
ATOM      5  C   LIG    1       -4.038   2.297   6.810  0.00  0.00    -0.030 A 
ATOM      6  C   LIG    1       -3.382   3.368   7.346  0.00  0.00    +0.000 A 
ATOM      7  C   LIG    1       -3.963   4.068   8.489  0.00  0.00    +0.540 A 
ATOM      8  N   LIG    1       -5.133   3.674   9.021  0.00  0.00    -0.630 N 
ATOM      9  H   LIG    1       -5.497   4.156   9.779  0.00  0.00    +0.420 HD
ATOM     10  C   LIG    1       -5.826   2.597   8.510  0.00  0.00    +0.180 A 
ATOM     11  C   LIG    1       -7.037   2.204   9.075  0.00  0.00    -0.030 A 
ATOM     12  C   LIG    1       -7.727   1.137   8.543  0.00  0.00    +0.070 A 
ATOM     13  C   LIG    1       -7.220   0.437   7.457  0.00  0.00    -0.020 A 
ATOM     14  C   LIG    1       -6.031   0.801   6.891  0.00  0.00    +0.110 A 
ATOM     15  O   LIG    1       -3.379   5.025   8.967  0.00  0.00    -0.520 OA
ATOM     16  C   LIG    1       -5.319   1.888   7.406  0.00  0.00    -0.110 A 
ENDBRANCH   3   5
BRANCH   1  20
ATOM     17  N   LIG    1       -0.607   1.565   1.234  0.00  0.00    -0.520 NA
ATOM     18  C   LIG    1       -2.045   1.287   1.331  0.00  0.00    +0.180 C 
ATOM     19  C   LIG    1       -2.607   1.934   2.599  0.00  0.00    +0.030 C 
ATOM     20  C   LIG    1       -1.876   1.371   3.821  0.00  0.00    +0.230 C 
ATOM     21  C   LIG    1       -0.374   1.631   3.672  0.00  0.00    +0.040 C 
ATOM     22  C   LIG    1        0.123   0.993   2.373  0.00  0.00    +0.180 C 
BRANCH  17  23
ATOM     23  C   LIG    1       -0.061   1.078  -0.040  0.00  0.00    +0.210 C 
BRANCH  23  27
ATOM     24  C   LIG    1        3.446   1.708  -1.440  0.00  0.00    +0.290 C 
ATOM     25  N   LIG    1        2.088   1.189  -1.260  0.00  0.00    -0.740 N 
ATOM     26  H   LIG    1        1.729   0.542  -1.887  0.00  0.00    +0.400 HD
ATOM     27  C   LIG    1        1.337   1.611  -0.224  0.00  0.00    +0.510 C 
ATOM     28  O   LIG    1        1.785   2.421   0.560  0.00  0.00    -0.520 OA
ENDBRANCH  23  27
ENDBRANCH  17  23
ENDBRANCH   1  20
TORSDOF 4
