REMARK  Name = ZINCqH0000008w1G.1
REMARK                            x       y       z     vdW  Elec       q    Type
REMARK                         _______ _______ _______ _____ _____    ______ ____
ROOT
ATOM      1  C   LIG    1        0.090   4.196   1.332  0.00  0.00    +0.110 C 
ATOM      2  C   LIG    1       -0.685   4.001   0.027  0.00  0.00    +0.120 C 
ENDROOT
BRANCH   2   3
ATOM      3  C   LIG    1       -1.753   5.059  -0.086  0.00  0.00    +0.470 A 
ATOM      4  N   LIG    1       -1.424   6.218  -0.585  0.00  0.00    -0.580 NA
ATOM      5  C   LIG    1       -2.321   7.213  -0.718  0.00  0.00    +0.540 A 
ATOM      6  C   LIG    1       -3.706   6.960  -0.280  0.00  0.00    -0.210 A 
ATOM      7  C   LIG    1       -4.701   7.930  -0.378  0.00  0.00    +0.120 A 
ATOM      8  C   LIG    1       -5.978   7.635   0.048  0.00  0.00    -0.010 A 
ATOM      9  C   LIG    1       -6.275   6.386   0.572  0.00  0.00    +0.090 A 
ATOM     10  C   LIG    1       -5.299   5.416   0.676  0.00  0.00    -0.020 A 
ATOM     11  C   LIG    1       -4.007   5.693   0.252  0.00  0.00    +0.170 A 
ATOM     12  O   LIG    1       -1.998   8.290  -1.186  0.00  0.00    -0.470 OA
ATOM     13  N   LIG    1       -2.995   4.756   0.329  0.00  0.00    -0.620 N 
ATOM     14  H   LIG    1       -3.182   3.875   0.688  0.00  0.00    +0.420 HD
ENDBRANCH   2   3
BRANCH   2  15
ATOM     15  S   LIG    1       -1.456   2.363   0.022  0.00  0.00    +0.020 S 
BRANCH  15  16
ATOM     16  C   LIG    1       -0.016   1.347   0.009  0.00  0.00    +0.270 A 
ATOM     17  N   LIG    1        1.228   1.772  -0.000  0.00  0.00    -0.520 NA
ATOM     18  C   LIG    1        2.062   0.722  -0.014  0.00  0.00    +0.280 A 
ATOM     19  N   LIG    1        1.354  -0.385  -0.013  0.00  0.00    -0.270 NA
ATOM     20  N   LIG    1        0.002  -0.004   0.002  0.00  0.00    -0.450 N 
ATOM     21  H   LIG    1       -0.767  -0.595   0.006  0.00  0.00    +0.450 HD
BRANCH  18  22
ATOM     22  C   LIG    1        3.544   0.797  -0.028  0.00  0.00    -0.060 A 
ATOM     23  C   LIG    1        4.181   2.036  -0.033  0.00  0.00    +0.100 A 
ATOM     24  C   LIG    1        5.560   2.100  -0.041  0.00  0.00    +0.010 A 
ATOM     25  C   LIG    1        6.311   0.938  -0.054  0.00  0.00    +0.070 A 
ATOM     26  C   LIG    1        5.685  -0.295  -0.054  0.00  0.00    -0.020 A 
ATOM     27  C   LIG    1        4.305  -0.373  -0.041  0.00  0.00    +0.130 A 
ATOM     28  F   LIG    1        3.694  -1.578  -0.041  0.00  0.00    -0.120 F 
ENDBRANCH  18  22
ENDBRANCH  15  16
ENDBRANCH   2  15
TORSDOF 4
