REMARK  Name = ZINCqH0000008w1G.0
REMARK                            x       y       z     vdW  Elec       q    Type
REMARK                         _______ _______ _______ _____ _____    ______ ____
ROOT
ATOM      1  C   LIG    1        3.950   2.656   1.414  0.00  0.00    +0.100 C 
ATOM      2  C   LIG    1        3.571   2.285  -0.021  0.00  0.00    +0.090 C 
ENDROOT
BRANCH   2   3
ATOM      3  C   LIG    1        2.298   1.479  -0.012  0.00  0.00    +0.480 A 
ATOM      4  N   LIG    1        1.162   2.119   0.002  0.00  0.00    -0.580 NA
ATOM      5  C   LIG    1       -0.018   1.470   0.010  0.00  0.00    +0.540 A 
ATOM      6  C   LIG    1        0.002  -0.004   0.002  0.00  0.00    -0.210 A 
ATOM      7  C   LIG    1       -1.168  -0.760   0.010  0.00  0.00    +0.110 A 
ATOM      8  C   LIG    1       -1.086  -2.135   0.001  0.00  0.00    -0.010 A 
ATOM      9  C   LIG    1        0.150  -2.767  -0.013  0.00  0.00    +0.090 A 
ATOM     10  C   LIG    1        1.317  -2.031  -0.021  0.00  0.00    -0.020 A 
ATOM     11  C   LIG    1        1.255  -0.645  -0.013  0.00  0.00    +0.170 A 
ATOM     12  O   LIG    1       -1.071   2.083   0.018  0.00  0.00    -0.470 OA
ATOM     13  N   LIG    1        2.392   0.138  -0.020  0.00  0.00    -0.620 N 
ATOM     14  H   LIG    1        3.266  -0.283  -0.031  0.00  0.00    +0.420 HD
ENDBRANCH   2   3
BRANCH   2  15
ATOM     15  S   LIG    1        4.904   1.302  -0.762  0.00  0.00    +0.040 S 
BRANCH  15  16
ATOM     16  C   LIG    1        6.248   2.438  -0.823  0.00  0.00    +0.220 A 
ATOM     17  N   LIG    1        6.211   3.686  -0.414  0.00  0.00    -0.300 NA
ATOM     18  N   LIG    1        7.487   4.229  -0.638  0.00  0.00    -0.460 N 
ATOM     19  H   LIG    1        7.777   5.133  -0.439  0.00  0.00    +0.450 HD
ATOM     20  C   LIG    1        8.228   3.244  -1.193  0.00  0.00    +0.340 A 
ATOM     21  N   LIG    1        7.467   2.172  -1.297  0.00  0.00    -0.490 NA
BRANCH  20  22
ATOM     22  C   LIG    1        9.644   3.349  -1.609  0.00  0.00    -0.080 A 
ATOM     23  C   LIG    1       10.334   4.551  -1.447  0.00  0.00    +0.060 A 
ATOM     24  C   LIG    1       11.656   4.641  -1.832  0.00  0.00    +0.010 A 
ATOM     25  C   LIG    1       12.295   3.548  -2.389  0.00  0.00    +0.080 A 
ATOM     26  C   LIG    1       11.617   2.354  -2.558  0.00  0.00    -0.010 A 
ATOM     27  C   LIG    1       10.294   2.247  -2.171  0.00  0.00    +0.160 A 
ATOM     28  F   LIG    1        9.632   1.081  -2.336  0.00  0.00    -0.110 F 
ENDBRANCH  20  22
ENDBRANCH  15  16
ENDBRANCH   2  15
TORSDOF 4
