REMARK  Name = ZINCrH000004lZpo.0
REMARK                            x       y       z     vdW  Elec       q    Type
REMARK                         _______ _______ _______ _____ _____    ______ ____
ROOT
ATOM      1  C   LIG    1        3.166  -0.214   3.941  0.00  0.00    +0.570 C 
ATOM      2  N   LIG    1        3.276  -1.168   4.887  0.00  0.00    -0.670 N 
ATOM      3  H   LIG    1        2.594  -1.254   5.571  0.00  0.00    +0.410 HD
ATOM      4  O   LIG    1        4.066  -0.043   3.142  0.00  0.00    -0.510 OA
ENDROOT
BRANCH   1   7
ATOM      5  C   LIG    1        0.700   2.397   2.842  0.00  0.00    +0.120 A 
ATOM      6  C   LIG    1        1.835   1.611   2.895  0.00  0.00    +0.030 A 
ATOM      7  C   LIG    1        1.952   0.624   3.877  0.00  0.00    -0.090 A 
ATOM      8  C   LIG    1        0.918   0.429   4.795  0.00  0.00    +0.040 A 
ATOM      9  C   LIG    1       -0.215   1.213   4.733  0.00  0.00    -0.030 A 
ATOM     10 CL   LIG    1       -1.500   0.970   5.875  0.00  0.00    -0.030 Cl
ATOM     11  C   LIG    1       -0.330   2.198   3.760  0.00  0.00    +0.100 A 
BRANCH   5  13
ATOM     12  C   LIG    1        1.678   3.511   0.982  0.00  0.00    +0.250 C 
ATOM     13  O   LIG    1        0.585   3.362   1.890  0.00  0.00    -0.300 OA
ENDBRANCH   5  13
BRANCH  11  14
ATOM     14  O   LIG    1       -1.447   2.967   3.703  0.00  0.00    -0.310 OA
ATOM     15  C   LIG    1       -2.521   2.494   2.888  0.00  0.00    +0.230 C 
ENDBRANCH  11  14
ENDBRANCH   1   7
BRANCH   2  16
ATOM     16  C   LIG    1        4.374  -2.035   4.880  0.00  0.00    +0.140 A 
ATOM     17  C   LIG    1        4.944  -2.426   3.677  0.00  0.00    +0.020 A 
ATOM     18  C   LIG    1        6.032  -3.278   3.674  0.00  0.00    +0.030 A 
ATOM     19  C   LIG    1        6.545  -3.749   4.869  0.00  0.00    +0.000 A 
ATOM     20  C   LIG    1        5.976  -3.365   6.069  0.00  0.00    -0.090 A 
ATOM     21  C   LIG    1        4.892  -2.510   6.079  0.00  0.00    +0.010 A 
BRANCH  20  22
ATOM     22  C   LIG    1        6.539  -3.882   7.368  0.00  0.00    +0.350 C 
BRANCH  22  23
ATOM     23  N   LIG    1        5.866  -5.131   7.730  0.00  0.00    -0.620 N 
ATOM     24  C   LIG    1        6.322  -6.466   7.322  0.00  0.00    +0.250 C 
ATOM     25  C   LIG    1        5.112  -7.400   7.543  0.00  0.00    +0.040 C 
ATOM     26  C   LIG    1        4.328  -6.647   8.643  0.00  0.00    +0.040 C 
ATOM     27  C   LIG    1        4.754  -5.204   8.482  0.00  0.00    +0.520 C 
ATOM     28  O   LIG    1        4.175  -4.252   8.960  0.00  0.00    -0.530 OA
ENDBRANCH  22  23
ENDBRANCH  20  22
ENDBRANCH   2  16
TORSDOF 6
