REMARK  Name = ZINCqH0000008sBG.0
REMARK                            x       y       z     vdW  Elec       q    Type
REMARK                         _______ _______ _______ _____ _____    ______ ____
ROOT
ATOM      1  C   LIG    1       -1.809   0.870  -1.672  0.00  0.00    +0.250 A 
ATOM      2  C   LIG    1       -2.304   1.150  -2.934  0.00  0.00    -0.230 A 
ATOM      3  C   LIG    1       -3.394   0.412  -3.416  0.00  0.00    +0.530 A 
ATOM      4  N   LIG    1       -3.938  -0.552  -2.647  0.00  0.00    -0.370 N 
ATOM      5  N   LIG    1       -3.424  -0.820  -1.374  0.00  0.00    -0.180 NA
ATOM      6  O   LIG    1       -3.848   0.642  -4.527  0.00  0.00    -0.510 OA
ATOM      7 CL   LIG    1       -1.585   2.397  -3.905  0.00  0.00    -0.020 Cl
ATOM      8  C   LIG    1       -2.407  -0.152  -0.905  0.00  0.00    +0.260 A 
ENDROOT
BRANCH   4   9
ATOM      9  C   LIG    1       -5.026  -1.290  -3.126  0.00  0.00    +0.140 A 
ATOM     10  C   LIG    1       -6.119  -0.637  -3.681  0.00  0.00    +0.040 A 
ATOM     11  C   LIG    1       -7.189  -1.369  -4.157  0.00  0.00    +0.020 A 
ATOM     12  C   LIG    1       -7.178  -2.749  -4.072  0.00  0.00    +0.020 A 
ATOM     13  C   LIG    1       -6.093  -3.402  -3.515  0.00  0.00    +0.020 A 
ATOM     14  C   LIG    1       -5.018  -2.676  -3.042  0.00  0.00    +0.030 A 
ENDBRANCH   4   9
BRANCH   1  15
ATOM     15  N   LIG    1       -0.733   1.582  -1.170  0.00  0.00    -0.700 N 
ATOM     16  H   LIG    1       -0.322   2.281  -1.703  0.00  0.00    +0.410 HD
BRANCH  15  18
ATOM     17  C   LIG    1       -1.024   2.048   1.214  0.00  0.00    +0.050 C 
ATOM     18  C   LIG    1       -0.214   1.280   0.167  0.00  0.00    +0.280 C 
BRANCH  18  19
ATOM     19  C   LIG    1        1.233   1.692   0.249  0.00  0.00    -0.090 A 
ATOM     20  C   LIG    1        1.649   2.869  -0.343  0.00  0.00    +0.040 A 
ATOM     21  C   LIG    1        2.977   3.252  -0.270  0.00  0.00    +0.050 A 
ATOM     22  C   LIG    1        3.892   2.454   0.396  0.00  0.00    +0.040 A 
ATOM     23  O   LIG    1        5.232   2.599   0.609  0.00  0.00    -0.310 OA
ATOM     24  C   LIG    1        5.705   1.292   0.987  0.00  0.00    +0.440 C 
ATOM     25  O   LIG    1        4.550   0.669   1.579  0.00  0.00    -0.310 OA
ATOM     26  C   LIG    1        3.472   1.267   0.993  0.00  0.00    +0.040 A 
ATOM     27  C   LIG    1        2.140   0.894   0.921  0.00  0.00    +0.050 A 
ENDBRANCH  18  19
ENDBRANCH  15  18
ENDBRANCH   1  15
TORSDOF 4
