REMARK  Name = ZINCpk00001AZj35.0
REMARK                            x       y       z     vdW  Elec       q    Type
REMARK                         _______ _______ _______ _____ _____    ______ ____
ROOT
ATOM      1  N   LIG    1       -1.584   1.101  -1.758  0.00  0.00    -0.610 N 
ATOM      2  C   LIG    1       -0.441   1.517  -1.179  0.00  0.00    +0.500 C 
ATOM      3  O   LIG    1        0.154   2.473  -1.629  0.00  0.00    -0.500 OA
ENDROOT
BRANCH   2   4
ATOM      4  C   LIG    1        0.099   0.795   0.029  0.00  0.00    +0.280 C 
ATOM      5  C   LIG    1       -0.673   1.236   1.274  0.00  0.00    +0.060 C 
BRANCH   4   6
ATOM      6  N   LIG    1        1.518   1.114   0.196  0.00  0.00    -0.630 N 
ATOM      7  C   LIG    1        2.618   0.138   0.186  0.00  0.00    +0.250 C 
ATOM      8  C   LIG    1        3.879   1.000   0.397  0.00  0.00    +0.250 C 
ATOM      9  N   LIG    1        3.354   2.369   0.511  0.00  0.00    -0.750 N 
ATOM     10  H   LIG    1        3.889   3.166   0.654  0.00  0.00    +0.430 HD
ATOM     11  C   LIG    1        2.021   2.341   0.387  0.00  0.00    +0.710 C 
ATOM     12  O   LIG    1        1.329   3.340   0.442  0.00  0.00    -0.560 OA
ENDBRANCH   4   6
ENDBRANCH   2   4
BRANCH   1  13
ATOM     13  C   LIG    1       -2.040   1.719  -3.006  0.00  0.00    +0.370 C 
BRANCH  13  16
ATOM     14  C   LIG    1       -2.956  -0.877  -4.491  0.00  0.00    +0.140 C 
ATOM     15  C   LIG    1       -1.737  -0.052  -4.815  0.00  0.00    +0.100 A 
ATOM     16  C   LIG    1       -1.340   1.071  -4.173  0.00  0.00    -0.260 A 
ATOM     17  C   LIG    1       -0.169   1.526  -4.787  0.00  0.00    +0.250 A 
ATOM     18  N   LIG    1        0.132   0.701  -5.757  0.00  0.00    -0.300 NA
ATOM     19  N   LIG    1       -0.846  -0.302  -5.797  0.00  0.00    -0.370 N 
ATOM     20  C   LIG    1       -0.891  -1.423  -6.738  0.00  0.00    +0.360 C 
ENDBRANCH  13  16
ENDBRANCH   1  13
BRANCH   1  21
ATOM     21  C   LIG    1       -2.370   0.030  -1.141  0.00  0.00    +0.270 C 
BRANCH  21  22
ATOM     22  C   LIG    1       -3.488   0.642  -0.293  0.00  0.00    +0.000 C 
ATOM     23  C   LIG    1       -4.493   1.345  -1.176  0.00  0.00    -0.040 C 
ATOM     24  C   LIG    1       -5.715   1.056  -0.819  0.00  0.00    -0.040 C 
ATOM     25  C   LIG    1       -5.728   0.112   0.361  0.00  0.00    +0.050 C 
ATOM     26  C   LIG    1       -4.296  -0.469   0.415  0.00  0.00    +0.030 C 
ENDBRANCH  21  22
ENDBRANCH   1  21
TORSDOF 6
