REMARK  Name = ZINCvU0000000AUp.0
REMARK                            x       y       z     vdW  Elec       q    Type
REMARK                         _______ _______ _______ _____ _____    ______ ____
ROOT
ATOM      1  N   LIG    1        1.039   7.494   0.036  0.00  0.00    -0.660 N 
ATOM      2  H   LIG    1        1.512   6.795   0.514  0.00  0.00    +0.410 HD
ATOM      3  C   LIG    1       -0.148   7.230  -0.544  0.00  0.00    +0.600 C 
ATOM      4  O   LIG    1       -0.781   8.126  -1.072  0.00  0.00    -0.520 OA
ENDROOT
BRANCH   1  17
ATOM      5  C   LIG    1        2.973   8.936  -0.151  0.00  0.00    +0.090 A 
ATOM      6  C   LIG    1        3.520  10.201  -0.236  0.00  0.00    +0.000 A 
ATOM      7  C   LIG    1        2.687  11.317  -0.220  0.00  0.00    -0.100 A 
ATOM      8  C   LIG    1        1.297  11.163  -0.117  0.00  0.00    +0.070 A 
ATOM      9  O   LIG    1        0.728  12.390  -0.123  0.00  0.00    -0.200 OA
ATOM     10  C   LIG    1        1.656  13.367  -0.223  0.00  0.00    +0.090 A 
ATOM     11  C   LIG    1        1.555  14.752  -0.267  0.00  0.00    +0.020 A 
ATOM     12  C   LIG    1        2.691  15.525  -0.374  0.00  0.00    +0.060 A 
ATOM     13  C   LIG    1        3.943  14.934  -0.440  0.00  0.00    -0.010 A 
ATOM     14  C   LIG    1        4.064  13.561  -0.398  0.00  0.00    +0.070 A 
ATOM     15  C   LIG    1        0.758   9.885  -0.038  0.00  0.00    +0.080 A 
ATOM     16  C   LIG    1        2.924  12.771  -0.290  0.00  0.00    -0.120 A 
ATOM     17  C   LIG    1        1.589   8.779  -0.049  0.00  0.00    +0.160 A 
BRANCH   5  19
ATOM     18  C   LIG    1        5.188   8.077  -0.274  0.00  0.00    +0.250 C 
ATOM     19  O   LIG    1        3.783   7.842  -0.168  0.00  0.00    -0.310 OA
ENDBRANCH   5  19
ENDBRANCH   1  17
BRANCH   3  20
ATOM     20  C   LIG    1       -0.660   5.907  -0.540  0.00  0.00    -0.340 A 
ATOM     21  C   LIG    1       -1.848   5.517  -1.095  0.00  0.00    +0.150 A 
ATOM     22  C   LIG    1       -2.103   4.177  -0.956  0.00  0.00    -0.050 A 
ATOM     23  C   LIG    1       -1.144   3.483  -0.289  0.00  0.00    +0.030 A 
ATOM     24  S   LIG    1        0.133   4.513   0.179  0.00  0.00    +0.330 S 
BRANCH  23  25
ATOM     25  N   LIG    1       -1.194   2.120  -0.029  0.00  0.00    -0.620 N 
ATOM     26  H   LIG    1       -1.955   1.597  -0.327  0.00  0.00    +0.430 HD
ATOM     27  C   LIG    1       -0.186   1.524   0.637  0.00  0.00    +0.600 C 
ATOM     28  O   LIG    1        0.771   2.179   1.007  0.00  0.00    -0.480 OA
BRANCH  27  29
ATOM     29  C   LIG    1       -0.239   0.085   0.912  0.00  0.00    -0.090 A 
ATOM     30  C   LIG    1        0.713  -0.643   1.569  0.00  0.00    +0.070 A 
ATOM     31  C   LIG    1        0.253  -1.968   1.605  0.00  0.00    -0.070 A 
ATOM     32  C   LIG    1       -0.943  -1.992   0.976  0.00  0.00    +0.230 A 
ATOM     33  O   LIG    1       -1.238  -0.752   0.565  0.00  0.00    -0.170 OA
ENDBRANCH  27  29
ENDBRANCH  23  25
ENDBRANCH   3  20
TORSDOF 5
