REMARK  Name = ZINCpk00000KfLsy.0
REMARK                            x       y       z     vdW  Elec       q    Type
REMARK                         _______ _______ _______ _____ _____    ______ ____
ROOT
ATOM      1  N   LIG    1       -0.693   2.997   1.254  0.00  0.00    -0.530 NA
ATOM      2  C   LIG    1       -0.179   1.636   1.047  0.00  0.00    +0.200 C 
ATOM      3  C   LIG    1        0.743   1.621  -0.174  0.00  0.00    +0.180 C 
ATOM      4  N   LIG    1       -0.002   2.084  -1.353  0.00  0.00    -0.520 NA
ATOM      5  C   LIG    1       -0.515   3.446  -1.147  0.00  0.00    +0.190 C 
ATOM      6  C   LIG    1       -1.438   3.461   0.075  0.00  0.00    +0.180 C 
ENDROOT
BRANCH   4   7
ATOM      7  C   LIG    1        0.829   2.013  -2.562  0.00  0.00    +0.180 C 
ATOM      8  C   LIG    1        2.191   2.652  -2.284  0.00  0.00    +0.030 C 
BRANCH   7   9
ATOM      9  C   LIG    1        1.022   0.571  -2.955  0.00  0.00    +0.520 C 
ATOM     10  N   LIG    1        1.651   0.264  -4.107  0.00  0.00    -0.710 N 
ATOM     11  H   LIG    1        1.980   0.972  -4.683  0.00  0.00    +0.400 HD
ATOM     12  O   LIG    1        0.611  -0.314  -2.235  0.00  0.00    -0.520 OA
BRANCH  10  13
ATOM     13  C   LIG    1        1.838  -1.138  -4.488  0.00  0.00    +0.220 C 
ATOM     14  C   LIG    1        3.207  -1.543  -5.040  0.00  0.00    +0.010 C 
ATOM     15  C   LIG    1        2.001  -1.449  -5.978  0.00  0.00    +0.010 C 
ENDBRANCH  10  13
ENDBRANCH   7   9
ENDBRANCH   4   7
BRANCH   1  16
ATOM     16  C   LIG    1       -1.524   3.069   2.463  0.00  0.00    +0.160 C 
BRANCH  16  17
ATOM     17  C   LIG    1       -0.748   2.493   3.649  0.00  0.00    +0.180 C 
ATOM     18  C   LIG    1        0.619   3.174   3.744  0.00  0.00    +0.080 C 
BRANCH  17  23
ATOM     19  C   LIG    1       -3.708   3.431   8.523  0.00  0.00    +0.090 C 
ATOM     20  C   LIG    1       -2.936   3.187   7.252  0.00  0.00    -0.080 A 
ATOM     21  C   LIG    1       -2.118   2.077   7.143  0.00  0.00    +0.000 A 
ATOM     22  C   LIG    1       -1.411   1.853   5.977  0.00  0.00    +0.030 A 
ATOM     23  C   LIG    1       -1.520   2.737   4.920  0.00  0.00    -0.120 A 
ATOM     24  C   LIG    1       -2.334   3.850   5.032  0.00  0.00    +0.010 A 
ATOM     25  C   LIG    1       -3.046   4.071   6.196  0.00  0.00    +0.000 A 
ENDBRANCH  17  23
BRANCH  17  26
ATOM     26  O   LIG    1       -0.569   1.087   3.464  0.00  0.00    -0.550 OA
ATOM     27  H   LIG    1       -1.396   0.591   3.396  0.00  0.00    +0.380 HD
ENDBRANCH  17  26
ENDBRANCH  16  17
ENDBRANCH   1  16
TORSDOF 7
