REMARK  Name = ZINCtV000002qWVB.0
REMARK                            x       y       z     vdW  Elec       q    Type
REMARK                         _______ _______ _______ _____ _____    ______ ____
ROOT
ATOM      1  C   LIG    1        0.155  -5.247  -2.104  0.00  0.00    +0.000 C 
ATOM      2  C   LIG    1       -1.303  -4.783  -2.102  0.00  0.00    +0.020 C 
ATOM      3  C   LIG    1       -1.785  -4.620  -3.547  0.00  0.00    +0.280 C 
ATOM      4  N   LIG    1       -1.554  -5.880  -4.266  0.00  0.00    -0.610 N 
ATOM      5  C   LIG    1       -0.205  -6.462  -4.256  0.00  0.00    +0.260 C 
ATOM      6  C   LIG    1       -2.560  -6.489  -4.924  0.00  0.00    +0.580 C 
ATOM      7  O   LIG    1       -3.693  -6.054  -4.841  0.00  0.00    -0.500 OA
ATOM      8  C   LIG    1        0.259  -6.604  -2.803  0.00  0.00    +0.030 C 
ENDROOT
BRANCH   6   9
ATOM      9  C   LIG    1       -2.289  -7.679  -5.741  0.00  0.00    +0.050 A 
ATOM     10  C   LIG    1       -3.123  -8.747  -5.879  0.00  0.00    -0.040 A 
ATOM     11  C   LIG    1       -2.461  -9.690  -6.777  0.00  0.00    -0.100 A 
ATOM     12  C   LIG    1       -2.811 -10.943  -7.290  0.00  0.00    +0.100 A 
ATOM     13  C   LIG    1       -1.951 -11.597  -8.127  0.00  0.00    -0.060 A 
ATOM     14  C   LIG    1       -0.731 -11.027  -8.472  0.00  0.00    +0.070 A 
ATOM     15  C   LIG    1       -0.367  -9.794  -7.979  0.00  0.00    +0.020 A 
ATOM     16 CL   LIG    1       -2.385 -13.152  -8.764  0.00  0.00    -0.060 Cl
ATOM     17  C   LIG    1       -1.226  -9.108  -7.124  0.00  0.00    +0.130 A 
ATOM     18 CL   LIG    1       -4.677  -8.947  -5.132  0.00  0.00    -0.010 Cl
ATOM     19  N   LIG    1       -1.145  -7.894  -6.486  0.00  0.00    -0.570 N 
ATOM     20  H   LIG    1       -0.397  -7.279  -6.548  0.00  0.00    +0.430 HD
ENDBRANCH   6   9
BRANCH   1  21
ATOM     21  C   LIG    1        0.651  -5.376  -0.662  0.00  0.00    +0.150 C 
BRANCH  21  25
ATOM     22  C   LIG    1       -0.142  -2.295   1.144  0.00  0.00    +0.090 A 
ATOM     23  C   LIG    1        1.065  -1.771   0.912  0.00  0.00    -0.080 A 
ATOM     24  S   LIG    1        1.993  -2.940  -0.025  0.00  0.00    +0.110 S 
ATOM     25  C   LIG    1        0.665  -4.017  -0.012  0.00  0.00    +0.050 A 
ATOM     26  N   LIG    1       -0.321  -3.500   0.640  0.00  0.00    -0.460 NA
BRANCH  22  28
ATOM     27  C   LIG    1       -0.726  -0.159   2.260  0.00  0.00    +0.040 C 
ATOM     28  C   LIG    1       -1.210  -1.571   1.922  0.00  0.00    +0.010 C 
ATOM     29  C   LIG    1       -2.485  -1.485   1.081  0.00  0.00    +0.030 C 
ATOM     30  C   LIG    1       -1.503  -2.333   3.216  0.00  0.00    +0.030 C 
ENDBRANCH  22  28
ENDBRANCH  21  25
ENDBRANCH   1  21
TORSDOF 4
