REMARK  Name = ZINCvU00000003JZ.0
REMARK                            x       y       z     vdW  Elec       q    Type
REMARK                         _______ _______ _______ _____ _____    ______ ____
ROOT
ATOM      1  N   LIG    1       -2.468   1.203   0.169  0.00  0.00    -0.410 N 
ATOM      2  C   LIG    1       -2.886   0.272   1.080  0.00  0.00    +0.160 A 
ATOM      3  N   LIG    1       -4.128  -0.035   0.781  0.00  0.00    -0.290 NA
ATOM      4  N   LIG    1       -4.514   0.635  -0.245  0.00  0.00    -0.260 NA
ATOM      5  C   LIG    1       -3.544   1.416  -0.663  0.00  0.00    +0.240 A 
ENDROOT
BRANCH   1  10
ATOM      6  C   LIG    1        2.625   3.691  -0.118  0.00  0.00    +0.110 C 
ATOM      7  C   LIG    1        1.273   3.030  -0.039  0.00  0.00    -0.060 A 
ATOM      8  C   LIG    1        0.161   3.774   0.307  0.00  0.00    +0.040 A 
ATOM      9  C   LIG    1       -1.080   3.171   0.381  0.00  0.00    +0.030 A 
ATOM     10  C   LIG    1       -1.210   1.817   0.101  0.00  0.00    +0.090 A 
ATOM     11  C   LIG    1       -0.090   1.071  -0.242  0.00  0.00    +0.050 A 
ATOM     12  C   LIG    1        1.148   1.680  -0.314  0.00  0.00    -0.070 A 
ATOM     13  C   LIG    1        2.363   0.873  -0.691  0.00  0.00    +0.110 C 
ENDBRANCH   1  10
BRANCH   5  14
ATOM     14  C   LIG    1       -3.597   2.345  -1.812  0.00  0.00    -0.030 A 
ATOM     15  C   LIG    1       -4.827   2.736  -2.341  0.00  0.00    +0.070 A 
ATOM     16  C   LIG    1       -4.870   3.608  -3.410  0.00  0.00    +0.010 A 
ATOM     17  C   LIG    1       -3.695   4.085  -3.964  0.00  0.00    +0.030 A 
ATOM     18  C   LIG    1       -2.471   3.696  -3.448  0.00  0.00    +0.010 A 
ATOM     19  C   LIG    1       -2.415   2.829  -2.376  0.00  0.00    +0.030 A 
ENDBRANCH   5  14
BRANCH   2  20
ATOM     20  S   LIG    1       -1.935  -0.394   2.406  0.00  0.00    +0.180 S 
BRANCH  20  21
ATOM     21  C   LIG    1       -3.063  -1.602   3.015  0.00  0.00    -0.070 A 
ATOM     22  C   LIG    1       -3.788  -1.351   4.179  0.00  0.00    +0.100 A 
ATOM     23  C   LIG    1       -4.667  -2.282   4.652  0.00  0.00    +0.130 A 
ATOM     24  C   LIG    1       -4.832  -3.496   3.972  0.00  0.00    -0.160 A 
ATOM     25  C   LIG    1       -4.097  -3.747   2.805  0.00  0.00    +0.160 A 
ATOM     26  C   LIG    1       -3.225  -2.808   2.336  0.00  0.00    +0.000 A 
BRANCH  26  27
ATOM     27  N   LIG    1       -2.447  -3.071   1.103  0.00  0.00    +0.020 N 
ATOM     28  O   LIG    1       -1.668  -2.235   0.683  0.00  0.00    -0.130 OA
ATOM     29  O   LIG    1       -2.587  -4.125   0.508  0.00  0.00    -0.150 OA
ENDBRANCH  26  27
BRANCH  24  30
ATOM     30  C   LIG    1       -5.771  -4.503   4.480  0.00  0.00    +0.510 C 
ATOM     31  O   LIG    1       -5.912  -5.553   3.890  0.00  0.00    -0.440 OA
ENDBRANCH  24  30
ENDBRANCH  20  21
ENDBRANCH   2  20
TORSDOF 6
