REMARK  Name = ZINCnE00000rhnop.0
REMARK                            x       y       z     vdW  Elec       q    Type
REMARK                         _______ _______ _______ _____ _____    ______ ____
ROOT
ATOM      1  C   LIG    1        7.532   6.473   0.501  0.00  0.00    -0.010 C 
ATOM      2  C   LIG    1        8.024   7.877   0.145  0.00  0.00    +0.050 C 
ATOM      3  C   LIG    1        7.252   8.911   0.970  0.00  0.00    +0.010 C 
ATOM      4  C   LIG    1        5.807   8.972   0.464  0.00  0.00    +0.120 C 
ATOM      5  C   LIG    1        5.266   7.564   0.374  0.00  0.00    -0.220 A 
ATOM      6  S   LIG    1        3.569   7.121   0.234  0.00  0.00    +0.030 S 
ATOM      7  C   LIG    1        4.018   5.419   0.207  0.00  0.00    +0.090 A 
ATOM      8  N   LIG    1        5.314   5.322   0.303  0.00  0.00    -0.430 NA
ATOM      9  C   LIG    1        6.013   6.442   0.388  0.00  0.00    +0.120 A 
ENDROOT
BRANCH   1  11
ATOM     10  O   LIG    1        8.511   4.390  -0.042  0.00  0.00    -0.690 OA
ATOM     11  C   LIG    1        8.130   5.472  -0.454  0.00  0.00    +0.510 C 
ATOM     12  O   LIG    1        8.231   5.744  -1.638  0.00  0.00    -0.690 OA
ENDBRANCH   1  11
BRANCH   7  13
ATOM     13  C   LIG    1        3.087   4.296   0.099  0.00  0.00    +0.110 C 
ATOM     14  C   LIG    1        1.757   4.526   0.009  0.00  0.00    +0.050 C 
BRANCH  14  15
ATOM     15  C   LIG    1        0.847   3.438   0.014  0.00  0.00    -0.030 A 
ATOM     16  C   LIG    1        1.166   2.091   0.004  0.00  0.00    +0.260 A 
ATOM     17  N   LIG    1        0.036   1.396   0.017  0.00  0.00    -0.490 NA
ATOM     18  C   LIG    1       -1.002   2.227   0.028  0.00  0.00    +0.220 A 
ATOM     19  C   LIG    1       -2.390   1.996   0.043  0.00  0.00    +0.070 A 
ATOM     20  C   LIG    1       -3.244   3.057   0.059  0.00  0.00    +0.040 A 
ATOM     21  C   LIG    1       -2.730   4.363   0.060  0.00  0.00    +0.010 A 
ATOM     22  C   LIG    1       -1.395   4.568   0.046  0.00  0.00    +0.220 A 
ATOM     23  N   LIG    1       -0.531   3.513   0.030  0.00  0.00    -0.350 N 
ENDBRANCH  14  15
ENDBRANCH   7  13
TORSDOF 3
