REMARK  Name = ZINCbu0000000GEs.0
REMARK                            x       y       z     vdW  Elec       q    Type
REMARK                         _______ _______ _______ _____ _____    ______ ____
ROOT
ATOM      1  C   LIG    1        2.379   1.411  -0.013  0.00  0.00    -0.150 A 
ATOM      2  C   LIG    1        2.398   0.029  -0.021  0.00  0.00    +0.050 A 
ATOM      3  C   LIG    1        1.211  -0.679  -0.013  0.00  0.00    +0.030 A 
ATOM      4  C   LIG    1        0.002  -0.004   0.002  0.00  0.00    +0.150 A 
ATOM      5  C   LIG    1       -0.017   1.380   0.010  0.00  0.00    +0.030 A 
ATOM      6  F   LIG    1       -1.158  -0.696   0.010  0.00  0.00    -0.110 F 
ATOM      7  C   LIG    1        1.172   2.087   0.002  0.00  0.00    +0.010 A 
ATOM      8 CL   LIG    1        1.149   3.823   0.012  0.00  0.00    -0.030 Cl
ENDROOT
BRANCH   1  10
ATOM      9  C   LIG    1        3.971   2.666  -1.441  0.00  0.00    +0.110 C 
ATOM     10  C   LIG    1        3.674   2.182  -0.020  0.00  0.00    +0.230 C 
BRANCH  10  11
ATOM     11  N   LIG    1        4.765   1.311   0.438  0.00  0.00    -0.640 N 
ATOM     12  H   LIG    1        5.632   1.827   0.433  0.00  0.00    +0.440 HD
ATOM     13  H   LIG    1        4.843   0.516  -0.179  0.00  0.00    +0.430 HD
ATOM     14  H   LIG    1        4.569   0.992   1.375  0.00  0.00    +0.440 HD
ENDBRANCH  10  11
ENDBRANCH   1  10
TORSDOF 2
