REMARK  Name = ZINCnE00000rhnU4.0
REMARK                            x       y       z     vdW  Elec       q    Type
REMARK                         _______ _______ _______ _____ _____    ______ ____
ROOT
ATOM      1  N   LIG    1        2.333   5.265   0.379  0.00  0.00    -0.230 NA
ATOM      2  C   LIG    1        3.411   5.958   0.171  0.00  0.00    +0.160 C 
ENDROOT
BRANCH   2   3
ATOM      3  C   LIG    1        3.381   7.425   0.306  0.00  0.00    -0.020 A 
ATOM      4  C   LIG    1        2.192   8.073   0.652  0.00  0.00    +0.050 A 
ATOM      5  C   LIG    1        2.170   9.444   0.782  0.00  0.00    +0.030 A 
ATOM      6  C   LIG    1        3.326  10.185   0.559  0.00  0.00    +0.080 A 
ATOM      7  C   LIG    1        4.509   9.544   0.209  0.00  0.00    -0.030 A 
ATOM      8  C   LIG    1        4.541   8.173   0.082  0.00  0.00    +0.040 A 
BRANCH   6   9
ATOM      9  N   LIG    1        3.298  11.574   0.687  0.00  0.00    -0.480 N 
ATOM     10  C   LIG    1        4.187  12.025   1.788  0.00  0.00    +0.170 C 
ATOM     11  C   LIG    1        4.441  13.516   1.450  0.00  0.00    +0.030 C 
ATOM     12  C   LIG    1        4.542  13.508  -0.092  0.00  0.00    +0.010 C 
ATOM     13  C   LIG    1        3.808  12.229  -0.537  0.00  0.00    +0.170 C 
ENDBRANCH   6   9
ENDBRANCH   2   3
BRANCH   1  14
ATOM     14  N   LIG    1        2.361   3.870   0.251  0.00  0.00    -0.550 N 
ATOM     15  H   LIG    1        3.185   3.422   0.006  0.00  0.00    +0.420 HD
BRANCH  14  21
ATOM     16  C   LIG    1        1.251   1.725   0.425  0.00  0.00    -0.200 A 
ATOM     17  C   LIG    1        0.082   0.993   0.652  0.00  0.00    +0.090 A 
ATOM     18  C   LIG    1       -1.100   1.649   0.915  0.00  0.00    -0.080 A 
ATOM     19  C   LIG    1       -1.136   3.034   0.968  0.00  0.00    +0.020 A 
ATOM     20  C   LIG    1        0.007   3.773   0.746  0.00  0.00    -0.070 A 
ATOM     21  C   LIG    1        1.210   3.130   0.473  0.00  0.00    +0.240 A 
BRANCH  16  23
ATOM     22  O   LIG    1        2.574  -0.189   0.208  0.00  0.00    -0.680 OA
ATOM     23  C   LIG    1        2.515   1.032   0.137  0.00  0.00    +0.530 C 
ATOM     24  O   LIG    1        3.509   1.675  -0.174  0.00  0.00    -0.690 OA
ENDBRANCH  16  23
ENDBRANCH  14  21
ENDBRANCH   1  14
TORSDOF 5
