REMARK  Name = ZINCvU00000004pg.1
REMARK                            x       y       z     vdW  Elec       q    Type
REMARK                         _______ _______ _______ _____ _____    ______ ____
ROOT
ATOM      1  N   LIG    1        3.428   3.612   1.363  0.00  0.00    -1.050 N 
ATOM      2  H   LIG    1        3.475   4.243   2.098  0.00  0.00    +0.430 HD
ENDROOT
BRANCH   1   3
ATOM      3  C   LIG    1        3.869   2.299   1.541  0.00  0.00    +0.140 A 
ATOM      4  C   LIG    1        3.094   1.238   1.090  0.00  0.00    +0.020 A 
ATOM      5  C   LIG    1        3.530  -0.064   1.259  0.00  0.00    +0.050 A 
ATOM      6  C   LIG    1        4.732  -0.317   1.886  0.00  0.00    +0.060 A 
ATOM      7  C   LIG    1        5.515   0.741   2.349  0.00  0.00    +0.000 A 
ATOM      8  C   LIG    1        5.079   2.054   2.174  0.00  0.00    +0.000 A 
BRANCH   7   9
ATOM      9  C   LIG    1        6.804   0.472   3.023  0.00  0.00    +0.210 A 
ATOM     10  N   LIG    1        7.185  -0.667   3.561  0.00  0.00    -0.270 NA
ATOM     11  N   LIG    1        8.369  -0.542   4.052  0.00  0.00    -0.290 NA
ATOM     12  C   LIG    1        8.807   0.669   3.853  0.00  0.00    +0.190 A 
ATOM     13  C   LIG    1       10.148   1.230   4.250  0.00  0.00    +0.160 C 
ATOM     14  C   LIG    1        9.941   2.591   4.922  0.00  0.00    +0.030 C 
ATOM     15  C   LIG    1        9.937   3.689   3.863  0.00  0.00    +0.020 C 
ATOM     16  C   LIG    1        9.323   3.177   2.561  0.00  0.00    +0.030 C 
ATOM     17  C   LIG    1        7.869   2.761   2.804  0.00  0.00    +0.290 C 
ATOM     18  N   LIG    1        7.830   1.354   3.200  0.00  0.00    -0.470 N 
ENDBRANCH   7   9
ENDBRANCH   1   3
BRANCH   1  20
ATOM     19  O   LIG    1        2.572   5.486   0.004  0.00  0.00    -0.920 OA
ATOM     20  S   LIG    1        2.824   4.091  -0.102  0.00  0.00    +2.690 S 
ATOM     21  O   LIG    1        1.823   3.145  -0.452  0.00  0.00    -0.930 OA
BRANCH  20  22
ATOM     22  C   LIG    1        4.117   3.908  -1.285  0.00  0.00    -0.680 A 
ATOM     23  C   LIG    1        3.990   2.992  -2.312  0.00  0.00    +0.210 A 
ATOM     24  C   LIG    1        5.004   2.848  -3.240  0.00  0.00    -0.200 A 
ATOM     25  C   LIG    1        6.145   3.623  -3.144  0.00  0.00    +0.160 A 
ATOM     26  C   LIG    1        6.276   4.535  -2.114  0.00  0.00    +0.030 A 
ATOM     27  C   LIG    1        5.261   4.680  -1.185  0.00  0.00    +0.080 A 
ATOM     28 CL   LIG    1        5.422   5.830   0.106  0.00  0.00    -0.020 Cl
BRANCH  24  29
ATOM     29  C   LIG    1        4.864   1.850  -4.360  0.00  0.00    +0.510 C 
ATOM     30  F   LIG    1        4.072   0.778  -3.934  0.00  0.00    -0.170 F 
ATOM     31  F   LIG    1        6.130   1.377  -4.724  0.00  0.00    -0.170 F 
ATOM     32  F   LIG    1        4.262   2.466  -5.462  0.00  0.00    -0.170 F 
ENDBRANCH  24  29
ENDBRANCH  20  22
ENDBRANCH   1  20
TORSDOF 5
