REMARK  Name = ZINCrD00000hQ4OH.0
REMARK                            x       y       z     vdW  Elec       q    Type
REMARK                         _______ _______ _______ _____ _____    ______ ____
ROOT
ATOM      1  O   LIG    1       -2.214  -0.102   0.023  0.00  0.00    -0.520 OA
ATOM      2  C   LIG    1       -1.156  -0.694   0.009  0.00  0.00    +0.540 C 
ATOM      3  N   LIG    1        0.002  -0.004   0.002  0.00  0.00    -0.720 N 
ATOM      4  H   LIG    1        0.849  -0.478  -0.009  0.00  0.00    +0.410 HD
ENDROOT
BRANCH   2   5
ATOM      5  C   LIG    1       -1.135  -2.201   0.001  0.00  0.00    -0.050 C 
ATOM      6  C   LIG    1       -1.609  -2.921   1.266  0.00  0.00    +0.090 C 
ATOM      7  C   LIG    1       -2.483  -2.925   0.010  0.00  0.00    +0.040 C 
BRANCH   7   8
ATOM      8  C   LIG    1       -3.729  -2.078   0.026  0.00  0.00    -0.030 A 
ATOM      9  C   LIG    1       -3.954  -1.200   1.069  0.00  0.00    +0.090 A 
ATOM     10  C   LIG    1       -5.096  -0.422   1.085  0.00  0.00    +0.020 A 
ATOM     11  C   LIG    1       -6.015  -0.521   0.057  0.00  0.00    +0.040 A 
ATOM     12  C   LIG    1       -5.791  -1.399  -0.989  0.00  0.00    -0.040 A 
ATOM     13 CL   LIG    1       -6.944  -1.524  -2.280  0.00  0.00    -0.060 Cl
ATOM     14  C   LIG    1       -4.644  -2.175  -1.007  0.00  0.00    -0.020 A 
ATOM     15 CL   LIG    1       -4.359  -3.272  -2.321  0.00  0.00    -0.050 Cl
ENDBRANCH   7   8
ENDBRANCH   2   5
BRANCH   3  16
ATOM     16  C   LIG    1       -0.018   1.461   0.010  0.00  0.00    +0.270 C 
BRANCH  16  17
ATOM     17  C   LIG    1        1.418   1.990  -0.001  0.00  0.00    +0.260 C 
BRANCH  17  18
ATOM     18  C   LIG    1        1.400   3.491   0.131  0.00  0.00    +0.440 C 
ATOM     19  O   LIG    1        1.798   4.183  -0.777  0.00  0.00    -0.490 OA
BRANCH  18  20
ATOM     20  O   LIG    1        0.943   4.061   1.258  0.00  0.00    -0.350 OA
BRANCH  20  21
ATOM     21  C   LIG    1        0.956   5.512   1.315  0.00  0.00    +0.270 C 
BRANCH  21  22
ATOM     22  C   LIG    1        0.411   5.967   2.644  0.00  0.00    -0.100 A 
ATOM     23  C   LIG    1       -0.942   6.209   2.791  0.00  0.00    +0.030 A 
ATOM     24  C   LIG    1       -1.442   6.622   4.011  0.00  0.00    +0.010 A 
ATOM     25  C   LIG    1       -0.588   6.802   5.083  0.00  0.00    +0.020 A 
ATOM     26  C   LIG    1        0.766   6.565   4.936  0.00  0.00    +0.010 A 
ATOM     27  C   LIG    1        1.266   6.147   3.716  0.00  0.00    +0.030 A 
ENDBRANCH  21  22
ENDBRANCH  20  21
ENDBRANCH  18  20
ENDBRANCH  17  18
BRANCH  17  28
ATOM     28  O   LIG    1        2.050   1.628  -1.230  0.00  0.00    -0.530 OA
ATOM     29  H   LIG    1        1.610   1.978  -2.017  0.00  0.00    +0.390 HD
ENDBRANCH  17  28
ENDBRANCH  16  17
ENDBRANCH   3  16
TORSDOF 9
