REMARK  Name = ZINCrD00000l4mxa.0
REMARK                            x       y       z     vdW  Elec       q    Type
REMARK                         _______ _______ _______ _____ _____    ______ ____
ROOT
ATOM      1  C   LIG    1       -2.046   1.559  -2.273  0.00  0.00    +0.540 C 
ATOM      2  N   LIG    1       -2.230   1.667  -0.942  0.00  0.00    -0.610 N 
ATOM      3  C   LIG    1       -3.454   1.292  -0.211  0.00  0.00    +0.270 C 
ATOM      4  C   LIG    1       -3.417   2.142   1.084  0.00  0.00    +0.040 C 
ATOM      5  C   LIG    1       -1.902   2.141   1.415  0.00  0.00    +0.060 C 
ATOM      6  C   LIG    1       -1.243   2.178   0.020  0.00  0.00    +0.320 C 
ATOM      7  O   LIG    1       -0.993   1.900  -2.770  0.00  0.00    -0.540 OA
ENDROOT
BRANCH   6   8
ATOM      8  C   LIG    1       -0.016   1.304   0.009  0.00  0.00    +0.140 A 
ATOM      9  N   LIG    1        0.002  -0.004   0.002  0.00  0.00    -0.230 NA
ATOM     10  N   LIG    1        1.215  -0.434  -0.012  0.00  0.00    -0.290 NA
ATOM     11  C   LIG    1        2.047   0.594  -0.014  0.00  0.00    +0.190 A 
ATOM     12  C   LIG    1        3.451   0.704  -0.028  0.00  0.00    +0.080 A 
ATOM     13  C   LIG    1        4.021   1.940  -0.027  0.00  0.00    +0.060 A 
ATOM     14  C   LIG    1        3.205   3.084  -0.013  0.00  0.00    +0.030 A 
ATOM     15  C   LIG    1        1.861   2.963  -0.001  0.00  0.00    +0.240 A 
ATOM     16  N   LIG    1        1.276   1.731  -0.001  0.00  0.00    -0.380 N 
ENDBRANCH   6   8
BRANCH   1  17
ATOM     17  C   LIG    1       -3.149   1.015  -3.144  0.00  0.00    +0.070 C 
BRANCH  17  18
ATOM     18  C   LIG    1       -2.686   0.998  -4.603  0.00  0.00    +0.070 C 
BRANCH  18  19
ATOM     19  C   LIG    1       -3.789   0.454  -5.474  0.00  0.00    +0.400 C 
ATOM     20  O   LIG    1       -4.841   0.114  -4.977  0.00  0.00    -0.450 OA
BRANCH  19  25
ATOM     21  C   LIG    1       -3.006  -0.004 -11.150  0.00  0.00    +0.100 C 
ATOM     22  C   LIG    1       -3.211   0.116  -9.662  0.00  0.00    -0.050 A 
ATOM     23  C   LIG    1       -4.414  -0.275  -9.099  0.00  0.00    -0.010 A 
ATOM     24  C   LIG    1       -4.609  -0.168  -7.739  0.00  0.00    +0.070 A 
ATOM     25  C   LIG    1       -3.588   0.336  -6.927  0.00  0.00    -0.180 A 
ATOM     26  C   LIG    1       -2.378   0.734  -7.504  0.00  0.00    +0.060 A 
ATOM     27  C   LIG    1       -2.196   0.616  -8.866  0.00  0.00    -0.010 A 
ENDBRANCH  19  25
ENDBRANCH  18  19
ENDBRANCH  17  18
ENDBRANCH   1  17
TORSDOF 5
