REMARK  Name = ZINCvU00000007IG.0
REMARK                            x       y       z     vdW  Elec       q    Type
REMARK                         _______ _______ _______ _____ _____    ______ ____
ROOT
ATOM      1  C   LIG    1       -4.816   4.285   0.253  0.00  0.00    +0.020 C 
ATOM      2  C   LIG    1       -4.933   4.879  -1.153  0.00  0.00    +0.100 C 
ENDROOT
BRANCH   1   3
ATOM      3  C   LIG    1       -3.462   3.646   0.417  0.00  0.00    +0.540 C 
ATOM      4  N   LIG    1       -2.404   4.395   0.786  0.00  0.00    -0.660 N 
ATOM      5  H   LIG    1       -2.527   5.329   1.018  0.00  0.00    +0.420 HD
ATOM      6  O   LIG    1       -3.324   2.458   0.218  0.00  0.00    -0.500 OA
BRANCH   4   7
ATOM      7  C   LIG    1       -1.126   3.826   0.834  0.00  0.00    +0.150 A 
ATOM      8  C   LIG    1       -0.767   2.844  -0.079  0.00  0.00    +0.070 A 
ATOM      9  C   LIG    1        0.492   2.280  -0.026  0.00  0.00    +0.060 A 
ATOM     10  C   LIG    1        1.401   2.700   0.929  0.00  0.00    -0.010 A 
ATOM     11  C   LIG    1        1.047   3.683   1.838  0.00  0.00    -0.160 A 
ATOM     12 CL   LIG    1        2.985   1.994   0.989  0.00  0.00    -0.040 Cl
ATOM     13  C   LIG    1       -0.213   4.246   1.793  0.00  0.00    +0.060 A 
BRANCH  11  14
ATOM     14  C   LIG    1        2.039   4.138   2.877  0.00  0.00    +0.510 C 
ATOM     15  F   LIG    1        3.174   4.655   2.244  0.00  0.00    -0.170 F 
ATOM     16  F   LIG    1        2.406   3.052   3.679  0.00  0.00    -0.170 F 
ATOM     17  F   LIG    1        1.456   5.130   3.674  0.00  0.00    -0.170 F 
ENDBRANCH  11  14
ENDBRANCH   4   7
ENDBRANCH   1   3
BRANCH   1  18
ATOM     18  S   LIG    1       -6.105   3.037   0.489  0.00  0.00    +0.060 S 
BRANCH  18  22
ATOM     19  C   LIG    1       -9.748   5.669   0.247  0.00  0.00    -0.190 A 
ATOM     20  C   LIG    1       -9.941   4.298   0.457  0.00  0.00    +0.230 A 
ATOM     21  C   LIG    1       -8.817   3.477   0.528  0.00  0.00    -0.080 A 
ATOM     22  C   LIG    1       -7.540   4.056   0.397  0.00  0.00    +0.180 A 
ATOM     23  N   LIG    1       -7.406   5.361   0.199  0.00  0.00    -0.490 NA
ATOM     24  C   LIG    1       -8.445   6.163   0.122  0.00  0.00    +0.250 A 
ATOM     25  C   LIG    1       -8.229   7.637  -0.104  0.00  0.00    +0.170 C 
BRANCH  19  26
ATOM     26  C   LIG    1      -10.903   6.580   0.159  0.00  0.00    +0.520 C 
ATOM     27  O   LIG    1      -10.736   7.746  -0.140  0.00  0.00    -0.490 OA
BRANCH  26  28
ATOM     28  O   LIG    1      -12.145   6.120   0.408  0.00  0.00    -0.350 OA
BRANCH  28  30
ATOM     29  C   LIG    1      -14.557   6.374   0.619  0.00  0.00    +0.060 C 
ATOM     30  C   LIG    1      -13.235   7.074   0.303  0.00  0.00    +0.200 C 
ENDBRANCH  28  30
ENDBRANCH  26  28
ENDBRANCH  19  26
BRANCH  21  31
ATOM     31  C   LIG    1       -8.958   2.067   0.736  0.00  0.00    +0.240 C 
ATOM     32  N   LIG    1       -9.070   0.948   0.901  0.00  0.00    -0.380 NA
ENDBRANCH  21  31
ENDBRANCH  18  22
ENDBRANCH   1  18
TORSDOF 9
