REMARK  Name = ZINCtV000002wRS2.0
REMARK                            x       y       z     vdW  Elec       q    Type
REMARK                         _______ _______ _______ _____ _____    ______ ____
ROOT
ATOM      1  C   LIG    1       -5.696  -1.635   0.042  0.00  0.00    +0.120 A 
ATOM      2  C   LIG    1       -5.292  -2.917   0.069  0.00  0.00    -0.250 A 
ATOM      3  S   LIG    1       -3.530  -2.941   0.046  0.00  0.00    +0.210 S 
ATOM      4  C   LIG    1       -3.507  -1.180   0.001  0.00  0.00    +0.270 A 
ATOM      5  C   LIG    1       -6.191  -4.126   0.111  0.00  0.00    +0.160 C 
ATOM      6  N   LIG    1       -4.724  -0.733   0.011  0.00  0.00    -0.490 NA
ENDROOT
BRANCH   1  10
ATOM      7  C   LIG    1       -9.807  -0.545   0.067  0.00  0.00    +0.140 A 
ATOM      8  C   LIG    1       -8.925   0.102  -0.787  0.00  0.00    -0.020 A 
ATOM      9  C   LIG    1       -7.591  -0.249  -0.798  0.00  0.00    +0.080 A 
ATOM     10  C   LIG    1       -7.130  -1.254   0.050  0.00  0.00    -0.060 A 
ATOM     11  C   LIG    1       -8.020  -1.906   0.903  0.00  0.00    +0.070 A 
ATOM     12  C   LIG    1       -9.351  -1.546   0.913  0.00  0.00    -0.080 A 
BRANCH   7  13
ATOM     13  O   LIG    1      -11.121  -0.197   0.075  0.00  0.00    -0.320 OA
BRANCH  13  15
ATOM     14  C   LIG    1      -13.405  -0.377   0.846  0.00  0.00    +0.070 C 
ATOM     15  C   LIG    1      -11.974  -0.903   0.978  0.00  0.00    +0.170 C 
ENDBRANCH  13  15
ENDBRANCH   7  13
ENDBRANCH   1  10
BRANCH   4  16
ATOM     16  N   LIG    1       -2.363  -0.394  -0.034  0.00  0.00    -0.620 N 
ATOM     17  H   LIG    1       -2.440   0.573  -0.057  0.00  0.00    +0.420 HD
ATOM     18  C   LIG    1       -1.147  -0.973  -0.036  0.00  0.00    +0.590 C 
ATOM     19  O   LIG    1       -1.050  -2.187  -0.007  0.00  0.00    -0.480 OA
BRANCH  18  20
ATOM     20  C   LIG    1        0.058  -0.144  -0.073  0.00  0.00    -0.280 A 
ATOM     21  C   LIG    1        1.354  -0.616  -0.079  0.00  0.00    +0.040 A 
ATOM     22  C   LIG    1        2.295   0.401  -0.117  0.00  0.00    +0.010 A 
ATOM     23  C   LIG    1        1.792   1.636  -0.142  0.00  0.00    -0.030 A 
ATOM     24  S   LIG    1        0.087   1.613  -0.118  0.00  0.00    +0.220 S 
BRANCH  21  25
ATOM     25  C   LIG    1        1.703  -2.055  -0.047  0.00  0.00    -0.050 A 
ATOM     26  C   LIG    1        1.132  -2.893   0.910  0.00  0.00    +0.070 A 
ATOM     27  C   LIG    1        1.457  -4.234   0.931  0.00  0.00    +0.000 A 
ATOM     28  C   LIG    1        2.356  -4.745   0.012  0.00  0.00    +0.010 A 
ATOM     29  C   LIG    1        2.930  -3.918  -0.936  0.00  0.00    -0.010 A 
ATOM     30  C   LIG    1        2.609  -2.576  -0.971  0.00  0.00    +0.020 A 
ENDBRANCH  21  25
ENDBRANCH  18  20
ENDBRANCH   4  16
TORSDOF 6
