REMARK  Name = ZINCqH0000004VVF.0
REMARK                            x       y       z     vdW  Elec       q    Type
REMARK                         _______ _______ _______ _____ _____    ______ ____
ROOT
ATOM      1  C   LIG    1        1.206   2.134   0.012  0.00  0.00    +0.570 C 
ATOM      2  N   LIG    1        0.025   1.501  -0.133  0.00  0.00    -0.610 N 
ATOM      3  C   LIG    1       -1.207   2.277  -0.295  0.00  0.00    +0.290 C 
ATOM      4  O   LIG    1        2.218   1.493   0.223  0.00  0.00    -0.520 OA
ENDROOT
BRANCH   1  10
ATOM      5  N   LIG    1        1.687   7.684  -0.505  0.00  0.00    -0.390 N 
ATOM      6  N   LIG    1        2.869   7.672  -1.259  0.00  0.00    -0.000 NA
ATOM      7  N   LIG    1        3.244   6.456  -1.451  0.00  0.00    -0.210 NA
ATOM      8  C   LIG    1        2.373   5.602  -0.864  0.00  0.00    -0.030 A 
ATOM      9  C   LIG    1        2.321   4.208  -0.770  0.00  0.00    +0.180 A 
ATOM     10  C   LIG    1        1.272   3.606  -0.086  0.00  0.00    -0.150 A 
ATOM     11  C   LIG    1        0.279   4.391   0.517  0.00  0.00    +0.100 A 
ATOM     12  C   LIG    1        0.328   5.751   0.435  0.00  0.00    +0.020 A 
ATOM     13  C   LIG    1        1.368   6.373  -0.252  0.00  0.00    +0.110 A 
BRANCH   5  15
ATOM     14  C   LIG    1        1.452   9.324   1.294  0.00  0.00    +0.050 C 
ATOM     15  C   LIG    1        0.938   8.866  -0.072  0.00  0.00    +0.340 C 
ENDBRANCH   5  15
ENDBRANCH   1  10
BRANCH   2  16
ATOM     16  C   LIG    1       -0.026   0.037  -0.134  0.00  0.00    +0.350 C 
BRANCH  16  17
ATOM     17  C   LIG    1       -0.218  -0.460   1.276  0.00  0.00    -0.080 A 
ATOM     18  C   LIG    1        0.880  -0.735   2.068  0.00  0.00    +0.050 A 
ATOM     19  C   LIG    1        0.703  -1.186   3.363  0.00  0.00    +0.070 A 
ATOM     20  C   LIG    1       -0.572  -1.373   3.861  0.00  0.00    -0.180 A 
ATOM     21  C   LIG    1       -1.671  -1.103   3.067  0.00  0.00    +0.070 A 
ATOM     22  C   LIG    1       -1.494  -0.646   1.775  0.00  0.00    +0.020 A 
BRANCH  20  23
ATOM     23  C   LIG    1       -0.765  -1.870   5.271  0.00  0.00    +0.510 C 
ATOM     24  F   LIG    1       -1.963  -1.362   5.785  0.00  0.00    -0.180 F 
ATOM     25  F   LIG    1        0.303  -1.442   6.067  0.00  0.00    -0.180 F 
ATOM     26  F   LIG    1       -0.814  -3.268   5.269  0.00  0.00    -0.180 F 
ENDBRANCH  20  23
ENDBRANCH  16  17
ENDBRANCH   2  16
TORSDOF 5
