REMARK  Name = ZINCrH000004mVgn.0
REMARK                            x       y       z     vdW  Elec       q    Type
REMARK                         _______ _______ _______ _____ _____    ______ ____
ROOT
ATOM      1  C   LIG    1       -5.705   1.089  -0.221  0.00  0.00    +0.030 A 
ATOM      2  N   LIG    1       -6.213   0.558   0.840  0.00  0.00    -0.430 NA
ATOM      3  C   LIG    1       -6.890  -0.562   0.686  0.00  0.00    +0.080 A 
ATOM      4  C   LIG    1       -6.949  -1.006  -0.573  0.00  0.00    -0.070 A 
ATOM      5  S   LIG    1       -6.066   0.131  -1.590  0.00  0.00    +0.160 S 
ENDROOT
BRANCH   1   6
ATOM      6  C   LIG    1       -4.905   2.366  -0.249  0.00  0.00    +0.310 C 
BRANCH   6   7
ATOM      7  O   LIG    1       -3.521   2.064  -0.063  0.00  0.00    -0.300 OA
BRANCH   7  11
ATOM      8  C   LIG    1       -0.893   5.248  -0.066  0.00  0.00    +0.090 A 
ATOM      9  C   LIG    1       -0.418   3.957   0.109  0.00  0.00    +0.030 A 
ATOM     10  C   LIG    1       -1.297   2.892   0.114  0.00  0.00    +0.030 A 
ATOM     11  C   LIG    1       -2.655   3.113  -0.062  0.00  0.00    +0.100 A 
ATOM     12  C   LIG    1       -3.131   4.405  -0.232  0.00  0.00    -0.040 A 
ATOM     13  C   LIG    1       -2.251   5.470  -0.236  0.00  0.00    -0.040 A 
BRANCH   8  15
ATOM     14  C   LIG    1       -0.585   7.598  -0.257  0.00  0.00    +0.230 C 
ATOM     15  O   LIG    1       -0.026   6.296  -0.071  0.00  0.00    -0.320 OA
ENDBRANCH   8  15
ENDBRANCH   7  11
ENDBRANCH   6   7
ENDBRANCH   1   6
BRANCH   3  16
ATOM     16  C   LIG    1       -7.539  -1.286   1.837  0.00  0.00    +0.280 C 
BRANCH  16  17
ATOM     17  N   LIG    1       -6.551  -2.159   2.487  0.00  0.00    -0.660 NA
ATOM     18  H   LIG    1       -6.204  -2.854   1.843  0.00  0.00    +0.350 HD
BRANCH  17  19
ATOM     19  C   LIG    1       -7.114  -2.788   3.688  0.00  0.00    +0.280 C 
BRANCH  19  20
ATOM     20  C   LIG    1       -6.643  -4.217   3.774  0.00  0.00    +0.190 A 
ATOM     21  N   LIG    1       -5.422  -4.629   3.572  0.00  0.00    -0.460 NA
ATOM     22  C   LIG    1       -5.370  -5.959   3.736  0.00  0.00    +0.140 A 
ATOM     23  C   LIG    1       -6.609  -6.389   4.043  0.00  0.00    +0.110 A 
ATOM     24  N   LIG    1       -7.417  -5.285   4.067  0.00  0.00    -0.460 N 
ATOM     25  C   LIG    1       -8.853  -5.264   4.357  0.00  0.00    +0.330 C 
ENDBRANCH  19  20
BRANCH  19  26
ATOM     26  C   LIG    1       -6.651  -2.023   4.930  0.00  0.00    -0.060 C 
ATOM     27  C   LIG    1       -6.027  -0.642   4.717  0.00  0.00    +0.040 C 
ATOM     28  C   LIG    1       -5.146  -1.827   5.118  0.00  0.00    +0.040 C 
ENDBRANCH  19  26
ENDBRANCH  17  19
ENDBRANCH  16  17
ENDBRANCH   3  16
TORSDOF 9
