REMARK  Name = ZINCvU00000008Yr.0
REMARK                            x       y       z     vdW  Elec       q    Type
REMARK                         _______ _______ _______ _____ _____    ______ ____
ROOT
ATOM      1  C   LIG    1       -4.987  -2.670  -0.483  0.00  0.00    +0.160 C 
ATOM      2  C   LIG    1       -3.631  -2.066  -0.225  0.00  0.00    +0.130 A 
ATOM      3  C   LIG    1       -2.561  -2.876  -0.050  0.00  0.00    -0.070 A 
ATOM      4  C   LIG    1       -1.300  -2.267   0.186  0.00  0.00    +0.380 A 
ATOM      5  C   LIG    1       -1.262  -0.797   0.231  0.00  0.00    -0.030 A 
ATOM      6  N   LIG    1       -2.381  -0.128   0.043  0.00  0.00    -0.170 NA
ATOM      7  O   LIG    1       -0.291  -2.935   0.348  0.00  0.00    -0.440 OA
ATOM      8  N   LIG    1       -3.499  -0.718  -0.172  0.00  0.00    -0.260 N 
ENDROOT
BRANCH   8   9
ATOM      9  C   LIG    1       -4.639   0.070  -0.361  0.00  0.00    +0.110 A 
ATOM     10  C   LIG    1       -5.432  -0.113  -1.486  0.00  0.00    +0.070 A 
ATOM     11  C   LIG    1       -6.561   0.663  -1.667  0.00  0.00    +0.050 A 
ATOM     12  C   LIG    1       -6.895   1.628  -0.735  0.00  0.00    +0.100 A 
ATOM     13  C   LIG    1       -6.104   1.816   0.384  0.00  0.00    -0.170 A 
ATOM     14  C   LIG    1       -4.978   1.041   0.574  0.00  0.00    +0.100 A 
BRANCH  13  15
ATOM     15  C   LIG    1       -6.473   2.869   1.397  0.00  0.00    +0.510 C 
ATOM     16  F   LIG    1       -6.032   2.472   2.664  0.00  0.00    -0.170 F 
ATOM     17  F   LIG    1       -7.862   3.033   1.416  0.00  0.00    -0.170 F 
ATOM     18  F   LIG    1       -5.865   4.081   1.051  0.00  0.00    -0.170 F 
ENDBRANCH  13  15
ENDBRANCH   8   9
BRANCH   5  19
ATOM     19  C   LIG    1        0.007  -0.085   0.475  0.00  0.00    +0.580 C 
ATOM     20  N   LIG    1        0.029   1.262   0.508  0.00  0.00    -0.620 N 
ATOM     21  H   LIG    1       -0.789   1.764   0.367  0.00  0.00    +0.430 HD
ATOM     22  O   LIG    1        1.034  -0.714   0.646  0.00  0.00    -0.420 OA
BRANCH  20  23
ATOM     23  C   LIG    1        1.220   1.930   0.737  0.00  0.00    +0.340 A 
ATOM     24  N   LIG    1        2.357   1.359   0.936  0.00  0.00    -0.470 NA
ATOM     25  C   LIG    1        3.431   2.146   1.142  0.00  0.00    +0.120 A 
ATOM     26  C   LIG    1        4.770   1.768   1.377  0.00  0.00    +0.100 A 
ATOM     27  C   LIG    1        5.737   2.722   1.572  0.00  0.00    +0.060 A 
ATOM     28  C   LIG    1        5.415   4.071   1.542  0.00  0.00    -0.030 A 
ATOM     29  C   LIG    1        4.113   4.463   1.315  0.00  0.00    +0.080 A 
ATOM     30 CL   LIG    1        6.651   5.265   1.790  0.00  0.00    -0.050 Cl
ATOM     31  C   LIG    1        3.119   3.509   1.115  0.00  0.00    -0.170 A 
ATOM     32  S   LIG    1        1.393   3.678   0.806  0.00  0.00    +0.090 S 
ENDBRANCH  20  23
ENDBRANCH   5  19
TORSDOF 4
