REMARK  Name = ZINCrD000000CxWX.0
REMARK                            x       y       z     vdW  Elec       q    Type
REMARK                         _______ _______ _______ _____ _____    ______ ____
ROOT
ATOM      1  O   LIG    1        1.150   1.988   2.264  0.00  0.00    -0.510 OA
ATOM      2  C   LIG    1       -0.037   2.238   2.168  0.00  0.00    +0.600 C 
ATOM      3  N   LIG    1       -0.685   1.996   1.012  0.00  0.00    -0.610 N 
ATOM      4  C   LIG    1        0.028   1.434  -0.144  0.00  0.00    +0.310 C 
ATOM      5  C   LIG    1       -0.205   2.339  -1.358  0.00  0.00    +0.040 C 
ATOM      6  C   LIG    1       -1.709   2.515  -1.577  0.00  0.00    +0.130 C 
ATOM      7  C   LIG    1       -2.330   3.185  -0.349  0.00  0.00    +0.050 C 
ATOM      8  C   LIG    1       -2.121   2.290   0.877  0.00  0.00    +0.270 C 
ENDROOT
BRANCH   2   9
ATOM      9  C   LIG    1       -0.764   2.804   3.316  0.00  0.00    -0.030 A 
ATOM     10  C   LIG    1       -0.238   3.593   4.320  0.00  0.00    +0.040 A 
ATOM     11  C   LIG    1       -1.322   3.880   5.173  0.00  0.00    +0.100 A 
ATOM     12  N   LIG    1       -2.386   3.281   4.678  0.00  0.00    -0.240 NA
ATOM     13  N   LIG    1       -2.092   2.648   3.599  0.00  0.00    -0.370 N 
ATOM     14  H   LIG    1       -2.720   2.136   3.066  0.00  0.00    +0.450 HD
BRANCH  11  15
ATOM     15  C   LIG    1       -1.273   4.700   6.403  0.00  0.00    +0.050 A 
ATOM     16  C   LIG    1       -2.324   4.974   7.221  0.00  0.00    -0.020 A 
ATOM     17  C   LIG    1       -1.826   5.781   8.264  0.00  0.00    -0.060 A 
ATOM     18  C   LIG    1       -0.512   5.965   8.029  0.00  0.00    +0.190 A 
ATOM     19  O   LIG    1       -0.182   5.310   6.903  0.00  0.00    -0.170 OA
ENDBRANCH  11  15
ENDBRANCH   2   9
BRANCH   6  20
ATOM     20  C   LIG    1       -1.942   3.377  -2.791  0.00  0.00    +0.180 A 
ATOM     21  N   LIG    1       -2.589   3.035  -3.879  0.00  0.00    -0.480 NA
ATOM     22  C   LIG    1       -2.545   4.114  -4.681  0.00  0.00    +0.180 A 
ATOM     23  N   LIG    1       -1.879   5.037  -4.054  0.00  0.00    -0.380 NA
ATOM     24  O   LIG    1       -1.524   4.634  -2.966  0.00  0.00    +0.080 OA
BRANCH  22  25
ATOM     25  C   LIG    1       -3.152   4.229  -6.055  0.00  0.00    +0.090 C 
ATOM     26  C   LIG    1       -2.272   5.000  -7.054  0.00  0.00    +0.040 C 
ATOM     27  C   LIG    1       -3.570   5.645  -7.575  0.00  0.00    +0.030 C 
ATOM     28  C   LIG    1       -4.170   5.374  -6.185  0.00  0.00    +0.040 C 
ENDBRANCH  22  25
ENDBRANCH   6  20
TORSDOF 4
