REMARK  Name = ZINCtj0000003uum.0
REMARK                            x       y       z     vdW  Elec       q    Type
REMARK                         _______ _______ _______ _____ _____    ______ ____
ROOT
ATOM      1  C   LIG    1       -7.132   2.067  -2.976  0.00  0.00    +0.510 C 
ATOM      2  N   LIG    1       -8.451   1.909  -3.208  0.00  0.00    -0.590 N 
ATOM      3  C   LIG    1       -9.424   1.970  -2.107  0.00  0.00    +0.320 C 
ATOM      4  C   LIG    1      -10.530   2.959  -2.488  0.00  0.00    +0.200 C 
ATOM      5  N   LIG    1      -11.091   2.582  -3.793  0.00  0.00    -0.510 NA
ATOM      6  C   LIG    1      -10.079   2.672  -4.854  0.00  0.00    +0.140 C 
ATOM      7  C   LIG    1      -10.724   2.345  -6.203  0.00  0.00    +0.050 C 
ATOM      8  C   LIG    1       -8.955   1.677  -4.570  0.00  0.00    +0.320 C 
ATOM      9  O   LIG    1       -6.360   2.161  -3.907  0.00  0.00    -0.510 OA
ENDROOT
BRANCH   5  10
ATOM     10  C   LIG    1      -12.205   3.357  -4.099  0.00  0.00    +0.240 C 
ATOM     11  C   LIG    1      -13.431   2.761  -4.397  0.00  0.00    +0.080 C 
ATOM     12  C   LIG    1      -14.512   3.565  -4.690  0.00  0.00    +0.350 C 
ATOM     13  N   LIG    1      -14.395   4.880  -4.701  0.00  0.00    -0.450 NA
ATOM     14  C   LIG    1      -13.252   5.481  -4.430  0.00  0.00    +0.360 C 
ATOM     15  H   LIG    1      -15.172   5.420  -4.915  0.00  0.00    +0.450 HD
ATOM     16  C   LIG    1      -12.124   4.749  -4.122  0.00  0.00    +0.010 C 
ENDBRANCH   5  10
BRANCH   1  19
ATOM     17  N   LIG    1       -5.328   2.420  -1.338  0.00  0.00    -0.680 N 
ATOM     18  H   LIG    1       -4.727   2.592  -2.080  0.00  0.00    +0.420 HD
ATOM     19  C   LIG    1       -6.623   2.127  -1.573  0.00  0.00    +0.510 C 
ATOM     20  O   LIG    1       -7.374   1.912  -0.644  0.00  0.00    -0.510 OA
BRANCH  17  21
ATOM     21  C   LIG    1       -4.828   2.479   0.038  0.00  0.00    +0.390 C 
BRANCH  21  27
ATOM     22  C   LIG    1        1.927   5.474   0.145  0.00  0.00    +0.130 C 
ATOM     23  C   LIG    1        0.821   4.454   0.065  0.00  0.00    -0.100 A 
ATOM     24  C   LIG    1       -0.465   4.849   0.168  0.00  0.00    +0.200 A 
ATOM     25  N   LIG    1       -1.480   3.938   0.098  0.00  0.00    -0.360 N 
ATOM     26  C   LIG    1       -2.840   4.061   0.170  0.00  0.00    +0.120 A 
ATOM     27  C   LIG    1       -3.361   2.823   0.025  0.00  0.00    +0.030 A 
ATOM     28  N   LIG    1       -2.359   1.953  -0.120  0.00  0.00    -0.480 NA
ATOM     29  C   LIG    1       -1.206   2.607  -0.082  0.00  0.00    +0.230 A 
ATOM     30  C   LIG    1        0.132   2.178  -0.185  0.00  0.00    +0.080 A 
ATOM     31  C   LIG    1        1.133   3.096  -0.114  0.00  0.00    +0.060 A 
ENDBRANCH  21  27
ENDBRANCH  17  21
ENDBRANCH   1  19
TORSDOF 4
