REMARK  Name = ZINCpk00000y6uKX.0
REMARK                            x       y       z     vdW  Elec       q    Type
REMARK                         _______ _______ _______ _____ _____    ______ ____
ROOT
ATOM      1  C   LIG    1        0.002  -0.004   0.002  0.00  0.00    +0.210 C 
ATOM      2  C   LIG    1       -1.435  -0.573   0.140  0.00  0.00    +0.090 C 
ATOM      3  C   LIG    1       -1.645  -0.518   1.673  0.00  0.00    +0.250 C 
ATOM      4  N   LIG    1       -0.332  -0.863   2.247  0.00  0.00    -0.610 N 
ATOM      5  C   LIG    1       -0.122  -1.380   3.474  0.00  0.00    +0.530 C 
ATOM      6  O   LIG    1        1.007  -1.625   3.844  0.00  0.00    -0.510 OA
ATOM      7  C   LIG    1        0.711  -0.547   1.260  0.00  0.00    +0.260 C 
ENDROOT
BRANCH   1  10
ATOM      8  N   LIG    1        2.092  -0.933  -2.824  0.00  0.00    -0.280 N 
ATOM      9  C   LIG    1        1.932  -0.267  -1.656  0.00  0.00    +0.160 A 
ATOM     10  C   LIG    1        0.666  -0.519  -1.249  0.00  0.00    -0.050 A 
ATOM     11  N   LIG    1        0.122  -1.321  -2.172  0.00  0.00    -0.250 NA
ATOM     12  N   LIG    1        0.991  -1.542  -3.094  0.00  0.00    -0.080 NA
BRANCH   8  14
ATOM     13  C   LIG    1        3.328   0.266  -4.561  0.00  0.00    +0.060 C 
ATOM     14  C   LIG    1        3.308  -0.956  -3.639  0.00  0.00    +0.250 C 
ATOM     15  C   LIG    1        4.535  -0.924  -2.726  0.00  0.00    +0.060 C 
ENDBRANCH   8  14
ENDBRANCH   1  10
BRANCH   1  16
ATOM     16  O   LIG    1       -0.017   1.425   0.010  0.00  0.00    -0.530 OA
ATOM     17  H   LIG    1        0.861   1.830   0.004  0.00  0.00    +0.380 HD
ENDBRANCH   1  16
BRANCH   5  18
ATOM     18  C   LIG    1       -1.290  -1.654   4.386  0.00  0.00    +0.250 C 
BRANCH  18  19
ATOM     19  O   LIG    1       -0.814  -2.196   5.620  0.00  0.00    -0.290 OA
BRANCH  19  20
ATOM     20  C   LIG    1       -1.746  -2.502   6.560  0.00  0.00    +0.120 A 
ATOM     21  C   LIG    1       -3.091  -2.279   6.303  0.00  0.00    -0.040 A 
ATOM     22  C   LIG    1       -4.038  -2.595   7.258  0.00  0.00    +0.030 A 
ATOM     23  C   LIG    1       -3.645  -3.123   8.475  0.00  0.00    +0.060 A 
ATOM     24  C   LIG    1       -2.303  -3.341   8.736  0.00  0.00    +0.030 A 
ATOM     25  F   LIG    1       -4.572  -3.427   9.410  0.00  0.00    -0.140 F 
ATOM     26  C   LIG    1       -1.354  -3.032   7.781  0.00  0.00    +0.020 A 
ENDBRANCH  19  20
ENDBRANCH  18  19
ENDBRANCH   5  18
TORSDOF 6
