REMARK  Name = ZINCAx0000000jQg.0
REMARK                            x       y       z     vdW  Elec       q    Type
REMARK                         _______ _______ _______ _____ _____    ______ ____
ROOT
ATOM      1  N   LIG    1       -1.366  -0.551  -0.010  0.00  0.00    -0.510 N 
ATOM      2  C   LIG    1       -1.795  -0.925  -1.233  0.00  0.00    +0.530 C 
ATOM      3  O   LIG    1       -2.853  -1.508  -1.353  0.00  0.00    -0.510 OA
ENDROOT
BRANCH   1   4
ATOM      4  C   LIG    1       -2.091  -0.931   1.139  0.00  0.00    -0.160 A 
ATOM      5  C   LIG    1       -3.373  -0.464   1.346  0.00  0.00    +0.510 A 
ATOM      6  N   LIG    1       -4.057  -0.857   2.473  0.00  0.00    -0.530 N 
ATOM      7  C   LIG    1       -3.478  -1.677   3.369  0.00  0.00    +0.710 A 
ATOM      8  N   LIG    1       -2.228  -2.138   3.186  0.00  0.00    -0.660 N 
ATOM      9  H   LIG    1       -1.834  -2.729   3.847  0.00  0.00    +0.430 HD
ATOM     10  O   LIG    1       -4.098  -2.009   4.362  0.00  0.00    -0.530 OA
ATOM     11  C   LIG    1       -1.517  -1.788   2.097  0.00  0.00    +0.570 A 
ATOM     12  O   LIG    1       -0.384  -2.212   1.941  0.00  0.00    -0.520 OA
BRANCH   5  13
ATOM     13  N   LIG    1       -3.961   0.379   0.435  0.00  0.00    -0.820 N 
ATOM     14  H   LIG    1       -4.891   0.636   0.541  0.00  0.00    +0.410 HD
ATOM     15  H   LIG    1       -3.447   0.718  -0.315  0.00  0.00    +0.420 HD
ENDBRANCH   5  13
BRANCH   6  16
ATOM     16  C   LIG    1       -5.421  -0.374   2.703  0.00  0.00    +0.370 C 
BRANCH  16  17
ATOM     17  C   LIG    1       -5.373   0.917   3.479  0.00  0.00    -0.130 A 
ATOM     18  C   LIG    1       -5.402   0.894   4.861  0.00  0.00    +0.040 A 
ATOM     19  C   LIG    1       -5.353   2.077   5.573  0.00  0.00    +0.010 A 
ATOM     20  C   LIG    1       -5.285   3.285   4.903  0.00  0.00    +0.030 A 
ATOM     21  C   LIG    1       -5.262   3.308   3.521  0.00  0.00    +0.010 A 
ATOM     22  C   LIG    1       -5.305   2.124   2.809  0.00  0.00    +0.020 A 
ENDBRANCH  16  17
ENDBRANCH   6  16
ENDBRANCH   1   4
BRANCH   1  23
ATOM     23  C   LIG    1       -0.146   0.250   0.125  0.00  0.00    +0.280 C 
BRANCH  23  25
ATOM     24  C   LIG    1        0.776   2.572   0.157  0.00  0.00    +0.030 C 
ATOM     25  C   LIG    1       -0.497   1.735   0.016  0.00  0.00    -0.010 C 
ENDBRANCH  23  25
ENDBRANCH   1  23
BRANCH   2  26
ATOM     26  C   LIG    1       -0.961  -0.620  -2.451  0.00  0.00    +0.090 C 
BRANCH  26  27
ATOM     27  S   LIG    1       -1.801  -1.245  -3.932  0.00  0.00    +0.110 S 
BRANCH  27  28
ATOM     28  C   LIG    1       -0.696  -0.803  -5.231  0.00  0.00    +0.200 A 
ATOM     29  N   LIG    1        0.443  -0.167  -5.079  0.00  0.00    -0.320 NA
ATOM     30  N   LIG    1        1.004  -0.022  -6.359  0.00  0.00    -0.470 N 
ATOM     31  H   LIG    1        1.846   0.406  -6.579  0.00  0.00    +0.440 HD
ATOM     32  C   LIG    1        0.134  -0.591  -7.223  0.00  0.00    +0.350 A 
ATOM     33  N   LIG    1       -0.884  -1.056  -6.527  0.00  0.00    -0.510 NA
BRANCH  32  34
ATOM     34  C   LIG    1        0.297  -0.676  -8.691  0.00  0.00    -0.050 A 
ATOM     35  C   LIG    1        1.427  -0.134  -9.304  0.00  0.00    +0.030 A 
ATOM     36  C   LIG    1        1.575  -0.221 -10.673  0.00  0.00    +0.010 A 
ATOM     37  C   LIG    1        0.600  -0.834 -11.439  0.00  0.00    -0.060 A 
ATOM     38  C   LIG    1       -0.525  -1.369 -10.838  0.00  0.00    +0.010 A 
ATOM     39  C   LIG    1        0.765  -0.920 -12.935  0.00  0.00    +0.100 C 
ATOM     40  C   LIG    1       -0.683  -1.294  -9.470  0.00  0.00    +0.080 A 
ENDBRANCH  32  34
ENDBRANCH  27  28
ENDBRANCH  26  27
ENDBRANCH   2  26
TORSDOF 10
