REMARK  Name = ZINCAx0000000jQg.1
REMARK                            x       y       z     vdW  Elec       q    Type
REMARK                         _______ _______ _______ _____ _____    ______ ____
ROOT
ATOM      1  N   LIG    1       -1.362  -0.514   0.015  0.00  0.00    -0.520 N 
ATOM      2  C   LIG    1       -1.858  -0.846   1.225  0.00  0.00    +0.540 C 
ATOM      3  O   LIG    1       -2.950  -1.367   1.311  0.00  0.00    -0.500 OA
ENDROOT
BRANCH   1   4
ATOM      4  C   LIG    1       -2.157  -0.669  -1.140  0.00  0.00    -0.140 A 
ATOM      5  C   LIG    1       -1.811  -1.586  -2.112  0.00  0.00    +0.490 A 
ATOM      6  N   LIG    1       -2.609  -1.719  -3.225  0.00  0.00    -0.530 N 
ATOM      7  C   LIG    1       -3.708  -0.956  -3.369  0.00  0.00    +0.710 A 
ATOM      8  N   LIG    1       -4.058  -0.054  -2.434  0.00  0.00    -0.660 N 
ATOM      9  H   LIG    1       -4.855   0.483  -2.562  0.00  0.00    +0.430 HD
ATOM     10  O   LIG    1       -4.399  -1.086  -4.361  0.00  0.00    -0.530 OA
ATOM     11  C   LIG    1       -3.314   0.111  -1.324  0.00  0.00    +0.570 A 
ATOM     12  O   LIG    1       -3.640   0.931  -0.483  0.00  0.00    -0.510 OA
BRANCH   5  13
ATOM     13  N   LIG    1       -0.685  -2.360  -1.968  0.00  0.00    -0.830 N 
ATOM     14  H   LIG    1       -0.485  -3.052  -2.619  0.00  0.00    +0.410 HD
ATOM     15  H   LIG    1       -0.089  -2.216  -1.216  0.00  0.00    +0.420 HD
ENDBRANCH   5  13
BRANCH   6  16
ATOM     16  C   LIG    1       -2.257  -2.692  -4.261  0.00  0.00    +0.370 C 
BRANCH  16  17
ATOM     17  C   LIG    1       -1.363  -2.037  -5.283  0.00  0.00    -0.130 A 
ATOM     18  C   LIG    1       -1.916  -1.415  -6.387  0.00  0.00    +0.040 A 
ATOM     19  C   LIG    1       -1.097  -0.810  -7.322  0.00  0.00    +0.010 A 
ATOM     20  C   LIG    1        0.276  -0.836  -7.157  0.00  0.00    +0.030 A 
ATOM     21  C   LIG    1        0.828  -1.462  -6.056  0.00  0.00    +0.010 A 
ATOM     22  C   LIG    1        0.009  -2.062  -5.119  0.00  0.00    +0.020 A 
ENDBRANCH  16  17
ENDBRANCH   6  16
ENDBRANCH   1   4
BRANCH   1  23
ATOM     23  C   LIG    1        0.002   0.008  -0.100  0.00  0.00    +0.270 C 
BRANCH  23  25
ATOM     24  C   LIG    1        1.390   2.083  -0.214  0.00  0.00    +0.020 C 
ATOM     25  C   LIG    1       -0.035   1.538  -0.094  0.00  0.00    +0.000 C 
ENDBRANCH  23  25
ENDBRANCH   1  23
BRANCH   2  26
ATOM     26  C   LIG    1       -1.055  -0.568   2.470  0.00  0.00    +0.120 C 
BRANCH  26  27
ATOM     27  S   LIG    1       -1.983  -1.123   3.922  0.00  0.00    +0.090 S 
BRANCH  27  28
ATOM     28  C   LIG    1       -0.845  -0.690   5.196  0.00  0.00    +0.250 A 
ATOM     29  N   LIG    1        0.331  -0.128   5.023  0.00  0.00    -0.530 NA
ATOM     30  C   LIG    1        0.921   0.059   6.213  0.00  0.00    +0.280 A 
ATOM     31  N   LIG    1        0.126  -0.392   7.157  0.00  0.00    -0.300 NA
ATOM     32  N   LIG    1       -1.026  -0.883   6.521  0.00  0.00    -0.460 N 
ATOM     33  H   LIG    1       -1.800  -1.282   6.949  0.00  0.00    +0.450 HD
BRANCH  30  34
ATOM     34  C   LIG    1        2.256   0.670   6.428  0.00  0.00    -0.030 A 
ATOM     35  C   LIG    1        3.008   1.107   5.339  0.00  0.00    +0.060 A 
ATOM     36  C   LIG    1        4.247   1.679   5.545  0.00  0.00    +0.000 A 
ATOM     37  C   LIG    1        4.747   1.810   6.829  0.00  0.00    -0.070 A 
ATOM     38  C   LIG    1        4.006   1.373   7.912  0.00  0.00    +0.010 A 
ATOM     39  C   LIG    1        6.103   2.430   7.047  0.00  0.00    +0.090 C 
ATOM     40  C   LIG    1        2.764   0.804   7.718  0.00  0.00    +0.050 A 
ENDBRANCH  30  34
ENDBRANCH  27  28
ENDBRANCH  26  27
ENDBRANCH   2  26
TORSDOF 10
