REMARK  Name = ZINCpk000000nlHx.0
REMARK                            x       y       z     vdW  Elec       q    Type
REMARK                         _______ _______ _______ _____ _____    ______ ____
ROOT
ATOM      1  C   LIG    1        1.849   3.515   1.462  0.00  0.00    +0.510 C 
ATOM      2  N   LIG    1        2.238   4.776   1.735  0.00  0.00    -0.610 N 
ATOM      3  C   LIG    1        2.419   5.761   0.658  0.00  0.00    +0.280 C 
ATOM      4  C   LIG    1        1.630   7.027   1.025  0.00  0.00    +0.200 C 
ATOM      5  N   LIG    1        2.041   7.485   2.359  0.00  0.00    -0.480 N 
ATOM      6  C   LIG    1        1.713   6.489   3.388  0.00  0.00    +0.190 C 
ATOM      7  C   LIG    1        2.499   5.202   3.118  0.00  0.00    +0.310 C 
ATOM      8  O   LIG    1        1.709   2.715   2.362  0.00  0.00    -0.510 OA
ENDROOT
BRANCH   5   9
ATOM      9  C   LIG    1        1.470   8.725   2.662  0.00  0.00    +0.080 A 
ATOM     10  C   LIG    1        1.800   9.373   3.844  0.00  0.00    +0.030 A 
ATOM     11  C   LIG    1        1.239  10.601   4.137  0.00  0.00    +0.030 A 
ATOM     12  C   LIG    1        0.341  11.181   3.261  0.00  0.00    +0.020 A 
ATOM     13  C   LIG    1        0.005  10.537   2.084  0.00  0.00    +0.010 A 
ATOM     14  C   LIG    1        0.566   9.310   1.781  0.00  0.00    +0.050 A 
ATOM     15  F   LIG    1        0.238   8.681   0.631  0.00  0.00    -0.140 F 
ENDBRANCH   5   9
BRANCH   1  16
ATOM     16  C   LIG    1        1.586   3.100   0.037  0.00  0.00    +0.370 C 
BRANCH  16  21
ATOM     17  C   LIG    1        1.976   0.635  -0.235  0.00  0.00    +0.210 A 
ATOM     18  N   LIG    1        1.216  -0.431  -0.171  0.00  0.00    -0.300 NA
ATOM     19  N   LIG    1        0.015  -0.048   0.095  0.00  0.00    -0.070 NA
ATOM     20  N   LIG    1       -0.011   1.235   0.202  0.00  0.00    -0.080 NA
ATOM     21  N   LIG    1        1.179   1.693   0.005  0.00  0.00    -0.300 N 
BRANCH  17  23
ATOM     22  C   LIG    1        3.995  -0.760  -0.590  0.00  0.00    +0.080 C 
ATOM     23  C   LIG    1        3.455   0.670  -0.522  0.00  0.00    +0.010 C 
ATOM     24  C   LIG    1        4.173   1.433   0.593  0.00  0.00    +0.050 C 
ATOM     25  C   LIG    1        3.699   1.371  -1.859  0.00  0.00    +0.050 C 
ENDBRANCH  17  23
ENDBRANCH  16  21
ENDBRANCH   1  16
TORSDOF 4
