REMARK  Name = ZINCrH000004shtG.0
REMARK                            x       y       z     vdW  Elec       q    Type
REMARK                         _______ _______ _______ _____ _____    ______ ____
ROOT
ATOM      1  C   LIG    1       -2.654   4.101   0.104  0.00  0.00    +0.110 C 
ENDROOT
BRANCH   1   2
ATOM      2  C   LIG    1       -2.685   5.590  -0.122  0.00  0.00    -0.160 A 
ATOM      3  C   LIG    1       -2.041   6.521   0.599  0.00  0.00    +0.230 A 
ATOM      4  N   LIG    1       -2.306   7.766   0.097  0.00  0.00    -0.590 N 
ATOM      5  H   LIG    1       -1.953   8.597   0.452  0.00  0.00    +0.420 HD
ATOM      6  C   LIG    1       -3.149   7.664  -0.987  0.00  0.00    +0.100 A 
ATOM      7  C   LIG    1       -3.719   8.596  -1.847  0.00  0.00    -0.010 A 
ATOM      8  C   LIG    1       -4.532   8.171  -2.876  0.00  0.00    +0.030 A 
ATOM      9  C   LIG    1       -4.797   6.821  -3.056  0.00  0.00    -0.020 A 
ATOM     10  C   LIG    1       -4.250   5.888  -2.220  0.00  0.00    +0.050 A 
ATOM     11  C   LIG    1       -3.418   6.296  -1.176  0.00  0.00    -0.100 A 
ENDBRANCH   1   2
BRANCH   1  12
ATOM     12  C   LIG    1       -3.182   3.791   1.481  0.00  0.00    -0.070 A 
ATOM     13  C   LIG    1       -2.549   4.307   2.596  0.00  0.00    +0.010 A 
ATOM     14  C   LIG    1       -3.037   4.027   3.859  0.00  0.00    +0.000 A 
ATOM     15  C   LIG    1       -4.151   3.223   4.007  0.00  0.00    +0.000 A 
ATOM     16  C   LIG    1       -4.781   2.702   2.892  0.00  0.00    +0.010 A 
ATOM     17  C   LIG    1       -4.296   2.986   1.629  0.00  0.00    +0.000 A 
ENDBRANCH   1  12
BRANCH   1  18
ATOM     18  C   LIG    1       -1.214   3.597  -0.015  0.00  0.00    +0.280 C 
BRANCH  18  20
ATOM     19  C   LIG    1       -0.030   1.467   0.008  0.00  0.00    +0.600 C 
ATOM     20  N   LIG    1       -1.198   2.135   0.087  0.00  0.00    -0.710 N 
ATOM     21  H   LIG    1       -2.028   1.649   0.210  0.00  0.00    +0.400 HD
ATOM     22  O   LIG    1        1.018   2.080  -0.054  0.00  0.00    -0.520 OA
BRANCH  19  25
ATOM     23  C   LIG    1       -0.055  -0.398  -2.569  0.00  0.00    +0.120 C 
ATOM     24  C   LIG    1       -0.035  -0.823  -1.123  0.00  0.00    -0.150 A 
ATOM     25  C   LIG    1       -0.025  -0.004  -0.007  0.00  0.00    -0.040 A 
ATOM     26  N   LIG    1       -0.013  -0.836   1.076  0.00  0.00    -0.270 N 
ATOM     27  N   LIG    1       -0.011  -2.058   0.682  0.00  0.00    -0.280 NA
ATOM     28  C   LIG    1       -0.005  -0.400   2.475  0.00  0.00    +0.370 C 
ATOM     29  C   LIG    1       -0.020  -2.128  -0.625  0.00  0.00    +0.200 A 
ENDBRANCH  19  25
ENDBRANCH  18  20
ENDBRANCH   1  18
TORSDOF 5
