REMARK  Name = ZINCpk00000y6uq2.2
REMARK                            x       y       z     vdW  Elec       q    Type
REMARK                         _______ _______ _______ _____ _____    ______ ____
ROOT
ATOM      1  N   LIG    1       -1.059   3.918  -5.057  0.00  0.00    -0.730 N 
ATOM      2  H   LIG    1       -1.394   3.078  -5.407  0.00  0.00    +0.400 HD
ATOM      3  C   LIG    1       -0.921   4.087  -3.727  0.00  0.00    +0.700 C 
ATOM      4  N   LIG    1       -1.248   3.087  -2.883  0.00  0.00    -0.740 N 
ATOM      5  H   LIG    1       -1.583   2.247  -3.234  0.00  0.00    +0.400 HD
ATOM      6  O   LIG    1       -0.501   5.140  -3.288  0.00  0.00    -0.590 OA
ENDROOT
BRANCH   1   7
ATOM      7  C   LIG    1       -0.704   5.004  -5.973  0.00  0.00    +0.290 C 
BRANCH   7  13
ATOM      8  C   LIG    1       -3.839   3.483  -9.447  0.00  0.00    +0.190 C 
ATOM      9  N   LIG    1       -2.432   3.712  -9.094  0.00  0.00    -0.550 NA
ATOM     10  C   LIG    1       -1.637   2.490  -9.276  0.00  0.00    +0.170 C 
ATOM     11  C   LIG    1       -0.167   2.791  -8.975  0.00  0.00    +0.180 C 
ATOM     12  N   LIG    1       -0.044   3.296  -7.600  0.00  0.00    -0.540 NA
ATOM     13  C   LIG    1       -0.840   4.518  -7.418  0.00  0.00    +0.140 C 
ATOM     14  C   LIG    1        1.363   3.526  -7.247  0.00  0.00    +0.190 C 
ATOM     15  C   LIG    1       -2.310   4.216  -7.719  0.00  0.00    +0.180 C 
ENDBRANCH   7  13
ENDBRANCH   1   7
BRANCH   4  16
ATOM     16  C   LIG    1       -1.097   3.270  -1.438  0.00  0.00    +0.310 C 
BRANCH  16  17
ATOM     17  C   LIG    1       -1.535   1.995  -0.714  0.00  0.00    -0.040 C 
ATOM     18  C   LIG    1       -0.473   1.237   0.087  0.00  0.00    +0.040 C 
ATOM     19  C   LIG    1       -1.559   2.023   0.811  0.00  0.00    -0.080 C 
ATOM     20  C   LIG    1       -1.229   3.308   1.588  0.00  0.00    +0.070 C 
ATOM     21  C   LIG    1       -2.550   3.583   2.340  0.00  0.00    +0.080 C 
ATOM     22  C   LIG    1       -3.217   2.232   2.481  0.00  0.00    -0.090 A 
ATOM     23  C   LIG    1       -4.243   1.820   3.315  0.00  0.00    +0.010 A 
ATOM     24  C   LIG    1       -4.698   0.517   3.268  0.00  0.00    +0.000 A 
ATOM     25  C   LIG    1       -4.128  -0.381   2.385  0.00  0.00    +0.000 A 
ATOM     26  C   LIG    1       -3.104   0.027   1.552  0.00  0.00    +0.020 A 
ATOM     27  C   LIG    1       -2.646   1.333   1.597  0.00  0.00    -0.060 A 
ENDBRANCH  16  17
ENDBRANCH   4  16
TORSDOF 4
