REMARK  Name = ZINCrg00000J0Y3O.0
REMARK                            x       y       z     vdW  Elec       q    Type
REMARK                         _______ _______ _______ _____ _____    ______ ____
ROOT
ATOM      1  N   LIG    1       -3.184  -5.623  -0.982  0.00  0.00    -0.560 N 
ATOM      2  C   LIG    1       -3.368  -4.524  -1.723  0.00  0.00    +0.710 C 
ATOM      3  N   LIG    1       -2.368  -3.635  -1.579  0.00  0.00    -0.720 N 
ATOM      4  H   LIG    1       -2.292  -2.773  -2.017  0.00  0.00    +0.440 HD
ATOM      5  C   LIG    1       -1.412  -4.226  -0.627  0.00  0.00    +0.240 C 
ATOM      6  O   LIG    1       -4.330  -4.348  -2.444  0.00  0.00    -0.540 OA
ATOM      7  C   LIG    1       -2.038  -5.561  -0.276  0.00  0.00    +0.530 C 
ATOM      8  O   LIG    1       -1.599  -6.399   0.482  0.00  0.00    -0.460 OA
ENDROOT
BRANCH   1   9
ATOM      9  C   LIG    1       -4.114  -6.754  -0.944  0.00  0.00    +0.360 C 
BRANCH   9  12
ATOM     10  N   LIG    1       -6.092  -7.451   0.368  0.00  0.00    -0.720 N 
ATOM     11  H   LIG    1       -6.130  -8.254  -0.175  0.00  0.00    +0.410 HD
ATOM     12  C   LIG    1       -5.130  -6.533   0.147  0.00  0.00    +0.500 C 
ATOM     13  O   LIG    1       -5.082  -5.530   0.826  0.00  0.00    -0.530 OA
BRANCH  10  14
ATOM     14  C   LIG    1       -7.079  -7.237   1.429  0.00  0.00    +0.370 C 
BRANCH  14  17
ATOM     15  C   LIG    1       -6.672  -9.724   3.081  0.00  0.00    +0.110 C 
ATOM     16  C   LIG    1       -7.870  -9.508   2.193  0.00  0.00    -0.070 A 
ATOM     17  C   LIG    1       -8.036  -8.400   1.468  0.00  0.00    -0.220 A 
ATOM     18  S   LIG    1       -9.537  -8.510   0.558  0.00  0.00    +0.120 S 
ATOM     19  C   LIG    1       -9.869 -10.097   1.239  0.00  0.00    -0.030 A 
ATOM     20  C   LIG    1       -8.884 -10.442   2.071  0.00  0.00    +0.000 A 
ENDBRANCH  14  17
ENDBRANCH  10  14
ENDBRANCH   9  12
ENDBRANCH   1   9
BRANCH   5  21
ATOM     21  C   LIG    1       -1.282  -3.348   0.620  0.00  0.00    +0.180 C 
BRANCH  21  22
ATOM     22  C   LIG    1       -0.548  -2.080   0.267  0.00  0.00    -0.030 A 
ATOM     23  C   LIG    1       -0.976  -0.813   0.470  0.00  0.00    +0.150 A 
ATOM     24  N   LIG    1        0.002  -0.004   0.002  0.00  0.00    -0.280 N 
ATOM     25  N   LIG    1        0.951  -0.743  -0.457  0.00  0.00    -0.080 NA
ATOM     26  N   LIG    1        0.656  -1.986  -0.309  0.00  0.00    -0.260 NA
BRANCH  24  27
ATOM     27  C   LIG    1       -0.018   1.461   0.010  0.00  0.00    +0.260 C 
ATOM     28  C   LIG    1       -0.734   1.954   1.269  0.00  0.00    +0.060 C 
ATOM     29  C   LIG    1       -0.758   1.968  -1.230  0.00  0.00    +0.060 C 
ENDBRANCH  24  27
ENDBRANCH  21  22
ENDBRANCH   5  21
TORSDOF 7
