REMARK  Name = ZINCrH00000No4zQ.0
REMARK                            x       y       z     vdW  Elec       q    Type
REMARK                         _______ _______ _______ _____ _____    ______ ____
ROOT
ATOM      1  C   LIG    1        4.212  -4.320  -0.061  0.00  0.00    +0.450 C 
ATOM      2  C   LIG    1        2.939  -3.845   0.168  0.00  0.00    -0.300 C 
ATOM      3  C   LIG    1        2.709  -2.438   0.513  0.00  0.00    +0.580 C 
ATOM      4  N   LIG    1        1.466  -1.982   0.735  0.00  0.00    -0.470 N 
ATOM      5  C   LIG    1        0.378  -2.766   0.664  0.00  0.00    +0.560 C 
ATOM      6  C   LIG    1        0.489  -4.189   0.320  0.00  0.00    -0.160 A 
ATOM      7  C   LIG    1       -0.637  -5.008   0.238  0.00  0.00    +0.110 A 
ATOM      8  C   LIG    1       -0.490  -6.341  -0.081  0.00  0.00    -0.010 A 
ATOM      9  C   LIG    1        0.766  -6.877  -0.322  0.00  0.00    +0.060 A 
ATOM     10  C   LIG    1        1.894  -6.084  -0.247  0.00  0.00    -0.010 A 
ATOM     11  O   LIG    1       -0.719  -2.288   0.882  0.00  0.00    -0.440 OA
ATOM     12  O   LIG    1        3.655  -1.676   0.599  0.00  0.00    -0.520 OA
ATOM     13  C   LIG    1        1.765  -4.738   0.074  0.00  0.00    +0.050 A 
ENDROOT
BRANCH   4  14
ATOM     14  C   LIG    1        1.298  -0.638   1.060  0.00  0.00    +0.200 A 
ATOM     15  N   LIG    1        0.158  -0.069   1.299  0.00  0.00    -0.460 NA
ATOM     16  C   LIG    1        0.182   1.217   1.592  0.00  0.00    +0.230 A 
ATOM     17  C   LIG    1        1.401   1.761   1.601  0.00  0.00    -0.130 A 
ATOM     18  S   LIG    1        2.565   0.501   1.202  0.00  0.00    +0.250 S 
ENDBRANCH   4  14
BRANCH   1  19
ATOM     19  N   LIG    1        5.253  -3.452  -0.170  0.00  0.00    -0.610 N 
ATOM     20  H   LIG    1        5.089  -2.495  -0.163  0.00  0.00    +0.430 HD
BRANCH  19  25
ATOM     21  C   LIG    1        8.914  -3.535  -0.519  0.00  0.00    +0.160 A 
ATOM     22  C   LIG    1        9.143  -4.904  -0.527  0.00  0.00    -0.100 A 
ATOM     23  C   LIG    1        8.083  -5.785  -0.417  0.00  0.00    +0.100 A 
ATOM     24  C   LIG    1        6.794  -5.306  -0.293  0.00  0.00    -0.070 A 
ATOM     25  C   LIG    1        6.558  -3.936  -0.290  0.00  0.00    +0.180 A 
ATOM     26  C   LIG    1        7.621  -3.050  -0.400  0.00  0.00    -0.040 A 
BRANCH  21  28
ATOM     27  C   LIG    1       11.262  -3.240  -0.745  0.00  0.00    +0.250 C 
ATOM     28  O   LIG    1        9.957  -2.671  -0.626  0.00  0.00    -0.310 OA
ENDBRANCH  21  28
ENDBRANCH  19  25
ENDBRANCH   1  19
TORSDOF 4
