REMARK  Name = ZINCpe00000MFiV7.0
REMARK                            x       y       z     vdW  Elec       q    Type
REMARK                         _______ _______ _______ _____ _____    ______ ____
ROOT
ATOM      1  N   LIG    1       -1.420   1.200  -5.043  0.00  0.00    -1.120 NA
ATOM      2  H   LIG    1       -2.363   1.066  -5.229  0.00  0.00    +0.420 HD
ENDROOT
BRANCH   1   3
ATOM      3  C   LIG    1       -0.730   2.380  -5.571  0.00  0.00    +0.240 C 
ATOM      4  C   LIG    1       -0.339   2.156  -7.050  0.00  0.00    +0.040 C 
ATOM      5  C   LIG    1       -1.491   2.848  -7.821  0.00  0.00    +0.190 C 
ATOM      6  N   LIG    1       -1.788   4.042  -6.989  0.00  0.00    -0.460 N 
ATOM      7  C   LIG    1       -1.679   3.592  -5.585  0.00  0.00    +0.200 C 
BRANCH   6   8
ATOM      8  C   LIG    1       -3.067   4.535  -7.260  0.00  0.00    +0.110 A 
ATOM      9  C   LIG    1       -3.879   3.894  -8.185  0.00  0.00    -0.020 A 
ATOM     10  C   LIG    1       -5.144   4.383  -8.450  0.00  0.00    +0.040 A 
ATOM     11  C   LIG    1       -5.601   5.511  -7.794  0.00  0.00    +0.000 A 
ATOM     12  C   LIG    1       -4.796   6.154  -6.872  0.00  0.00    +0.050 A 
ATOM     13  C   LIG    1       -3.532   5.666  -6.598  0.00  0.00    -0.050 A 
ATOM     14 CL   LIG    1       -2.524   6.468  -5.434  0.00  0.00    -0.060 Cl
ENDBRANCH   6   8
ENDBRANCH   1   3
BRANCH   1  15
ATOM     15  S   LIG    1       -0.591   0.095  -4.130  0.00  0.00    +2.780 S 
ATOM     16  O   LIG    1       -1.534  -0.897  -3.747  0.00  0.00    -0.970 OA
ATOM     17  O   LIG    1        0.602  -0.200  -4.843  0.00  0.00    -0.960 OA
BRANCH  15  19
ATOM     18  C   LIG    1        1.163   1.553  -2.677  0.00  0.00    +0.310 C 
ATOM     19  N   LIG    1       -0.127   0.861  -2.737  0.00  0.00    -1.000 NA
BRANCH  19  20
ATOM     20  C   LIG    1       -1.005   0.846  -1.565  0.00  0.00    +0.280 C 
ATOM     21  C   LIG    1       -0.281   0.175  -0.384  0.00  0.00    +0.080 C 
ATOM     22  C   LIG    1       -1.116   0.487   0.885  0.00  0.00    -0.310 C 
ATOM     23  S   LIG    1       -1.549   2.253   0.652  0.00  0.00    +2.390 S 
ATOM     24  O   LIG    1       -2.914   2.453   0.991  0.00  0.00    -0.930 OA
ATOM     25  O   LIG    1       -0.544   3.066   1.244  0.00  0.00    -0.930 OA
ATOM     26  C   LIG    1       -1.364   2.291  -1.168  0.00  0.00    -0.320 C 
ENDBRANCH  19  20
ENDBRANCH  15  19
ENDBRANCH   1  15
TORSDOF 5
