REMARK  Name = ZINCbu0000000GLe.0
REMARK                            x       y       z     vdW  Elec       q    Type
REMARK                         _______ _______ _______ _____ _____    ______ ____
ROOT
ATOM      1  C   LIG    1       -1.464   3.615   2.537  0.00  0.00    +0.180 C 
ATOM      2  C   LIG    1       -0.426   4.462   3.302  0.00  0.00    +0.050 C 
ATOM      3  C   LIG    1        0.579   4.909   2.210  0.00  0.00    +0.040 C 
ATOM      4  C   LIG    1        0.674   3.658   1.300  0.00  0.00    +0.050 C 
ATOM      5  C   LIG    1       -0.763   3.106   1.269  0.00  0.00    -0.080 C 
ATOM      6  C   LIG    1       -0.729   1.579   1.267  0.00  0.00    +0.010 C 
ATOM      7  C   LIG    1       -0.013   1.086   0.008  0.00  0.00    +0.020 C 
ATOM      8  C   LIG    1       -0.753   1.593  -1.231  0.00  0.00    +0.000 C 
ATOM      9  C   LIG    1       -0.768   3.123  -1.228  0.00  0.00    +0.010 C 
ATOM     10  C   LIG    1       -1.487   3.622   0.028  0.00  0.00    +0.040 C 
ENDROOT
BRANCH   1  11
ATOM     11  N   LIG    1       -1.896   2.480   3.363  0.00  0.00    -0.640 N 
ATOM     12  H   LIG    1       -2.538   1.906   2.837  0.00  0.00    +0.430 HD
ATOM     13  H   LIG    1       -2.356   2.824   4.193  0.00  0.00    +0.430 HD
ATOM     14  H   LIG    1       -1.092   1.931   3.627  0.00  0.00    +0.430 HD
ENDBRANCH   1  11
TORSDOF 1
