REMARK  Name = ZINCtV00000tRRFl.0
REMARK                            x       y       z     vdW  Elec       q    Type
REMARK                         _______ _______ _______ _____ _____    ______ ____
ROOT
ATOM      1  C   LIG    1       -5.368   5.450  -2.391  0.00  0.00    -0.100 C 
ATOM      2  C   LIG    1       -4.608   5.019  -1.349  0.00  0.00    +0.160 C 
ATOM      3  N   LIG    1       -5.017   5.247  -0.056  0.00  0.00    -0.640 N 
ATOM      4  H   LIG    1       -4.371   5.209   0.667  0.00  0.00    +0.420 HD
ATOM      5  C   LIG    1       -6.328   5.527   0.220  0.00  0.00    +0.220 C 
ATOM      6  C   LIG    1       -7.156   5.972  -0.749  0.00  0.00    -0.260 C 
ATOM      7  C   LIG    1       -8.504   6.262  -0.474  0.00  0.00    +0.400 C 
ATOM      8  C   LIG    1       -9.067   6.110   0.912  0.00  0.00    +0.030 C 
ATOM      9  C   LIG    1       -7.943   6.320   1.933  0.00  0.00    +0.060 C 
ATOM     10  O   LIG    1       -9.227   6.643  -1.373  0.00  0.00    -0.450 OA
ATOM     11  C   LIG    1       -6.823   5.322   1.631  0.00  0.00    +0.090 C 
ATOM     12  C   LIG    1       -6.660   6.178  -2.158  0.00  0.00    +0.190 C 
ENDROOT
BRANCH  12  13
ATOM     13  C   LIG    1       -6.440   7.650  -2.395  0.00  0.00    -0.050 A 
ATOM     14  C   LIG    1       -5.544   8.350  -1.609  0.00  0.00    +0.040 A 
ATOM     15  C   LIG    1       -5.338   9.700  -1.829  0.00  0.00    +0.040 A 
ATOM     16  C   LIG    1       -6.037  10.352  -2.827  0.00  0.00    +0.040 A 
ATOM     17  C   LIG    1       -6.938   9.654  -3.611  0.00  0.00    -0.030 A 
ATOM     18 CL   LIG    1       -7.816  10.474  -4.865  0.00  0.00    -0.050 Cl
ATOM     19  C   LIG    1       -7.140   8.302  -3.394  0.00  0.00    -0.010 A 
ATOM     20 CL   LIG    1       -8.271   7.424  -4.377  0.00  0.00    -0.030 Cl
ENDBRANCH  12  13
BRANCH   1  22
ATOM     21  N   LIG    1       -4.585   5.006  -4.796  0.00  0.00    -0.400 NA
ATOM     22  C   LIG    1       -4.932   5.202  -3.732  0.00  0.00    +0.250 C 
ENDBRANCH   1  22
BRANCH   2  23
ATOM     23  S   LIG    1       -3.094   4.172  -1.656  0.00  0.00    -0.030 S 
BRANCH  23  24
ATOM     24  C   LIG    1       -2.553   3.869   0.044  0.00  0.00    +0.120 C 
BRANCH  24  25
ATOM     25  C   LIG    1       -1.238   3.133   0.029  0.00  0.00    -0.090 A 
ATOM     26  C   LIG    1       -1.219   1.751   0.017  0.00  0.00    +0.030 A 
ATOM     27  C   LIG    1       -0.013   1.076   0.008  0.00  0.00    +0.010 A 
ATOM     28  C   LIG    1        1.175   1.783   0.000  0.00  0.00    +0.020 A 
ATOM     29  C   LIG    1        1.156   3.165   0.008  0.00  0.00    +0.010 A 
ATOM     30  C   LIG    1       -0.050   3.840   0.022  0.00  0.00    +0.030 A 
ENDBRANCH  24  25
ENDBRANCH  23  24
ENDBRANCH   2  23
TORSDOF 5
