REMARK  Name = ZINCtV000002OXdZ.0
REMARK                            x       y       z     vdW  Elec       q    Type
REMARK                         _______ _______ _______ _____ _____    ______ ____
ROOT
ATOM      1  C   LIG    1        1.958  -4.162  -0.039  0.00  0.00    -0.270 A 
ATOM      2  C   LIG    1        2.348  -2.838  -0.041  0.00  0.00    +0.340 A 
ATOM      3  N   LIG    1        1.237  -2.081  -0.021  0.00  0.00    -0.300 N 
ATOM      4  N   LIG    1        0.108  -2.905  -0.014  0.00  0.00    -0.270 NA
ATOM      5  C   LIG    1        0.491  -4.161  -0.025  0.00  0.00    +0.190 A 
ENDROOT
BRANCH   5   6
ATOM      6  C   LIG    1       -0.391  -5.352  -0.022  0.00  0.00    -0.030 A 
ATOM      7  C   LIG    1       -0.023  -6.497  -0.728  0.00  0.00    +0.110 A 
ATOM      8  C   LIG    1       -0.845  -7.605  -0.718  0.00  0.00    +0.020 A 
ATOM      9  C   LIG    1       -2.039  -7.577  -0.018  0.00  0.00    -0.020 A 
ATOM     10  C   LIG    1       -2.412  -6.441   0.680  0.00  0.00    +0.020 A 
ATOM     11 CL   LIG    1       -3.073  -8.973  -0.015  0.00  0.00    -0.070 Cl
ATOM     12  C   LIG    1       -1.595  -5.330   0.681  0.00  0.00    +0.070 A 
ENDBRANCH   5   6
BRANCH   3  13
ATOM     13  C   LIG    1        1.215  -0.680  -0.013  0.00  0.00    +0.140 A 
ATOM     14  C   LIG    1        0.002  -0.004   0.002  0.00  0.00    +0.030 A 
ATOM     15  C   LIG    1       -0.017   1.377   0.010  0.00  0.00    +0.040 A 
ATOM     16  C   LIG    1        1.171   2.086   0.002  0.00  0.00    +0.010 A 
ATOM     17  C   LIG    1        2.380   1.415  -0.013  0.00  0.00    +0.050 A 
ATOM     18  C   LIG    1        2.405   0.035  -0.021  0.00  0.00    +0.000 A 
ENDBRANCH   3  13
BRANCH   1  20
ATOM     19  O   LIG    1        2.360  -6.457  -0.057  0.00  0.00    -0.500 OA
ATOM     20  C   LIG    1        2.839  -5.340  -0.055  0.00  0.00    +0.550 C 
BRANCH  20  21
ATOM     21  O   LIG    1        4.177  -5.181  -0.067  0.00  0.00    -0.350 OA
BRANCH  21  22
ATOM     22  C   LIG    1        4.984  -6.388  -0.082  0.00  0.00    +0.290 C 
BRANCH  22  23
ATOM     23  C   LIG    1        6.444  -6.016  -0.094  0.00  0.00    -0.080 A 
ATOM     24  C   LIG    1        7.104  -5.843  -1.296  0.00  0.00    +0.050 A 
ATOM     25  C   LIG    1        8.442  -5.496  -1.308  0.00  0.00    +0.050 A 
ATOM     26  C   LIG    1        9.124  -5.332  -0.116  0.00  0.00    -0.080 A 
ATOM     27  C   LIG    1        8.465  -5.510   1.088  0.00  0.00    +0.050 A 
ATOM     28 BR   LIG    1       10.956  -4.865  -0.131  0.00  0.00    -0.040 Br
ATOM     29  C   LIG    1        7.126  -5.852   1.098  0.00  0.00    +0.050 A 
ENDBRANCH  22  23
ENDBRANCH  21  22
ENDBRANCH  20  21
ENDBRANCH   1  20
TORSDOF 6
