REMARK  Name = ZINCtV00000L6kWv.0
REMARK                            x       y       z     vdW  Elec       q    Type
REMARK                         _______ _______ _______ _____ _____    ______ ____
ROOT
ATOM      1  N   LIG    1        2.188   1.641   1.201  0.00  0.00    -0.500 N 
ATOM      2  C   LIG    1        3.334   0.942   1.055  0.00  0.00    +0.570 A 
ATOM      3  C   LIG    1        4.041   0.514   2.296  0.00  0.00    -0.220 A 
ATOM      4  C   LIG    1        3.420   0.881   3.577  0.00  0.00    +0.040 A 
ATOM      5  S   LIG    1        4.418   0.270   4.884  0.00  0.00    +0.300 S 
ATOM      6  C   LIG    1        5.551  -0.410   3.808  0.00  0.00    -0.270 A 
ATOM      7  C   LIG    1        6.797  -1.168   4.236  0.00  0.00    +0.120 C 
ATOM      8  C   LIG    1        7.316  -1.966   3.037  0.00  0.00    +0.030 C 
ATOM      9  C   LIG    1        7.442  -1.036   1.828  0.00  0.00    +0.020 C 
ATOM     10  C   LIG    1        6.047  -0.691   1.303  0.00  0.00    +0.100 C 
ATOM     11  N   LIG    1        2.294   1.562   3.570  0.00  0.00    -0.510 NA
ATOM     12  C   LIG    1        5.201  -0.189   2.468  0.00  0.00    -0.020 A 
ATOM     13  O   LIG    1        3.776   0.677  -0.045  0.00  0.00    -0.500 OA
ATOM     14  C   LIG    1        1.697   1.929   2.434  0.00  0.00    +0.330 A 
ENDROOT
BRANCH   1  15
ATOM     15  C   LIG    1        1.460   2.088   0.011  0.00  0.00    +0.230 C 
ATOM     16  C   LIG    1        1.012   0.871  -0.801  0.00  0.00    +0.050 C 
BRANCH  15  18
ATOM     17  C   LIG    1        2.762   4.219  -0.061  0.00  0.00    +0.020 C 
ATOM     18  C   LIG    1        2.374   2.965  -0.847  0.00  0.00    +0.040 C 
ENDBRANCH  15  18
ENDBRANCH   1  15
BRANCH  14  19
ATOM     19  S   LIG    1        0.234   2.813   2.537  0.00  0.00    +0.210 S 
BRANCH  19  20
ATOM     20  C   LIG    1       -0.022   2.778   4.280  0.00  0.00    -0.100 A 
ATOM     21  C   LIG    1       -0.962   1.907   4.832  0.00  0.00    +0.130 A 
ATOM     22  C   LIG    1       -1.155   1.878   6.196  0.00  0.00    +0.100 A 
ATOM     23  C   LIG    1       -0.426   2.722   7.019  0.00  0.00    -0.010 A 
ATOM     24  C   LIG    1        0.505   3.594   6.476  0.00  0.00    +0.120 A 
ATOM     25 CL   LIG    1       -0.679   2.687   8.737  0.00  0.00    -0.020 Cl
ATOM     26  C   LIG    1        0.710   3.625   5.113  0.00  0.00    +0.070 A 
BRANCH  26  27
ATOM     27  N   LIG    1        1.705   4.556   4.533  0.00  0.00    -0.020 N 
ATOM     28  O   LIG    1        1.899   4.585   3.231  0.00  0.00    -0.140 OA
ATOM     29  O   LIG    1        2.395   5.355   5.320  0.00  0.00    -0.160 OA
ENDBRANCH  26  27
ENDBRANCH  19  20
ENDBRANCH  14  19
TORSDOF 5
