REMARK  Name = ZINCvU0000000EtX.0
REMARK                            x       y       z     vdW  Elec       q    Type
REMARK                         _______ _______ _______ _____ _____    ______ ____
ROOT
ATOM      1  C   LIG    1        5.783   9.265   0.217  0.00  0.00    +0.570 C 
ATOM      2  N   LIG    1        7.059   8.854   0.075  0.00  0.00    -0.610 N 
ATOM      3  C   LIG    1        7.378   7.423  -0.022  0.00  0.00    +0.280 C 
ATOM      4  C   LIG    1        8.432   7.080   1.035  0.00  0.00    +0.020 C 
ATOM      5  C   LIG    1        9.639   8.005   0.864  0.00  0.00    +0.040 C 
ATOM      6  C   LIG    1        9.204   9.457   1.071  0.00  0.00    +0.070 C 
ATOM      7  C   LIG    1        8.157   9.828   0.009  0.00  0.00    +0.310 C 
ATOM      8  O   LIG    1        5.541  10.444   0.393  0.00  0.00    -0.530 OA
ENDROOT
BRANCH   6   9
ATOM      9  C   LIG    1       10.399  10.365   0.936  0.00  0.00    +0.100 A 
ATOM     10  N   LIG    1       11.119  10.454  -0.117  0.00  0.00    -0.460 NA
ATOM     11  C   LIG    1       12.157  11.312  -0.098  0.00  0.00    +0.080 A 
ATOM     12  C   LIG    1       13.098  11.609  -1.105  0.00  0.00    +0.080 A 
ATOM     13  C   LIG    1       14.088  12.517  -0.878  0.00  0.00    +0.030 A 
ATOM     14  C   LIG    1       14.189  13.166   0.344  0.00  0.00    +0.040 A 
ATOM     15  C   LIG    1       13.284  12.896   1.346  0.00  0.00    +0.060 A 
ATOM     16  C   LIG    1       12.265  11.970   1.132  0.00  0.00    -0.180 A 
ATOM     17  S   LIG    1       10.965  11.398   2.171  0.00  0.00    +0.110 S 
ENDBRANCH   6   9
BRANCH   1  21
ATOM     18  C   LIG    1        2.612   6.446   0.049  0.00  0.00    +0.180 A 
ATOM     19  C   LIG    1        2.506   7.561   0.874  0.00  0.00    -0.020 A 
ATOM     20  C   LIG    1        3.535   8.474   0.935  0.00  0.00    +0.100 A 
ATOM     21  C   LIG    1        4.681   8.286   0.158  0.00  0.00    -0.150 A 
ATOM     22  C   LIG    1        4.782   7.167  -0.673  0.00  0.00    +0.070 A 
ATOM     23  C   LIG    1        3.752   6.255  -0.726  0.00  0.00    +0.010 A 
BRANCH  18  26
ATOM     24  O   LIG    1        2.058   4.995  -2.110  0.00  0.00    -0.500 OA
ATOM     25  C   LIG    1        1.382   4.786  -1.120  0.00  0.00    +0.600 C 
ATOM     26  N   LIG    1        1.572   5.521  -0.006  0.00  0.00    -0.670 N 
ATOM     27  H   LIG    1        0.984   5.406   0.757  0.00  0.00    +0.410 HD
BRANCH  25  28
ATOM     28  C   LIG    1        0.361   3.734  -1.138  0.00  0.00    -0.280 A 
ATOM     29  C   LIG    1        0.076   2.925  -2.203  0.00  0.00    +0.120 A 
ATOM     30  C   LIG    1       -0.929   2.023  -1.945  0.00  0.00    +0.000 A 
ATOM     31  C   LIG    1       -1.454   2.094  -0.716  0.00  0.00    -0.050 A 
ATOM     32  S   LIG    1       -0.692   3.311   0.204  0.00  0.00    +0.200 S 
ENDBRANCH  25  28
ENDBRANCH  18  26
ENDBRANCH   1  21
TORSDOF 4
