REMARK  Name = ZINCrD000000fQdd.0
REMARK                            x       y       z     vdW  Elec       q    Type
REMARK                         _______ _______ _______ _____ _____    ______ ____
ROOT
ATOM      1  C   LIG    1       -2.446   0.746   0.133  0.00  0.00    -0.080 A 
ATOM      2  C   LIG    1       -2.357  -0.644   0.223  0.00  0.00    +0.030 A 
ATOM      3  C   LIG    1       -3.505  -1.400   0.336  0.00  0.00    +0.120 A 
ATOM      4  C   LIG    1       -4.744  -0.785   0.346  0.00  0.00    -0.650 A 
ATOM      5  C   LIG    1       -4.840   0.592   0.251  0.00  0.00    +0.130 A 
ATOM      6  C   LIG    1       -3.699   1.361   0.144  0.00  0.00    +0.070 A 
ENDROOT
BRANCH   1   9
ATOM      7  N   LIG    1       -0.011   0.966   0.007  0.00  0.00    -0.670 N 
ATOM      8  H   LIG    1        0.052  -0.002   0.007  0.00  0.00    +0.410 HD
ATOM      9  C   LIG    1       -1.220   1.562   0.018  0.00  0.00    +0.560 C 
ATOM     10  O   LIG    1       -1.301   2.772  -0.066  0.00  0.00    -0.500 OA
BRANCH   7  14
ATOM     11  C   LIG    1        3.444   3.272  -0.042  0.00  0.00    -0.190 A 
ATOM     12  C   LIG    1        3.418   2.061   0.661  0.00  0.00    +0.100 A 
ATOM     13  C   LIG    1        2.280   1.306   0.675  0.00  0.00    -0.030 A 
ATOM     14  C   LIG    1        1.147   1.739  -0.009  0.00  0.00    +0.170 A 
ATOM     15  C   LIG    1        1.170   2.939  -0.714  0.00  0.00    +0.020 A 
ATOM     16  C   LIG    1        2.302   3.704  -0.728  0.00  0.00    +0.090 A 
BRANCH  11  18
ATOM     17  C   LIG    1        4.691   5.390  -0.818  0.00  0.00    +0.070 C 
ATOM     18  C   LIG    1        4.666   4.087  -0.060  0.00  0.00    +0.400 C 
ATOM     19  O   LIG    1        5.654   3.711   0.534  0.00  0.00    -0.460 OA
ENDBRANCH  11  18
ENDBRANCH   7  14
ENDBRANCH   1   9
BRANCH   4  20
ATOM     20  S   LIG    1       -6.206  -1.758   0.483  0.00  0.00    +2.690 S 
ATOM     21  O   LIG    1       -7.210  -0.903   1.012  0.00  0.00    -0.950 OA
ATOM     22  O   LIG    1       -5.820  -2.978   1.100  0.00  0.00    -0.950 OA
BRANCH  20  23
ATOM     23  N   LIG    1       -6.684  -2.143  -1.056  0.00  0.00    -0.990 NA
ATOM     24  C   LIG    1       -7.608  -1.271  -1.793  0.00  0.00    +0.290 C 
ATOM     25  C   LIG    1       -6.972  -0.919  -3.147  0.00  0.00    +0.010 C 
ATOM     26  C   LIG    1       -6.605  -2.210  -3.882  0.00  0.00    +0.020 C 
ATOM     27  C   LIG    1       -5.581  -2.995  -3.059  0.00  0.00    +0.010 C 
ATOM     28  C   LIG    1       -6.196  -3.367  -1.706  0.00  0.00    +0.290 C 
ENDBRANCH  20  23
ENDBRANCH   4  20
TORSDOF 5
