REMARK  Name = ZINCvU0000000H00.0
REMARK                            x       y       z     vdW  Elec       q    Type
REMARK                         _______ _______ _______ _____ _____    ______ ____
ROOT
ATOM      1  C   LIG    1        3.123  -0.582   1.426  0.00  0.00    +0.520 C 
ATOM      2  N   LIG    1        2.099   0.122   0.904  0.00  0.00    -0.600 N 
ATOM      3  C   LIG    1        0.760  -0.472   0.796  0.00  0.00    +0.280 C 
ATOM      4  C   LIG    1        0.280  -0.348  -0.653  0.00  0.00    +0.040 C 
ATOM      5  C   LIG    1        0.354   1.118  -1.087  0.00  0.00    +0.090 C 
ATOM      6  C   LIG    1        1.805   1.600  -1.016  0.00  0.00    +0.040 C 
ATOM      7  C   LIG    1        2.302   1.498   0.430  0.00  0.00    +0.280 C 
ATOM      8  O   LIG    1        2.924  -1.681   1.897  0.00  0.00    -0.530 OA
ENDROOT
BRANCH   5   9
ATOM      9  C   LIG    1       -0.149   1.249  -2.502  0.00  0.00    +0.100 A 
ATOM     10  N   LIG    1        0.374   0.658  -3.509  0.00  0.00    -0.460 NA
ATOM     11  C   LIG    1       -0.184   0.864  -4.718  0.00  0.00    +0.080 A 
ATOM     12  C   LIG    1        0.179   0.344  -5.976  0.00  0.00    +0.070 A 
ATOM     13  C   LIG    1       -0.522   0.687  -7.093  0.00  0.00    +0.030 A 
ATOM     14  C   LIG    1       -1.605   1.551  -7.013  0.00  0.00    +0.040 A 
ATOM     15  C   LIG    1       -1.983   2.073  -5.796  0.00  0.00    +0.060 A 
ATOM     16  C   LIG    1       -1.277   1.734  -4.644  0.00  0.00    -0.180 A 
ATOM     17  S   LIG    1       -1.483   2.208  -2.961  0.00  0.00    +0.100 S 
ENDBRANCH   5   9
BRANCH   1  18
ATOM     18  C   LIG    1        4.514  -0.002   1.426  0.00  0.00    +0.240 C 
BRANCH  18  19
ATOM     19  N   LIG    1        5.219  -0.424   2.639  0.00  0.00    -0.710 N 
ATOM     20  H   LIG    1        4.957  -1.239   3.093  0.00  0.00    +0.410 HD
ATOM     21  C   LIG    1        6.233   0.321   3.122  0.00  0.00    +0.570 C 
ATOM     22  O   LIG    1        6.562   1.343   2.552  0.00  0.00    -0.520 OA
BRANCH  21  23
ATOM     23  C   LIG    1        6.944  -0.104   4.346  0.00  0.00    -0.130 A 
ATOM     24  C   LIG    1        6.565  -1.275   5.005  0.00  0.00    +0.070 A 
ATOM     25  C   LIG    1        7.236  -1.669   6.144  0.00  0.00    +0.020 A 
ATOM     26  C   LIG    1        8.277  -0.901   6.639  0.00  0.00    -0.010 A 
ATOM     27  C   LIG    1        8.655   0.263   5.991  0.00  0.00    +0.020 A 
ATOM     28 CL   LIG    1        9.113  -1.401   8.076  0.00  0.00    -0.060 Cl
ATOM     29  C   LIG    1        7.995   0.665   4.849  0.00  0.00    +0.110 A 
ENDBRANCH  21  23
ENDBRANCH  18  19
BRANCH  18  31
ATOM     30  C   LIG    1        4.562  -0.020  -1.072  0.00  0.00    +0.030 C 
ATOM     31  C   LIG    1        5.273  -0.500   0.195  0.00  0.00    -0.020 C 
ATOM     32  C   LIG    1        6.700   0.051   0.218  0.00  0.00    +0.030 C 
ENDBRANCH  18  31
ENDBRANCH   1  18
TORSDOF 5
