REMARK  Name = ZINCrD00000F5LuB.0
REMARK                            x       y       z     vdW  Elec       q    Type
REMARK                         _______ _______ _______ _____ _____    ______ ____
ROOT
ATOM      1  C   LIG    1        8.642  -6.110   0.516  0.00  0.00    -0.670 A 
ATOM      2  C   LIG    1        7.457  -6.824   0.525  0.00  0.00    +0.120 A 
ATOM      3  C   LIG    1        6.249  -6.165   0.437  0.00  0.00    +0.030 A 
ATOM      4  C   LIG    1        6.224  -4.770   0.340  0.00  0.00    -0.020 A 
ATOM      5  C   LIG    1        7.426  -4.055   0.326  0.00  0.00    +0.020 A 
ATOM      6  C   LIG    1        8.626  -4.729   0.420  0.00  0.00    +0.120 A 
ENDROOT
BRANCH   1   7
ATOM      7  S   LIG    1       10.180  -6.962   0.628  0.00  0.00    +2.690 S 
ATOM      8  O   LIG    1        9.903  -8.209   1.251  0.00  0.00    -0.950 OA
ATOM      9  O   LIG    1       11.120  -6.028   1.142  0.00  0.00    -0.950 OA
BRANCH   7  10
ATOM     10  N   LIG    1       10.662  -7.309  -0.917  0.00  0.00    -1.000 NA
BRANCH  10  12
ATOM     11  C   LIG    1       12.967  -6.735  -1.501  0.00  0.00    +0.010 C 
ATOM     12  C   LIG    1       11.493  -6.355  -1.657  0.00  0.00    +0.280 C 
ENDBRANCH  10  12
BRANCH  10  13
ATOM     13  C   LIG    1       10.258  -8.569  -1.546  0.00  0.00    +0.290 C 
ATOM     14  C   LIG    1        8.997  -8.341  -2.381  0.00  0.00    +0.010 C 
ENDBRANCH  10  13
ENDBRANCH   7  10
ENDBRANCH   1   7
BRANCH   4  15
ATOM     15  C   LIG    1        4.939  -4.058   0.245  0.00  0.00    +0.110 C 
ATOM     16  C   LIG    1        4.919  -2.713   0.151  0.00  0.00    -0.060 C 
BRANCH  16  17
ATOM     17  C   LIG    1        3.641  -2.005   0.057  0.00  0.00    +0.550 C 
ATOM     18  N   LIG    1        3.621  -0.660  -0.036  0.00  0.00    -0.660 N 
ATOM     19  H   LIG    1        4.452  -0.168  -0.123  0.00  0.00    +0.420 HD
ATOM     20  O   LIG    1        2.597  -2.630   0.064  0.00  0.00    -0.520 OA
BRANCH  18  21
ATOM     21  C   LIG    1        2.401   0.025  -0.009  0.00  0.00    +0.120 A 
ATOM     22  C   LIG    1        1.296  -0.546   0.605  0.00  0.00    +0.050 A 
ATOM     23  C   LIG    1        0.092   0.133   0.630  0.00  0.00    +0.000 A 
ATOM     24  C   LIG    1       -0.015   1.380   0.043  0.00  0.00    +0.030 A 
ATOM     25  C   LIG    1        1.082   1.956  -0.571  0.00  0.00    -0.060 A 
ATOM     26  C   LIG    1        2.292   1.283  -0.601  0.00  0.00    +0.100 A 
BRANCH  26  27
ATOM     27  O   LIG    1        3.372   1.847  -1.204  0.00  0.00    -0.320 OA
ATOM     28  C   LIG    1        3.187   3.138  -1.789  0.00  0.00    +0.250 C 
ENDBRANCH  26  27
ENDBRANCH  18  21
ENDBRANCH  16  17
ENDBRANCH   4  15
TORSDOF 8
