REMARK  Name = ZINCrD0000075vdu.0
REMARK                            x       y       z     vdW  Elec       q    Type
REMARK                         _______ _______ _______ _____ _____    ______ ____
ROOT
ATOM      1  C   LIG    1       -3.600   1.954   0.030  0.00  0.00    +0.520 C 
ATOM      2  N   LIG    1       -4.838   1.422   0.033  0.00  0.00    -0.610 N 
ATOM      3  C   LIG    1       -5.027  -0.035   0.019  0.00  0.00    +0.260 C 
ATOM      4  C   LIG    1       -5.939  -0.420   1.195  0.00  0.00    +0.020 C 
ATOM      5  C   LIG    1       -7.239   0.382   1.109  0.00  0.00    +0.000 C 
ATOM      6  C   LIG    1       -6.926   1.877   1.212  0.00  0.00    +0.020 C 
ATOM      7  C   LIG    1       -6.025   2.288   0.043  0.00  0.00    +0.280 C 
ATOM      8  O   LIG    1       -3.458   3.158   0.036  0.00  0.00    -0.520 OA
ENDROOT
BRANCH   1   9
ATOM      9  C   LIG    1       -2.393   1.052   0.019  0.00  0.00    +0.250 C 
BRANCH   9  10
ATOM     10  O   LIG    1       -1.186   1.859   0.018  0.00  0.00    -0.330 OA
BRANCH  10  12
ATOM     11  O   LIG    1        0.002  -0.004   0.002  0.00  0.00    -0.500 OA
ATOM     12  C   LIG    1       -0.014   1.204   0.009  0.00  0.00    +0.470 C 
BRANCH  12  13
ATOM     13  C   LIG    1        1.280   1.975   0.000  0.00  0.00    +0.170 C 
BRANCH  13  14
ATOM     14  C   LIG    1        2.439   1.012  -0.016  0.00  0.00    -0.120 A 
ATOM     15  C   LIG    1        3.092   0.736  -1.202  0.00  0.00    +0.050 A 
ATOM     16  C   LIG    1        4.155  -0.148  -1.217  0.00  0.00    +0.000 A 
ATOM     17  C   LIG    1        4.566  -0.757  -0.046  0.00  0.00    +0.060 A 
ATOM     18  C   LIG    1        3.914  -0.483   1.141  0.00  0.00    -0.010 A 
ATOM     19  C   LIG    1        2.853   0.407   1.159  0.00  0.00    +0.120 A 
ATOM     20  F   LIG    1        2.219   0.680   2.320  0.00  0.00    -0.140 F 
ENDBRANCH  13  14
ENDBRANCH  12  13
ENDBRANCH  10  12
ENDBRANCH   9  10
ENDBRANCH   1   9
BRANCH   5  21
ATOM     21  C   LIG    1       -8.166  -0.025   2.256  0.00  0.00    +0.070 C 
BRANCH  21  22
ATOM     22  C   LIG    1       -8.573  -1.466   2.085  0.00  0.00    -0.080 A 
ATOM     23  C   LIG    1       -9.711  -1.782   1.367  0.00  0.00    +0.000 A 
ATOM     24  C   LIG    1      -10.082  -3.104   1.207  0.00  0.00    +0.000 A 
ATOM     25  C   LIG    1       -9.321  -4.109   1.773  0.00  0.00    +0.000 A 
ATOM     26  C   LIG    1       -8.185  -3.793   2.495  0.00  0.00    +0.000 A 
ATOM     27  C   LIG    1       -7.812  -2.471   2.651  0.00  0.00    +0.000 A 
ENDBRANCH  21  22
ENDBRANCH   5  21
TORSDOF 7
