REMARK  Name = ZINCpe000000Yzx2.0
REMARK                            x       y       z     vdW  Elec       q    Type
REMARK                         _______ _______ _______ _____ _____    ______ ____
ROOT
ATOM      1  C   LIG    1       -0.083   1.048  -2.407  0.00  0.00    +0.220 C 
ENDROOT
BRANCH   1   2
ATOM      2  C   LIG    1        1.363   1.230  -2.788  0.00  0.00    +0.490 C 
ATOM      3  N   LIG    1        1.866   0.580  -3.857  0.00  0.00    -0.610 N 
ATOM      4  C   LIG    1        1.043  -0.382  -4.603  0.00  0.00    +0.260 C 
ATOM      5  C   LIG    1        1.057   0.012  -6.088  0.00  0.00    +0.020 C 
ATOM      6  C   LIG    1        2.506   0.107  -6.571  0.00  0.00    +0.010 C 
ATOM      7  C   LIG    1        3.240   1.192  -5.779  0.00  0.00    +0.020 C 
ATOM      8  C   LIG    1        3.249   0.815  -4.294  0.00  0.00    +0.270 C 
ATOM      9  O   LIG    1        2.075   1.962  -2.133  0.00  0.00    -0.530 OA
ENDBRANCH   1   2
BRANCH   1  13
ATOM     10  N   LIG    1        0.458   2.846   1.377  0.00  0.00    -0.520 NA
ATOM     11  C   LIG    1        0.252   1.392   1.329  0.00  0.00    +0.190 C 
ATOM     12  C   LIG    1        0.565   0.881  -0.080  0.00  0.00    +0.180 C 
ATOM     13  N   LIG    1       -0.301   1.566  -1.050  0.00  0.00    -0.510 NA
ATOM     14  C   LIG    1       -0.095   3.020  -1.002  0.00  0.00    +0.200 C 
ATOM     15  C   LIG    1       -0.408   3.531   0.407  0.00  0.00    +0.180 C 
BRANCH  10  16
ATOM     16  C   LIG    1        0.240   3.364   2.734  0.00  0.00    +0.200 C 
BRANCH  16  20
ATOM     17  N   LIG    1        1.304   3.166   4.958  0.00  0.00    -0.860 N 
ATOM     18  H   LIG    1        1.989   2.818   5.551  0.00  0.00    +0.400 HD
ATOM     19  H   LIG    1        0.620   3.761   5.304  0.00  0.00    +0.400 HD
ATOM     20  C   LIG    1        1.304   2.823   3.655  0.00  0.00    +0.520 C 
ATOM     21  O   LIG    1        2.159   2.080   3.223  0.00  0.00    -0.520 OA
ENDBRANCH  16  20
ENDBRANCH  10  16
ENDBRANCH   1  13
BRANCH   1  22
ATOM     22  C   LIG    1       -0.957   1.800  -3.378  0.00  0.00    -0.070 A 
ATOM     23  C   LIG    1       -2.077   1.192  -3.914  0.00  0.00    +0.020 A 
ATOM     24  C   LIG    1       -2.881   1.883  -4.801  0.00  0.00    +0.000 A 
ATOM     25  C   LIG    1       -2.559   3.179  -5.160  0.00  0.00    +0.010 A 
ATOM     26  C   LIG    1       -1.436   3.785  -4.628  0.00  0.00    +0.000 A 
ATOM     27  C   LIG    1       -0.635   3.095  -3.737  0.00  0.00    +0.010 A 
ENDBRANCH   1  22
TORSDOF 5
