REMARK  Name = ZINCpe000000URkt.0
REMARK                            x       y       z     vdW  Elec       q    Type
REMARK                         _______ _______ _______ _____ _____    ______ ____
ROOT
ATOM      1  N   LIG    1       -1.968   2.419  -8.206  0.00  0.00    -0.740 N 
ATOM      2  H   LIG    1       -1.171   1.871  -8.127  0.00  0.00    +0.400 HD
ATOM      3  C   LIG    1       -2.598   2.853  -7.097  0.00  0.00    +0.700 C 
ATOM      4  N   LIG    1       -2.122   2.527  -5.879  0.00  0.00    -0.740 N 
ATOM      5  H   LIG    1       -1.325   1.980  -5.801  0.00  0.00    +0.400 HD
ATOM      6  O   LIG    1       -3.597   3.539  -7.195  0.00  0.00    -0.590 OA
ENDROOT
BRANCH   1  10
ATOM      7  C   LIG    1       -2.976   2.103 -12.339  0.00  0.00    -0.010 C 
ATOM      8  C   LIG    1       -1.888   3.099 -11.934  0.00  0.00    +0.060 C 
ATOM      9  C   LIG    1       -1.347   2.729 -10.551  0.00  0.00    +0.010 C 
ATOM     10  C   LIG    1       -2.486   2.773  -9.530  0.00  0.00    +0.250 C 
ATOM     11  C   LIG    1       -3.573   1.776  -9.935  0.00  0.00    +0.010 C 
ATOM     12  C   LIG    1       -4.114   2.146 -11.318  0.00  0.00    +0.030 C 
BRANCH   7  16
ATOM     13  C   LIG    1       -4.999   2.078 -15.589  0.00  0.00    +0.290 C 
ATOM     14  N   LIG    1       -4.481   1.724 -14.265  0.00  0.00    -0.740 N 
ATOM     15  H   LIG    1       -4.838   0.954 -13.795  0.00  0.00    +0.400 HD
ATOM     16  C   LIG    1       -3.509   2.467 -13.701  0.00  0.00    +0.520 C 
ATOM     17  O   LIG    1       -3.062   3.429 -14.289  0.00  0.00    -0.540 OA
ENDBRANCH   7  16
ENDBRANCH   1  10
BRANCH   4  18
ATOM     18  C   LIG    1       -2.807   3.000  -4.674  0.00  0.00    +0.340 C 
BRANCH  18  19
ATOM     19  C   LIG    1       -2.079   2.501  -3.453  0.00  0.00    -0.110 A 
ATOM     20  C   LIG    1       -1.066   3.259  -2.894  0.00  0.00    +0.030 A 
ATOM     21  C   LIG    1       -0.398   2.801  -1.774  0.00  0.00    +0.010 A 
ATOM     22  C   LIG    1       -0.742   1.585  -1.213  0.00  0.00    -0.060 A 
ATOM     23  C   LIG    1       -1.750   0.825  -1.775  0.00  0.00    +0.010 A 
ATOM     24  C   LIG    1       -2.422   1.285  -2.892  0.00  0.00    +0.020 A 
BRANCH  22  25
ATOM     25  C   LIG    1       -0.013   1.086   0.008  0.00  0.00    +0.110 C 
BRANCH  25  26
ATOM     26  C   LIG    1       -0.718   1.572   1.248  0.00  0.00    +0.520 C 
ATOM     27  O   LIG    1       -1.714   2.256   1.150  0.00  0.00    -0.530 OA
ATOM     28  N   LIG    1       -0.242   1.246   2.466  0.00  0.00    -0.860 N 
ATOM     29  H   LIG    1       -0.696   1.559   3.264  0.00  0.00    +0.400 HD
ATOM     30  H   LIG    1        0.555   0.699   2.544  0.00  0.00    +0.400 HD
ENDBRANCH  25  26
ENDBRANCH  22  25
ENDBRANCH  18  19
ENDBRANCH   4  18
TORSDOF 6
