REMARK  Name = ZINCrD00000F5Ljn.2
REMARK                            x       y       z     vdW  Elec       q    Type
REMARK                         _______ _______ _______ _____ _____    ______ ____
ROOT
ATOM      1  C   LIG    1        4.627   5.064   1.589  0.00  0.00    +0.550 C 
ATOM      2  N   LIG    1        4.223   3.802   1.343  0.00  0.00    -0.720 N 
ATOM      3  H   LIG    1        3.898   3.247   2.069  0.00  0.00    +0.400 HD
ATOM      4  O   LIG    1        5.034   5.761   0.678  0.00  0.00    -0.540 OA
ENDROOT
BRANCH   1   6
ATOM      5  C   LIG    1        4.972   6.846   3.200  0.00  0.00    +0.160 C 
ATOM      6  C   LIG    1        4.574   5.600   2.958  0.00  0.00    -0.220 C 
BRANCH   6   7
ATOM      7  C   LIG    1        4.070   4.737   4.085  0.00  0.00    +0.260 C 
BRANCH   7   8
ATOM      8  N   LIG    1        2.604   4.820   4.148  0.00  0.00    -0.520 NA
ATOM      9  C   LIG    1        1.992   4.225   2.951  0.00  0.00    +0.150 C 
ATOM     10  C   LIG    1        0.467   4.270   3.088  0.00  0.00    +0.160 C 
ATOM     11  O   LIG    1        0.052   5.625   3.283  0.00  0.00    -0.370 OA
ATOM     12  C   LIG    1        0.639   6.249   4.423  0.00  0.00    +0.120 C 
ATOM     13  C   LIG    1        0.180   5.540   5.706  0.00  0.00    +0.010 C 
ATOM     14  C   LIG    1       -0.565   6.597   6.548  0.00  0.00    +0.020 C 
ATOM     15  C   LIG    1       -1.033   7.649   5.512  0.00  0.00    +0.020 C 
ATOM     16  C   LIG    1        0.159   7.709   4.523  0.00  0.00    +0.050 C 
ATOM     17  C   LIG    1       -0.176   3.715   1.816  0.00  0.00    +0.050 C 
ATOM     18  C   LIG    1        2.162   6.212   4.322  0.00  0.00    +0.170 C 
ENDBRANCH   7   8
ENDBRANCH   6   7
ENDBRANCH   1   6
BRANCH   2  19
ATOM     19  C   LIG    1        4.275   3.269  -0.021  0.00  0.00    +0.360 C 
BRANCH  19  20
ATOM     20  C   LIG    1        3.773   1.848  -0.024  0.00  0.00    -0.200 A 
ATOM     21  C   LIG    1        4.524   0.735  -0.036  0.00  0.00    +0.250 A 
ATOM     22  N   LIG    1        3.720  -0.371  -0.034  0.00  0.00    -0.590 N 
ATOM     23  H   LIG    1        4.034  -1.289  -0.042  0.00  0.00    +0.420 HD
ATOM     24  C   LIG    1        2.397   0.012  -0.020  0.00  0.00    +0.100 A 
ATOM     25  C   LIG    1        1.197  -0.691  -0.013  0.00  0.00    -0.010 A 
ATOM     26  C   LIG    1        0.002  -0.004   0.002  0.00  0.00    +0.030 A 
ATOM     27  C   LIG    1       -0.017   1.384   0.010  0.00  0.00    -0.010 A 
ATOM     28  C   LIG    1        1.151   2.094   0.002  0.00  0.00    +0.060 A 
ATOM     29  C   LIG    1        2.373   1.419  -0.013  0.00  0.00    -0.100 A 
ENDBRANCH  19  20
ENDBRANCH   2  19
TORSDOF 5
