REMARK  Name = ZINCnE000001LMsD.1
REMARK                            x       y       z     vdW  Elec       q    Type
REMARK                         _______ _______ _______ _____ _____    ______ ____
ROOT
ATOM      1  N   LIG    1        2.532   2.924  -0.006  0.00  0.00    -0.700 NA
ATOM      2  C   LIG    1        3.875   2.813  -0.020  0.00  0.00    +0.660 C 
ATOM      3  N   LIG    1        4.643   3.921  -0.021  0.00  0.00    -0.630 N 
ATOM      4  C   LIG    1        4.037   5.262  -0.014  0.00  0.00    +0.260 C 
ATOM      5  C   LIG    1        4.691   6.078   1.112  0.00  0.00    +0.200 C 
ATOM      6  O   LIG    1        6.112   6.024   0.965  0.00  0.00    -0.380 OA
ATOM      7  C   LIG    1        6.664   4.711   1.087  0.00  0.00    +0.190 C 
ATOM      8  C   LIG    1        6.111   3.825  -0.036  0.00  0.00    +0.270 C 
ATOM      9  O   LIG    1        4.395   1.714  -0.031  0.00  0.00    -0.620 OA
ENDROOT
BRANCH   7  10
ATOM     10  C   LIG    1        8.166   4.784   0.976  0.00  0.00    -0.060 A 
ATOM     11  C   LIG    1        8.752   5.707   0.132  0.00  0.00    +0.050 A 
ATOM     12  C   LIG    1       10.130   5.778   0.035  0.00  0.00    +0.020 A 
ATOM     13  C   LIG    1       10.920   4.919   0.773  0.00  0.00    +0.020 A 
ATOM     14  C   LIG    1       10.333   3.990   1.615  0.00  0.00    -0.040 A 
ATOM     15 CL   LIG    1       11.325   2.910   2.543  0.00  0.00    -0.070 Cl
ATOM     16  C   LIG    1        8.955   3.923   1.716  0.00  0.00    +0.040 A 
ENDBRANCH   7  10
BRANCH   1  20
ATOM     17  C   LIG    1        0.002  -0.004   0.002  0.00  0.00    -0.120 A 
ATOM     18  C   LIG    1        1.278  -0.405  -0.012  0.00  0.00    +0.200 A 
ATOM     19  N   LIG    1        2.180   0.560  -0.016  0.00  0.00    -0.540 NA
ATOM     20  C   LIG    1        1.739   1.779  -0.005  0.00  0.00    +0.390 A 
ATOM     21  S   LIG    1       -0.022   1.758   0.012  0.00  0.00    -0.060 S 
BRANCH  17  23
ATOM     22  C   LIG    1       -2.369  -0.182   0.024  0.00  0.00    +0.220 C 
ATOM     23  O   LIG    1       -1.089  -0.816   0.008  0.00  0.00    -0.290 OA
ENDBRANCH  17  23
ENDBRANCH   1  20
TORSDOF 3
