REMARK  Name = ZINCrD000000CYOS.0
REMARK                            x       y       z     vdW  Elec       q    Type
REMARK                         _______ _______ _______ _____ _____    ______ ____
ROOT
ATOM      1  C   LIG    1       -0.072  -5.067  -0.030  0.00  0.00    +0.260 C 
ATOM      2  C   LIG    1        0.425  -6.400   0.577  0.00  0.00    +0.070 C 
ATOM      3  C   LIG    1       -0.315  -7.438  -0.295  0.00  0.00    +0.280 C 
ATOM      4  N   LIG    1       -0.585  -6.760  -1.568  0.00  0.00    -0.560 N 
ATOM      5  C   LIG    1       -0.461  -5.427  -1.447  0.00  0.00    +0.500 C 
ATOM      6  O   LIG    1       -0.635  -4.628  -2.343  0.00  0.00    -0.480 OA
ENDROOT
BRANCH   4   7
ATOM      7  C   LIG    1       -0.927  -7.416  -2.756  0.00  0.00    +0.200 A 
ATOM      8  C   LIG    1       -1.284  -6.681  -3.879  0.00  0.00    +0.010 A 
ATOM      9  C   LIG    1       -1.616  -7.332  -5.051  0.00  0.00    +0.100 A 
ATOM     10  C   LIG    1       -1.603  -8.714  -5.104  0.00  0.00    -0.210 A 
ATOM     11  C   LIG    1       -1.252  -9.448  -3.986  0.00  0.00    +0.100 A 
ATOM     12  C   LIG    1       -0.914  -8.803  -2.812  0.00  0.00    -0.020 A 
BRANCH  10  13
ATOM     13  C   LIG    1       -1.970  -9.420  -6.383  0.00  0.00    +0.510 C 
ATOM     14  F   LIG    1       -1.279 -10.634  -6.461  0.00  0.00    -0.180 F 
ATOM     15  F   LIG    1       -1.626  -8.617  -7.476  0.00  0.00    -0.180 F 
ATOM     16  F   LIG    1       -3.348  -9.666  -6.401  0.00  0.00    -0.180 F 
ENDBRANCH  10  13
ENDBRANCH   4   7
BRANCH   1  17
ATOM     17  N   LIG    1        1.003  -4.072  -0.030  0.00  0.00    -0.720 N 
ATOM     18  H   LIG    1        1.930  -4.359  -0.033  0.00  0.00    +0.410 HD
BRANCH  17  25
ATOM     19  O   LIG    1        1.662   2.964  -0.014  0.00  0.00    -0.490 OA
ATOM     20  C   LIG    1        1.328   1.795  -0.015  0.00  0.00    +0.640 A 
ATOM     21  N   LIG    1        2.172   0.745  -0.021  0.00  0.00    -0.650 N 
ATOM     22  H   LIG    1        3.142   0.788  -0.025  0.00  0.00    +0.440 HD
ATOM     23  C   LIG    1        1.399  -0.416  -0.021  0.00  0.00    +0.120 A 
ATOM     24  C   LIG    1        1.711  -1.765  -0.025  0.00  0.00    -0.040 A 
ATOM     25  C   LIG    1        0.693  -2.708  -0.025  0.00  0.00    +0.240 A 
ATOM     26  C   LIG    1       -0.635  -2.297  -0.019  0.00  0.00    -0.030 A 
ATOM     27  C   LIG    1       -0.947  -0.952  -0.014  0.00  0.00    +0.110 A 
ATOM     28  C   LIG    1        0.066  -0.006  -0.015  0.00  0.00    -0.020 A 
ATOM     29  O   LIG    1        0.062   1.351  -0.012  0.00  0.00    -0.230 OA
ENDBRANCH  17  25
ENDBRANCH   1  17
TORSDOF 4
