REMARK  Name = ZINCqH0000007NCs.0
REMARK                            x       y       z     vdW  Elec       q    Type
REMARK                         _______ _______ _______ _____ _____    ______ ____
ROOT
ATOM      1  N   LIG    1        1.315  -0.393  -0.013  0.00  0.00    -0.410 N 
ATOM      2  C   LIG    1        0.002  -0.004   0.002  0.00  0.00    +0.390 A 
ATOM      3  N   LIG    1       -0.016   1.299   0.009  0.00  0.00    -0.280 NA
ATOM      4  N   LIG    1        1.185   1.758   0.000  0.00  0.00    -0.290 NA
ATOM      5  C   LIG    1        2.043   0.764  -0.013  0.00  0.00    +0.170 A 
ENDROOT
BRANCH   1  11
ATOM      6  C   LIG    1        2.549  -2.185   1.055  0.00  0.00    +0.150 A 
ATOM      7  C   LIG    1        3.031  -3.484   1.040  0.00  0.00    -0.060 A 
ATOM      8  C   LIG    1        2.787  -4.299  -0.050  0.00  0.00    +0.080 A 
ATOM      9  C   LIG    1        2.059  -3.823  -1.125  0.00  0.00    +0.000 A 
ATOM     10  C   LIG    1        1.570  -2.530  -1.114  0.00  0.00    +0.080 A 
ATOM     11  C   LIG    1        1.810  -1.707  -0.025  0.00  0.00    +0.060 A 
BRANCH   6  13
ATOM     12  C   LIG    1        3.556  -1.938   3.195  0.00  0.00    +0.260 C 
ATOM     13  O   LIG    1        2.792  -1.380   2.124  0.00  0.00    -0.300 OA
ENDBRANCH   6  13
ENDBRANCH   1  11
BRANCH   5  14
ATOM     14  S   LIG    1        3.800   0.897  -0.029  0.00  0.00    +0.020 S 
BRANCH  14  15
ATOM     15  C   LIG    1        3.979   2.698  -0.021  0.00  0.00    +0.160 C 
BRANCH  15  16
ATOM     16  C   LIG    1        5.443   3.058  -0.034  0.00  0.00    -0.090 A 
ATOM     17  C   LIG    1        6.123   3.221   1.159  0.00  0.00    +0.070 A 
ATOM     18  C   LIG    1        7.465   3.545   1.151  0.00  0.00    -0.010 A 
ATOM     19  C   LIG    1        8.129   3.717  -0.056  0.00  0.00    +0.170 A 
ATOM     20  C   LIG    1        7.442   3.558  -1.252  0.00  0.00    +0.020 A 
ATOM     21  C   LIG    1        6.101   3.228  -1.237  0.00  0.00    +0.070 A 
BRANCH  19  22
ATOM     22  N   LIG    1        9.491   4.052  -0.067  0.00  0.00    -0.330 N 
ATOM     23  C   LIG    1       10.273   4.241   1.020  0.00  0.00    +0.230 A 
ATOM     24  C   LIG    1       11.517   4.545   0.584  0.00  0.00    -0.100 A 
ATOM     25  C   LIG    1       11.494   4.551  -0.815  0.00  0.00    +0.250 A 
ATOM     26  N   LIG    1       10.280   4.256  -1.206  0.00  0.00    -0.290 NA
ENDBRANCH  19  22
ENDBRANCH  15  16
ENDBRANCH  14  15
ENDBRANCH   5  14
TORSDOF 6
