REMARK  Name = ZINCqH0000001yaL.0
REMARK                            x       y       z     vdW  Elec       q    Type
REMARK                         _______ _______ _______ _____ _____    ______ ____
ROOT
ATOM      1  O   LIG    1        2.675   8.145  -1.389  0.00  0.00    -0.350 OA
ENDROOT
BRANCH   1   2
ATOM      2  C   LIG    1        2.780   9.213  -0.575  0.00  0.00    +0.510 C 
ATOM      3  O   LIG    1        1.864  10.006  -0.493  0.00  0.00    -0.480 OA
BRANCH   2   9
ATOM      4  C   LIG    1        4.142  10.528   1.070  0.00  0.00    +0.140 A 
ATOM      5  C   LIG    1        5.314  10.676   1.800  0.00  0.00    +0.180 A 
ATOM      6  N   LIG    1        6.290   9.800   1.692  0.00  0.00    -0.420 NA
ATOM      7  C   LIG    1        6.205   8.748   0.900  0.00  0.00    +0.220 A 
ATOM      8  C   LIG    1        5.076   8.518   0.141  0.00  0.00    +0.090 A 
ATOM      9  C   LIG    1        4.008   9.419   0.219  0.00  0.00    -0.120 A 
BRANCH   4  10
ATOM     10  O   LIG    1        3.141  11.437   1.180  0.00  0.00    -0.270 OA
BRANCH  10  12
ATOM     11  C   LIG    1        2.501  13.744   1.516  0.00  0.00    +0.070 C 
ATOM     12  C   LIG    1        3.401  12.595   1.976  0.00  0.00    +0.150 C 
ATOM     13  C   LIG    1        3.112  12.279   3.446  0.00  0.00    +0.030 C 
ENDBRANCH  10  12
ENDBRANCH   4  10
ENDBRANCH   2   9
ENDBRANCH   1   2
BRANCH   1  14
ATOM     14  C   LIG    1        1.439   8.006  -2.138  0.00  0.00    +0.180 C 
ATOM     15  C   LIG    1        1.574   8.725  -3.482  0.00  0.00    +0.040 C 
BRANCH  14  16
ATOM     16  C   LIG    1        1.154   6.522  -2.380  0.00  0.00    +0.060 C 
BRANCH  16  17
ATOM     17  C   LIG    1        0.895   5.828  -1.042  0.00  0.00    +0.080 C 
BRANCH  17  18
ATOM     18  C   LIG    1        0.614   4.367  -1.280  0.00  0.00    -0.070 A 
ATOM     19  C   LIG    1       -0.684   3.939  -1.490  0.00  0.00    +0.030 A 
ATOM     20  C   LIG    1       -0.946   2.600  -1.713  0.00  0.00    +0.040 A 
ATOM     21  C   LIG    1        0.091   1.682  -1.719  0.00  0.00    +0.030 A 
ATOM     22  O   LIG    1        0.102   0.331  -1.910  0.00  0.00    -0.310 OA
ATOM     23  C   LIG    1        1.375  -0.118  -1.408  0.00  0.00    +0.430 C 
ATOM     24  O   LIG    1        2.229   1.031  -1.566  0.00  0.00    -0.310 OA
ATOM     25  C   LIG    1        1.399   2.113  -1.508  0.00  0.00    +0.030 A 
ATOM     26  C   LIG    1        1.655   3.456  -1.289  0.00  0.00    +0.040 A 
ENDBRANCH  17  18
ENDBRANCH  16  17
ENDBRANCH  14  16
ENDBRANCH   1  14
TORSDOF 8
