REMARK  Name = ZINCrg000000tbVj.0
REMARK                            x       y       z     vdW  Elec       q    Type
REMARK                         _______ _______ _______ _____ _____    ______ ____
ROOT
ATOM      1  O   LIG    1        5.105   1.063  -2.570  0.00  0.00    -0.520 OA
ATOM      2  C   LIG    1        5.268   0.769  -1.405  0.00  0.00    +0.510 C 
ATOM      3  N   LIG    1        4.548  -0.228  -0.854  0.00  0.00    -0.720 N 
ATOM      4  H   LIG    1        4.678  -0.463   0.078  0.00  0.00    +0.400 HD
ENDROOT
BRANCH   3   5
ATOM      5  C   LIG    1        3.568  -0.957  -1.663  0.00  0.00    +0.340 C 
BRANCH   5   6
ATOM      6  C   LIG    1        2.904  -2.013  -0.816  0.00  0.00    -0.160 A 
ATOM      7  C   LIG    1        3.207  -3.351  -0.999  0.00  0.00    +0.110 A 
ATOM      8  C   LIG    1        2.567  -4.289  -0.201  0.00  0.00    -0.020 A 
ATOM      9  C   LIG    1        1.659  -3.863   0.748  0.00  0.00    +0.300 A 
ATOM     10  N   LIG    1        1.394  -2.579   0.902  0.00  0.00    -0.480 NA
ATOM     11  C   LIG    1        1.983  -1.655   0.161  0.00  0.00    +0.350 A 
BRANCH  11  12
ATOM     12  N   LIG    1        1.672  -0.307   0.359  0.00  0.00    -0.420 N 
ATOM     13  C   LIG    1        1.590   0.343   1.564  0.00  0.00    +0.150 A 
ATOM     14  C   LIG    1        1.268   1.622   1.296  0.00  0.00    +0.160 A 
ATOM     15  N   LIG    1        1.154   1.756  -0.034  0.00  0.00    -0.470 NA
ATOM     16  C   LIG    1        1.394   0.609  -0.607  0.00  0.00    +0.410 A 
ENDBRANCH  11  12
ENDBRANCH   5   6
ENDBRANCH   3   5
BRANCH   2  17
ATOM     17  C   LIG    1        6.276   1.520  -0.573  0.00  0.00    +0.320 C 
BRANCH  17  18
ATOM     18  N   LIG    1        6.921   2.546  -1.396  0.00  0.00    -0.580 N 
ATOM     19  C   LIG    1        8.057   2.324  -2.111  0.00  0.00    +0.550 C 
ATOM     20  C   LIG    1        8.194   3.493  -3.037  0.00  0.00    +0.000 C 
ATOM     21  C   LIG    1        9.570   4.005  -3.405  0.00  0.00    +0.060 C 
ATOM     22  C   LIG    1        9.343   5.219  -4.328  0.00  0.00    +0.020 C 
ATOM     23  C   LIG    1        8.495   6.293  -3.656  0.00  0.00    +0.020 C 
ATOM     24  C   LIG    1        7.187   5.734  -3.104  0.00  0.00    +0.050 C 
ATOM     25  C   LIG    1        7.537   4.604  -2.165  0.00  0.00    -0.010 C 
ATOM     26  O   LIG    1        8.803   1.373  -2.018  0.00  0.00    -0.470 OA
ATOM     27  C   LIG    1        6.446   3.815  -1.514  0.00  0.00    +0.550 C 
ATOM     28  O   LIG    1        5.360   4.224  -1.164  0.00  0.00    -0.460 OA
ENDBRANCH  17  18
ENDBRANCH   2  17
TORSDOF 5
