REMARK  Name = ZINCfA000001H5fq.0
REMARK                            x       y       z     vdW  Elec       q    Type
REMARK                         _______ _______ _______ _____ _____    ______ ____
ROOT
ATOM      1  N   LIG    1       -1.376  -0.512   0.012  0.00  0.00    -0.510 N 
ATOM      2  H   LIG    1       -1.864  -0.178  -0.805  0.00  0.00    +0.430 HD
ATOM      3  H   LIG    1       -1.848  -0.187   0.843  0.00  0.00    +0.430 HD
ENDROOT
BRANCH   1   4
ATOM      4  C   LIG    1        0.002  -0.004   0.002  0.00  0.00    +0.270 C 
BRANCH   4   5
ATOM      5  C   LIG    1       -0.019   1.526   0.010  0.00  0.00    +0.070 C 
BRANCH   5  10
ATOM      6 BR   LIG    1        0.591   3.132   2.672  0.00  0.00    -0.050 Br
ATOM      7  C   LIG    1        1.882   2.859   1.215  0.00  0.00    -0.100 C 
ATOM      8  C   LIG    1        1.611   3.569  -0.112  0.00  0.00    +0.140 C 
ATOM      9 BR   LIG    1        3.758   2.660   1.771  0.00  0.00    -0.040 Br
ATOM     10  C   LIG    1        1.417   2.055  -0.000  0.00  0.00    +0.030 C 
ENDBRANCH   5  10
ENDBRANCH   4   5
ENDBRANCH   1   4
BRANCH   1  11
ATOM     11  C   LIG    1       -1.356  -1.981   0.004  0.00  0.00    +0.360 C 
BRANCH  11  12
ATOM     12  C   LIG    1       -2.770  -2.503   0.015  0.00  0.00    +0.040 A 
ATOM     13  C   LIG    1       -3.388  -2.826  -1.178  0.00  0.00    +0.010 A 
ATOM     14  C   LIG    1       -4.687  -3.309  -1.157  0.00  0.00    +0.080 A 
ATOM     15  C   LIG    1       -5.322  -3.441   0.068  0.00  0.00    +0.020 A 
ATOM     16  C   LIG    1       -4.642  -3.093   1.220  0.00  0.00    +0.280 A 
ATOM     17  N   LIG    1       -3.405  -2.641   1.163  0.00  0.00    -0.470 NA
ENDBRANCH  11  12
ENDBRANCH   1  11
TORSDOF 5
