REMARK  Name = ZINCpk00000xI5le.0
REMARK                            x       y       z     vdW  Elec       q    Type
REMARK                         _______ _______ _______ _____ _____    ______ ____
ROOT
ATOM      1  N   LIG    1       -2.472   1.611  -0.113  0.00  0.00    -0.390 N 
ATOM      2  C   LIG    1       -3.256   2.705  -0.046  0.00  0.00    +0.300 A 
ATOM      3  N   LIG    1       -2.512   3.781  -0.037  0.00  0.00    -0.490 NA
ATOM      4  C   LIG    1       -1.222   3.440  -0.097  0.00  0.00    +0.310 A 
ATOM      5  N   LIG    1       -0.038   4.159  -0.117  0.00  0.00    -0.510 N 
ATOM      6  C   LIG    1       -0.070   5.623  -0.065  0.00  0.00    +0.350 C 
ATOM      7  C   LIG    1        1.143   3.515  -0.183  0.00  0.00    +0.710 A 
ATOM      8  O   LIG    1        2.171   4.163  -0.198  0.00  0.00    -0.540 OA
ATOM      9  N   LIG    1        1.212   2.174  -0.232  0.00  0.00    -0.550 N 
ATOM     10  C   LIG    1        2.522   1.521  -0.304  0.00  0.00    +0.350 C 
ATOM     11  C   LIG    1        0.094   1.419  -0.217  0.00  0.00    +0.590 A 
ATOM     12  O   LIG    1        0.170   0.204  -0.262  0.00  0.00    -0.510 OA
ATOM     13  C   LIG    1       -1.165   2.053  -0.154  0.00  0.00    -0.150 A 
ENDROOT
BRANCH   1  14
ATOM     14  C   LIG    1       -2.922   0.217  -0.145  0.00  0.00    +0.310 C 
BRANCH  14  16
ATOM     15  C   LIG    1       -1.791  -0.209  -2.331  0.00  0.00    +0.010 C 
ATOM     16  C   LIG    1       -3.133  -0.218  -1.596  0.00  0.00    -0.020 C 
ATOM     17  C   LIG    1       -3.721  -1.630  -1.625  0.00  0.00    +0.040 C 
ENDBRANCH  14  16
ENDBRANCH   1  14
BRANCH   2  18
ATOM     18  C   LIG    1       -4.762   2.691   0.010  0.00  0.00    +0.310 C 
BRANCH  18  19
ATOM     19  N   LIG    1       -5.303   2.735  -1.355  0.00  0.00    -0.530 NA
ATOM     20  C   LIG    1       -5.005   4.021  -1.998  0.00  0.00    +0.170 C 
ATOM     21  C   LIG    1       -5.453   3.977  -3.461  0.00  0.00    +0.020 C 
ATOM     22  C   LIG    1       -6.956   3.692  -3.521  0.00  0.00    +0.000 C 
ATOM     23  C   LIG    1       -7.246   2.371  -2.802  0.00  0.00    +0.030 C 
ATOM     24  C   LIG    1       -6.745   2.461  -1.359  0.00  0.00    +0.130 C 
ATOM     25  C   LIG    1       -7.015   1.137  -0.642  0.00  0.00    +0.050 C 
ENDBRANCH  18  19
ENDBRANCH   2  18
TORSDOF 4
