REMARK  Name = ZINCqH00000079s7.0
REMARK                            x       y       z     vdW  Elec       q    Type
REMARK                         _______ _______ _______ _____ _____    ______ ____
ROOT
ATOM      1  N   LIG    1       -0.358   1.477  -0.592  0.00  0.00    -0.750 N 
ATOM      2  H   LIG    1       -1.261   1.806  -0.461  0.00  0.00    +0.400 HD
ATOM      3  C   LIG    1       -0.094   0.163  -0.456  0.00  0.00    +0.710 C 
ATOM      4  N   LIG    1       -1.083  -0.694  -0.133  0.00  0.00    -0.630 N 
ATOM      5  C   LIG    1       -2.446  -0.196   0.070  0.00  0.00    +0.290 C 
ATOM      6  O   LIG    1        1.037  -0.251  -0.625  0.00  0.00    -0.580 OA
ENDROOT
BRANCH   1   7
ATOM      7  C   LIG    1        0.717   2.408  -0.942  0.00  0.00    +0.280 C 
BRANCH   7   8
ATOM      8  C   LIG    1        0.153   3.828  -1.033  0.00  0.00    +0.070 C 
BRANCH   8  12
ATOM      9  C   LIG    1        3.293   6.547  -2.050  0.00  0.00    +0.100 A 
ATOM     10  C   LIG    1        3.016   6.271  -0.722  0.00  0.00    -0.030 A 
ATOM     11  C   LIG    1        1.996   5.395  -0.396  0.00  0.00    +0.020 A 
ATOM     12  C   LIG    1        1.260   4.785  -1.393  0.00  0.00    -0.080 A 
ATOM     13  C   LIG    1        1.532   5.057  -2.722  0.00  0.00    -0.030 A 
ATOM     14  C   LIG    1        2.548   5.937  -3.055  0.00  0.00    +0.100 A 
BRANCH   9  16
ATOM     15  C   LIG    1        5.014   8.001  -1.289  0.00  0.00    +0.250 C 
ATOM     16  O   LIG    1        4.292   7.412  -2.372  0.00  0.00    -0.310 OA
ENDBRANCH   9  16
BRANCH  14  17
ATOM     17  O   LIG    1        2.817   6.205  -4.361  0.00  0.00    -0.310 OA
ATOM     18  C   LIG    1        2.011   5.542  -5.338  0.00  0.00    +0.240 C 
ENDBRANCH  14  17
ENDBRANCH   8  12
ENDBRANCH   7   8
ENDBRANCH   1   7
BRANCH   4  19
ATOM     19  C   LIG    1       -0.796  -2.123   0.014  0.00  0.00    +0.370 C 
BRANCH  19  20
ATOM     20  C   LIG    1       -0.362  -2.405   1.429  0.00  0.00    -0.110 A 
ATOM     21  C   LIG    1       -0.427  -1.407   2.384  0.00  0.00    +0.020 A 
ATOM     22  C   LIG    1       -0.034  -1.667   3.683  0.00  0.00    -0.010 A 
ATOM     23  C   LIG    1        0.435  -2.921   4.026  0.00  0.00    -0.090 A 
ATOM     24  C   LIG    1        0.505  -3.918   3.070  0.00  0.00    +0.000 A 
ATOM     25  C   LIG    1        0.869  -3.203   5.441  0.00  0.00    +0.090 C 
ATOM     26  C   LIG    1        0.107  -3.659   1.772  0.00  0.00    -0.080 A 
ATOM     27  C   LIG    1        0.184  -4.745   0.730  0.00  0.00    +0.090 C 
ENDBRANCH  19  20
ENDBRANCH   4  19
TORSDOF 7
