REMARK  Name = ZINCtV00000L6jFJ.0
REMARK                            x       y       z     vdW  Elec       q    Type
REMARK                         _______ _______ _______ _____ _____    ______ ____
ROOT
ATOM      1  C   LIG    1        0.024   1.287   0.090  0.00  0.00    +0.590 C 
ATOM      2  N   LIG    1        1.159   1.916  -0.276  0.00  0.00    -0.520 N 
ATOM      3  O   LIG    1        0.038   0.093   0.323  0.00  0.00    -0.460 OA
ENDROOT
BRANCH   1   8
ATOM      4  C   LIG    1       -3.983   4.901   0.362  0.00  0.00    +0.140 C 
ATOM      5  C   LIG    1       -3.066   3.706   0.326  0.00  0.00    -0.210 A 
ATOM      6  C   LIG    1       -3.467   2.437   0.469  0.00  0.00    -0.020 A 
ATOM      7  C   LIG    1       -2.465   1.498   0.404  0.00  0.00    +0.120 A 
ATOM      8  C   LIG    1       -1.227   2.041   0.202  0.00  0.00    -0.300 A 
ATOM      9  S   LIG    1       -1.376   3.791   0.104  0.00  0.00    +0.230 S 
ENDBRANCH   1   8
BRANCH   2  10
ATOM     10  C   LIG    1        2.366   1.230  -0.268  0.00  0.00    +0.310 A 
ATOM     11  N   LIG    1        2.520  -0.011   0.076  0.00  0.00    -0.460 NA
ATOM     12  C   LIG    1        3.750  -0.503   0.018  0.00  0.00    +0.130 A 
ATOM     13  C   LIG    1        4.698   0.361  -0.386  0.00  0.00    -0.060 A 
ATOM     14  S   LIG    1        3.927   1.910  -0.716  0.00  0.00    +0.100 S 
BRANCH  12  15
ATOM     15  C   LIG    1        4.060  -1.908   0.380  0.00  0.00    -0.010 A 
ATOM     16  C   LIG    1        5.370  -2.378   0.301  0.00  0.00    +0.030 A 
ATOM     17  C   LIG    1        5.653  -3.684   0.644  0.00  0.00    +0.050 A 
ATOM     18  C   LIG    1        4.638  -4.531   1.054  0.00  0.00    -0.080 A 
ATOM     19  C   LIG    1        3.334  -4.071   1.128  0.00  0.00    +0.050 A 
ATOM     20 BR   LIG    1        5.033  -6.322   1.514  0.00  0.00    -0.050 Br
ATOM     21  C   LIG    1        3.041  -2.765   0.793  0.00  0.00    +0.080 A 
ENDBRANCH  12  15
ENDBRANCH   2  10
BRANCH   2  22
ATOM     22  C   LIG    1        1.119   3.323  -0.682  0.00  0.00    +0.300 C 
BRANCH  22  23
ATOM     23  C   LIG    1        1.343   4.213   0.542  0.00  0.00    +0.070 C 
BRANCH  23  24
ATOM     24  C   LIG    1        1.302   5.661   0.125  0.00  0.00    -0.080 A 
ATOM     25  C   LIG    1        2.464   6.302  -0.259  0.00  0.00    +0.020 A 
ATOM     26  C   LIG    1        2.426   7.629  -0.647  0.00  0.00    +0.020 A 
ATOM     27  C   LIG    1        1.226   8.316  -0.641  0.00  0.00    +0.000 A 
ATOM     28  C   LIG    1        0.065   7.676  -0.251  0.00  0.00    +0.020 A 
ATOM     29  C   LIG    1        0.102   6.348   0.132  0.00  0.00    +0.010 A 
ENDBRANCH  23  24
ENDBRANCH  22  23
ENDBRANCH   2  22
TORSDOF 6
