REMARK  Name = ZINCtV00000L6jF1.0
REMARK                            x       y       z     vdW  Elec       q    Type
REMARK                         _______ _______ _______ _____ _____    ______ ____
ROOT
ATOM      1  C   LIG    1        1.385   2.109  -0.144  0.00  0.00    +0.440 A 
ATOM      2  C   LIG    1        0.332   1.239  -0.121  0.00  0.00    -0.060 A 
ATOM      3  C   LIG    1        0.574  -0.136  -0.280  0.00  0.00    +0.260 A 
ATOM      4  N   LIG    1        1.811  -0.578  -0.450  0.00  0.00    -0.460 NA
ATOM      5  C   LIG    1        2.845   0.267  -0.474  0.00  0.00    +0.290 A 
ATOM      6  C   LIG    1        4.223   0.071  -0.634  0.00  0.00    -0.200 A 
ATOM      7  C   LIG    1        4.830   1.331  -0.574  0.00  0.00    +0.310 A 
ATOM      8  N   LIG    1        3.904   2.239  -0.390  0.00  0.00    -0.300 NA
ATOM      9  N   LIG    1        2.653   1.616  -0.323  0.00  0.00    -0.330 N 
ENDROOT
BRANCH   6  10
ATOM     10  C   LIG    1        4.909  -1.227  -0.832  0.00  0.00    +0.010 A 
ATOM     11  C   LIG    1        4.649  -2.294   0.028  0.00  0.00    +0.020 A 
ATOM     12  C   LIG    1        5.287  -3.502  -0.164  0.00  0.00    +0.000 A 
ATOM     13  C   LIG    1        6.191  -3.653  -1.200  0.00  0.00    +0.000 A 
ATOM     14  C   LIG    1        6.457  -2.597  -2.053  0.00  0.00    +0.000 A 
ATOM     15  C   LIG    1        5.822  -1.385  -1.874  0.00  0.00    +0.010 A 
ENDBRANCH   6  10
BRANCH   3  16
ATOM     16  C   LIG    1       -0.557  -1.094  -0.257  0.00  0.00    -0.070 A 
ATOM     17  C   LIG    1       -1.860  -0.633  -0.073  0.00  0.00    +0.040 A 
ATOM     18  C   LIG    1       -2.909  -1.530  -0.058  0.00  0.00    +0.000 A 
ATOM     19  C   LIG    1       -2.670  -2.883  -0.215  0.00  0.00    +0.040 A 
ATOM     20  C   LIG    1       -1.378  -3.346  -0.392  0.00  0.00    +0.000 A 
ATOM     21  C   LIG    1       -0.321  -2.459  -0.414  0.00  0.00    +0.070 A 
ENDBRANCH   3  16
BRANCH   1  22
ATOM     22  N   LIG    1        1.177   3.464   0.009  0.00  0.00    -0.670 N 
ATOM     23  H   LIG    1        0.600   3.939  -0.609  0.00  0.00    +0.430 HD
BRANCH  22  28
ATOM     24 CL   LIG    1        3.798   6.371   4.427  0.00  0.00    -0.070 Cl
ATOM     25  C   LIG    1        3.027   5.516   3.127  0.00  0.00    -0.070 A 
ATOM     26  C   LIG    1        2.335   6.216   2.154  0.00  0.00    +0.070 A 
ATOM     27  C   LIG    1        1.721   5.538   1.120  0.00  0.00    -0.010 A 
ATOM     28  C   LIG    1        1.798   4.153   1.056  0.00  0.00    +0.200 A 
ATOM     29  C   LIG    1        2.489   3.453   2.037  0.00  0.00    -0.020 A 
ATOM     30  C   LIG    1        3.106   4.136   3.066  0.00  0.00    +0.070 A 
ENDBRANCH  22  28
ENDBRANCH   1  22
TORSDOF 4
