REMARK  Name = ZINCrD000000DgVm.0
REMARK                            x       y       z     vdW  Elec       q    Type
REMARK                         _______ _______ _______ _____ _____    ______ ____
ROOT
ATOM      1  O   LIG    1       -1.204   2.049   0.019  0.00  0.00    -0.310 OA
ENDROOT
BRANCH   1   3
ATOM      2  C   LIG    1        0.002  -0.004   0.002  0.00  0.00    -0.040 A 
ATOM      3  C   LIG    1       -0.017   1.387   0.010  0.00  0.00    +0.110 A 
ATOM      4  C   LIG    1        1.168   2.098   0.002  0.00  0.00    +0.040 A 
ATOM      5  C   LIG    1        2.383   1.413  -0.013  0.00  0.00    -0.080 A 
ATOM      6  C   LIG    1        2.399   0.007  -0.022  0.00  0.00    +0.020 A 
ATOM      7  O   LIG    1        3.693  -0.381  -0.037  0.00  0.00    -0.190 OA
ATOM      8  C   LIG    1        4.513   0.682  -0.036  0.00  0.00    +0.040 A 
ATOM      9  C   LIG    1        6.024   0.659  -0.050  0.00  0.00    +0.140 C 
ATOM     10  C   LIG    1        6.529   2.045  -0.469  0.00  0.00    +0.030 C 
ATOM     11  C   LIG    1        5.842   3.118   0.380  0.00  0.00    +0.020 C 
ATOM     12  C   LIG    1        4.362   3.205  -0.016  0.00  0.00    +0.110 C 
ATOM     13  C   LIG    1        3.788   1.814  -0.022  0.00  0.00    -0.180 A 
ATOM     14  C   LIG    1        1.198  -0.689  -0.014  0.00  0.00    +0.080 A 
ENDBRANCH   1   3
BRANCH   1  15
ATOM     15  C   LIG    1       -2.391   1.253   0.020  0.00  0.00    +0.350 C 
BRANCH  15  16
ATOM     16  C   LIG    1       -3.600   2.153   0.031  0.00  0.00    +0.180 A 
ATOM     17  N   LIG    1       -4.226   2.610   1.088  0.00  0.00    -0.280 NA
ATOM     18  N   LIG    1       -5.204   3.345   0.684  0.00  0.00    -0.070 NA
ATOM     19  N   LIG    1       -5.223   3.362  -0.603  0.00  0.00    -0.080 NA
ATOM     20  N   LIG    1       -4.250   2.639  -1.043  0.00  0.00    -0.290 N 
BRANCH  20  21
ATOM     21  C   LIG    1       -3.914   2.393  -2.448  0.00  0.00    +0.350 C 
BRANCH  21  22
ATOM     22  C   LIG    1       -4.657   1.150  -2.940  0.00  0.00    -0.020 C 
ATOM     23  C   LIG    1       -4.150  -0.083  -2.185  0.00  0.00    -0.020 C 
ATOM     24  C   LIG    1       -4.841  -1.331  -2.740  0.00  0.00    +0.210 C 
ATOM     25  O   LIG    1       -4.590  -1.431  -4.144  0.00  0.00    -0.380 OA
ATOM     26  C   LIG    1       -5.086  -0.328  -4.905  0.00  0.00    +0.210 C 
ATOM     27  C   LIG    1       -4.403   0.960  -4.439  0.00  0.00    +0.010 C 
ENDBRANCH  21  22
ENDBRANCH  20  21
ENDBRANCH  15  16
ENDBRANCH   1  15
TORSDOF 5
