REMARK  Name = ZINCpe000000ZxHB.0
REMARK                            x       y       z     vdW  Elec       q    Type
REMARK                         _______ _______ _______ _____ _____    ______ ____
ROOT
ATOM      1  S   LIG    1        0.166   0.991  -2.361  0.00  0.00    +2.630 S 
ATOM      2  O   LIG    1        1.550   0.813  -2.096  0.00  0.00    -0.940 OA
ATOM      3  O   LIG    1       -0.286   2.010  -3.244  0.00  0.00    -0.920 OA
ENDROOT
BRANCH   1   7
ATOM      4  C   LIG    1       -1.545   2.819   0.722  0.00  0.00    +0.260 C 
ATOM      5  C   LIG    1       -0.845   1.666   1.493  0.00  0.00    +0.040 C 
ATOM      6  C   LIG    1        0.071   1.041   0.419  0.00  0.00    +0.260 C 
ATOM      7  N   LIG    1       -0.481   1.406  -0.894  0.00  0.00    -1.010 NA
ATOM      8  C   LIG    1       -1.706   2.200  -0.689  0.00  0.00    +0.270 C 
BRANCH   4  14
ATOM      9  O   LIG    1       -2.124   5.472   1.663  0.00  0.00    -0.530 OA
ATOM     10  C   LIG    1       -1.057   5.219   1.145  0.00  0.00    +0.520 C 
ATOM     11  C   LIG    1        0.059   6.216   0.928  0.00  0.00    +0.060 C 
ATOM     12  C   LIG    1        0.982   5.535  -0.108  0.00  0.00    +0.050 C 
ATOM     13  C   LIG    1        0.665   4.039   0.127  0.00  0.00    +0.260 C 
ATOM     14  N   LIG    1       -0.695   4.011   0.679  0.00  0.00    -0.610 N 
ENDBRANCH   4  14
ENDBRANCH   1   7
BRANCH   1  15
ATOM     15  C   LIG    1       -0.615  -0.595  -2.768  0.00  0.00    -0.320 C 
BRANCH  15  16
ATOM     16  C   LIG    1       -0.092  -1.089  -4.119  0.00  0.00    +0.160 C 
ATOM     17  C   LIG    1       -0.772  -2.416  -4.483  0.00  0.00    +0.250 C 
ATOM     18  O   LIG    1       -0.272  -2.841  -5.755  0.00  0.00    -0.300 OA
ATOM     19  C   LIG    1       -0.214  -1.900  -6.736  0.00  0.00    +0.050 A 
ATOM     20  C   LIG    1       -0.087  -2.300  -8.057  0.00  0.00    +0.030 A 
ATOM     21  C   LIG    1       -0.020  -1.355  -9.064  0.00  0.00    +0.030 A 
ATOM     22  C   LIG    1       -0.079  -0.009  -8.756  0.00  0.00    +0.030 A 
ATOM     23  C   LIG    1       -0.208   0.397  -7.441  0.00  0.00    +0.030 A 
ATOM     24  C   LIG    1       -0.276  -0.546  -6.427  0.00  0.00    +0.050 A 
ATOM     25  O   LIG    1       -0.405  -0.131  -5.137  0.00  0.00    -0.300 OA
ENDBRANCH  15  16
ENDBRANCH   1  15
TORSDOF 4
