REMARK  Name = ZINCqH0000037Brq.0
REMARK                            x       y       z     vdW  Elec       q    Type
REMARK                         _______ _______ _______ _____ _____    ______ ____
ROOT
ATOM      1  S   LIG    1        1.162  -2.753  -3.185  0.00  0.00    +2.690 S 
ATOM      2  O   LIG    1        1.703  -3.902  -2.547  0.00  0.00    -0.950 OA
ATOM      3  O   LIG    1        1.565  -2.319  -4.476  0.00  0.00    -0.940 OA
ENDROOT
BRANCH   1   8
ATOM      4  C   LIG    1        2.132   1.884   0.552  0.00  0.00    +0.100 C 
ATOM      5  C   LIG    1        1.890   0.726  -0.381  0.00  0.00    -0.020 A 
ATOM      6  C   LIG    1        1.688  -0.543   0.129  0.00  0.00    -0.120 A 
ATOM      7  C   LIG    1        1.471  -1.606  -0.727  0.00  0.00    +0.030 A 
ATOM      8  C   LIG    1        1.445  -1.399  -2.094  0.00  0.00    -0.690 A 
ATOM      9  C   LIG    1        1.647  -0.131  -2.604  0.00  0.00    +0.030 A 
ATOM     10  C   LIG    1        1.623   0.095  -4.094  0.00  0.00    +0.110 C 
ATOM     11  C   LIG    1        1.257  -2.990  -0.171  0.00  0.00    +0.100 C 
ATOM     12  C   LIG    1        1.711  -0.768   1.619  0.00  0.00    +0.090 C 
ATOM     13  C   LIG    1        1.869   0.932  -1.748  0.00  0.00    -0.120 A 
ATOM     14  C   LIG    1        2.088   2.315  -2.305  0.00  0.00    +0.090 C 
ENDBRANCH   1   8
BRANCH   1  15
ATOM     15  N   LIG    1       -0.476  -2.988  -3.260  0.00  0.00    -1.060 N 
ATOM     16  H   LIG    1       -0.869  -3.791  -2.885  0.00  0.00    +0.430 HD
BRANCH  15  17
ATOM     17  C   LIG    1       -1.292  -2.028  -3.864  0.00  0.00    +0.130 A 
ATOM     18  C   LIG    1       -1.513  -0.808  -3.235  0.00  0.00    +0.030 A 
ATOM     19  C   LIG    1       -2.314   0.147  -3.831  0.00  0.00    +0.030 A 
ATOM     20  C   LIG    1       -2.911  -0.108  -5.049  0.00  0.00    +0.050 A 
ATOM     21  C   LIG    1       -2.700  -1.332  -5.686  0.00  0.00    -0.120 A 
ATOM     22  C   LIG    1       -1.887  -2.294  -5.088  0.00  0.00    +0.090 A 
BRANCH  21  23
ATOM     23  C   LIG    1       -3.337  -1.608  -6.992  0.00  0.00    +0.560 C 
ATOM     24  N   LIG    1       -4.554  -1.098  -7.269  0.00  0.00    -0.620 N 
ATOM     25  C   LIG    1       -5.181  -0.154  -6.341  0.00  0.00    +0.290 C 
ATOM     26  C   LIG    1       -5.249  -1.489  -8.498  0.00  0.00    +0.290 C 
ATOM     27  O   LIG    1       -2.764  -2.295  -7.815  0.00  0.00    -0.530 OA
ENDBRANCH  21  23
ENDBRANCH  15  17
ENDBRANCH   1  15
TORSDOF 4
