REMARK  Name = ZINCrH000004lZto.0
REMARK                            x       y       z     vdW  Elec       q    Type
REMARK                         _______ _______ _______ _____ _____    ______ ____
ROOT
ATOM      1  C   LIG    1        2.476   1.072  -0.015  0.00  0.00    +0.570 C 
ATOM      2  N   LIG    1        2.496  -0.276  -0.021  0.00  0.00    -0.640 N 
ATOM      3  H   LIG    1        1.663  -0.773  -0.016  0.00  0.00    +0.410 HD
ATOM      4  O   LIG    1        3.520   1.695  -0.021  0.00  0.00    -0.500 OA
ENDROOT
BRANCH   1   7
ATOM      5  C   LIG    1       -0.044   3.856   0.022  0.00  0.00    +0.110 A 
ATOM      6  C   LIG    1        1.165   3.188   0.008  0.00  0.00    +0.050 A 
ATOM      7  C   LIG    1        1.188   1.791   0.000  0.00  0.00    -0.120 A 
ATOM      8  C   LIG    1       -0.013   1.076   0.008  0.00  0.00    +0.050 A 
ATOM      9  C   LIG    1       -1.215   1.749   0.017  0.00  0.00    -0.010 A 
ATOM     10  C   LIG    1       -1.238   3.136   0.030  0.00  0.00    +0.110 A 
BRANCH   5  12
ATOM     11  C   LIG    1        1.192   5.888   0.022  0.00  0.00    +0.250 C 
ATOM     12  O   LIG    1       -0.069   5.216   0.030  0.00  0.00    -0.300 OA
ENDBRANCH   5  12
BRANCH  10  13
ATOM     13  O   LIG    1       -2.426   3.795   0.044  0.00  0.00    -0.300 OA
BRANCH  13  14
ATOM     14  C   LIG    1       -3.610   2.995   0.051  0.00  0.00    +0.600 C 
ATOM     15  F   LIG    1       -3.617   2.182   1.190  0.00  0.00    -0.200 F 
ATOM     16  F   LIG    1       -3.639   2.194  -1.095  0.00  0.00    -0.200 F 
ENDBRANCH  13  14
ENDBRANCH  10  13
ENDBRANCH   1   7
BRANCH   2  17
ATOM     17  C   LIG    1        3.713  -0.955  -0.036  0.00  0.00    +0.300 A 
ATOM     18  C   LIG    1        4.951  -0.388  -0.050  0.00  0.00    -0.100 A 
ATOM     19  C   LIG    1        5.894  -1.419  -0.059  0.00  0.00    +0.250 A 
ATOM     20  N   LIG    1        5.258  -2.562  -0.058  0.00  0.00    -0.280 NA
ATOM     21  N   LIG    1        3.882  -2.302  -0.044  0.00  0.00    -0.380 N 
BRANCH  21  22
ATOM     22  C   LIG    1        2.814  -3.305  -0.038  0.00  0.00    +0.370 C 
BRANCH  22  23
ATOM     23  C   LIG    1        2.434  -3.643  -1.457  0.00  0.00    -0.120 A 
ATOM     24  C   LIG    1        1.437  -2.928  -2.094  0.00  0.00    +0.010 A 
ATOM     25  C   LIG    1        1.092  -3.235  -3.397  0.00  0.00    +0.010 A 
ATOM     26  C   LIG    1        1.738  -4.262  -4.060  0.00  0.00    +0.020 A 
ATOM     27  C   LIG    1        2.731  -4.979  -3.421  0.00  0.00    +0.010 A 
ATOM     28  C   LIG    1        3.080  -4.670  -2.120  0.00  0.00    +0.040 A 
ENDBRANCH  22  23
ENDBRANCH  21  22
ENDBRANCH   2  17
TORSDOF 7
