REMARK  Name = ZINCqH0000036oTZ.1
REMARK                            x       y       z     vdW  Elec       q    Type
REMARK                         _______ _______ _______ _____ _____    ______ ____
ROOT
ATOM      1  C   LIG    1        0.039  -2.768  -0.013  0.00  0.00    -0.070 A 
ATOM      2  C   LIG    1        0.041  -2.084   1.188  0.00  0.00    +0.000 A 
ATOM      3  C   LIG    1        0.023  -0.702   1.195  0.00  0.00    +0.040 A 
ATOM      4  C   LIG    1        0.002  -0.004   0.002  0.00  0.00    -0.120 A 
ATOM      5  C   LIG    1       -0.006  -0.689  -1.199  0.00  0.00    +0.020 A 
ATOM      6  C   LIG    1        0.018  -2.071  -1.206  0.00  0.00    +0.030 A 
ENDROOT
BRANCH   1   7
ATOM      7  C   LIG    1        0.058  -4.275  -0.021  0.00  0.00    +0.220 C 
BRANCH   7   8
ATOM      8  N   LIG    1       -1.320  -4.783  -0.011  0.00  0.00    -0.680 NA
ATOM      9  H   LIG    1       -1.834  -4.418   0.777  0.00  0.00    +0.340 HD
BRANCH   8  10
ATOM     10  C   LIG    1       -1.340  -6.252  -0.019  0.00  0.00    +0.220 C 
ATOM     11  C   LIG    1       -1.208  -6.771   1.414  0.00  0.00    +0.010 C 
BRANCH  10  17
ATOM     12  C   LIG    1       -2.740  -8.023  -1.111  0.00  0.00    +0.130 A 
ATOM     13  C   LIG    1       -3.940  -8.465  -1.648  0.00  0.00    -0.080 A 
ATOM     14  C   LIG    1       -5.029  -7.617  -1.694  0.00  0.00    +0.040 A 
ATOM     15  C   LIG    1       -4.926  -6.330  -1.199  0.00  0.00    -0.040 A 
ATOM     16  C   LIG    1       -3.733  -5.889  -0.657  0.00  0.00    +0.070 A 
ATOM     17  C   LIG    1       -2.641  -6.733  -0.609  0.00  0.00    -0.100 A 
BRANCH  12  19
ATOM     18  C   LIG    1       -1.840 -10.168  -1.604  0.00  0.00    +0.250 C 
ATOM     19  O   LIG    1       -1.665  -8.854  -1.070  0.00  0.00    -0.320 OA
ENDBRANCH  12  19
ENDBRANCH  10  17
ENDBRANCH   8  10
ENDBRANCH   7   8
ENDBRANCH   1   7
BRANCH   4  20
ATOM     20  C   LIG    1       -0.018   1.503   0.010  0.00  0.00    +0.340 C 
BRANCH  20  21
ATOM     21  N   LIG    1        1.356   2.010  -0.000  0.00  0.00    -0.490 N 
ATOM     22  C   LIG    1        1.974   2.248  -1.185  0.00  0.00    +0.290 A 
ATOM     23  C   LIG    1        3.244   2.717  -1.220  0.00  0.00    -0.080 A 
ATOM     24  C   LIG    1        3.933   2.960  -0.024  0.00  0.00    +0.110 A 
ATOM     25  C   LIG    1        3.310   2.720   1.166  0.00  0.00    -0.090 A 
ATOM     26  C   LIG    1        1.990   2.239   1.166  0.00  0.00    +0.510 A 
ATOM     27  O   LIG    1        1.419   2.025   2.223  0.00  0.00    -0.550 OA
ENDBRANCH  20  21
ENDBRANCH   4  20
TORSDOF 7
