REMARK  Name = ZINCrH000004truj.0
REMARK                            x       y       z     vdW  Elec       q    Type
REMARK                         _______ _______ _______ _____ _____    ______ ____
ROOT
ATOM      1  N   LIG    1        0.201  -3.151  -0.081  0.00  0.00    -0.670 N 
ATOM      2  H   LIG    1       -0.676  -2.739  -0.058  0.00  0.00    +0.410 HD
ATOM      3  C   LIG    1        1.306  -2.381  -0.142  0.00  0.00    +0.560 C 
ATOM      4  O   LIG    1        2.401  -2.897  -0.258  0.00  0.00    -0.500 OA
ENDROOT
BRANCH   1   8
ATOM      5  C   LIG    1        0.558  -7.300   0.005  0.00  0.00    -0.080 A 
ATOM      6  C   LIG    1       -0.450  -6.679   0.720  0.00  0.00    +0.030 A 
ATOM      7  C   LIG    1       -0.571  -5.304   0.693  0.00  0.00    -0.010 A 
ATOM      8  C   LIG    1        0.321  -4.544  -0.052  0.00  0.00    +0.150 A 
ATOM      9  C   LIG    1        1.329  -5.171  -0.773  0.00  0.00    +0.020 A 
ATOM     10  C   LIG    1        1.448  -6.547  -0.738  0.00  0.00    +0.030 A 
BRANCH   5  11
ATOM     11  C   LIG    1        0.687  -8.802   0.037  0.00  0.00    +0.100 C 
BRANCH  11  15
ATOM     12  N   LIG    1       -0.165 -10.736  -1.247  0.00  0.00    -0.860 N 
ATOM     13  H   LIG    1       -0.690 -11.121  -1.966  0.00  0.00    +0.400 HD
ATOM     14  H   LIG    1        0.335 -11.314  -0.649  0.00  0.00    +0.400 HD
ATOM     15  C   LIG    1       -0.129  -9.400  -1.080  0.00  0.00    +0.520 C 
ATOM     16  O   LIG    1       -0.754  -8.678  -1.828  0.00  0.00    -0.530 OA
ENDBRANCH  11  15
ENDBRANCH   5  11
ENDBRANCH   1   8
BRANCH   3  17
ATOM     17  C   LIG    1        1.186  -0.910  -0.067  0.00  0.00    -0.140 A 
ATOM     18  C   LIG    1       -0.074  -0.309  -0.053  0.00  0.00    +0.050 A 
ATOM     19  C   LIG    1       -0.179   1.065   0.018  0.00  0.00    +0.000 A 
ATOM     20  C   LIG    1        0.961   1.847   0.074  0.00  0.00    +0.040 A 
ATOM     21  C   LIG    1        2.213   1.258   0.060  0.00  0.00    +0.000 A 
ATOM     22  C   LIG    1        2.332  -0.115  -0.010  0.00  0.00    -0.020 A 
BRANCH  22  23
ATOM     23  C   LIG    1        3.696  -0.755  -0.026  0.00  0.00    +0.100 C 
BRANCH  23  24
ATOM     24  C   LIG    1        4.014  -1.313   1.363  0.00  0.00    +0.080 C 
BRANCH  24  25
ATOM     25  C   LIG    1        5.378  -1.953   1.348  0.00  0.00    -0.080 A 
ATOM     26  C   LIG    1        5.509  -3.294   1.039  0.00  0.00    +0.020 A 
ATOM     27  C   LIG    1        6.761  -3.880   1.020  0.00  0.00    +0.000 A 
ATOM     28  C   LIG    1        7.881  -3.127   1.320  0.00  0.00    -0.010 A 
ATOM     29  C   LIG    1        7.749  -1.787   1.634  0.00  0.00    +0.000 A 
ATOM     30  C   LIG    1        6.498  -1.200   1.648  0.00  0.00    +0.000 A 
ENDBRANCH  24  25
ENDBRANCH  23  24
ENDBRANCH  22  23
ENDBRANCH   3  17
TORSDOF 7
