REMARK  Name = ZINCvU0000000FGy.0
REMARK                            x       y       z     vdW  Elec       q    Type
REMARK                         _______ _______ _______ _____ _____    ______ ____
ROOT
ATOM      1  C   LIG    1        6.144  -0.739  -0.493  0.00  0.00    +0.300 C 
ENDROOT
BRANCH   1   2
ATOM      2  C   LIG    1        6.217  -1.379  -1.855  0.00  0.00    -0.110 A 
ATOM      3  C   LIG    1        6.467  -0.603  -2.971  0.00  0.00    +0.030 A 
ATOM      4  C   LIG    1        6.537  -1.190  -4.220  0.00  0.00    +0.000 A 
ATOM      5  C   LIG    1        6.351  -2.553  -4.354  0.00  0.00    +0.010 A 
ATOM      6  C   LIG    1        6.096  -3.329  -3.239  0.00  0.00    +0.020 A 
ATOM      7  C   LIG    1        6.029  -2.742  -1.990  0.00  0.00    +0.010 A 
ENDBRANCH   1   2
BRANCH   1  10
ATOM      8  N   LIG    1        3.676  -0.851  -0.377  0.00  0.00    -0.650 N 
ATOM      9  H   LIG    1        3.745  -1.814  -0.472  0.00  0.00    +0.420 HD
ATOM     10  C   LIG    1        4.792  -0.099  -0.310  0.00  0.00    +0.520 C 
ATOM     11  O   LIG    1        4.708   1.093  -0.103  0.00  0.00    -0.510 OA
BRANCH   8  17
ATOM     12  C   LIG    1        1.318  -0.836  -0.929  0.00  0.00    +0.110 A 
ATOM     13  C   LIG    1        0.075  -0.230  -0.858  0.00  0.00    -0.060 A 
ATOM     14  C   LIG    1       -0.076   0.962  -0.173  0.00  0.00    +0.040 A 
ATOM     15  C   LIG    1        1.012   1.552   0.443  0.00  0.00    -0.010 A 
ATOM     16  C   LIG    1        2.257   0.953   0.377  0.00  0.00    +0.070 A 
ATOM     17  C   LIG    1        2.415  -0.242  -0.309  0.00  0.00    +0.110 A 
BRANCH  12  18
ATOM     18  O   LIG    1        1.468  -2.008  -1.602  0.00  0.00    -0.320 OA
BRANCH  18  20
ATOM     19  C   LIG    1        0.661  -3.868  -2.918  0.00  0.00    +0.070 C 
ATOM     20  C   LIG    1        0.299  -2.559  -2.213  0.00  0.00    +0.180 C 
ENDBRANCH  18  20
ENDBRANCH  12  18
ENDBRANCH   8  17
ENDBRANCH   1  10
BRANCH   1  21
ATOM     21  N   LIG    1        7.188   0.282  -0.376  0.00  0.00    -0.730 N 
ATOM     22  H   LIG    1        6.981   1.210  -0.568  0.00  0.00    +0.410 HD
BRANCH  21  23
ATOM     23  C   LIG    1        8.483  -0.081   0.012  0.00  0.00    +0.220 A 
ATOM     24  C   LIG    1        8.777  -1.409   0.292  0.00  0.00    -0.070 A 
ATOM     25  C   LIG    1       10.055  -1.768   0.671  0.00  0.00    +0.090 A 
ATOM     26  C   LIG    1       11.044  -0.800   0.780  0.00  0.00    +0.020 A 
ATOM     27  C   LIG    1       10.749   0.528   0.505  0.00  0.00    +0.020 A 
ATOM     28  C   LIG    1        9.472   0.887   0.122  0.00  0.00    -0.060 A 
BRANCH  26  29
ATOM     29  N   LIG    1       12.339  -1.164   1.169  0.00  0.00    -0.480 N 
ATOM     30  C   LIG    1       13.320  -0.874   0.091  0.00  0.00    +0.170 C 
ATOM     31  C   LIG    1       14.672  -0.826   0.845  0.00  0.00    +0.030 C 
ATOM     32  C   LIG    1       14.298  -0.148   2.183  0.00  0.00    +0.010 C 
ATOM     33  C   LIG    1       12.783  -0.375   2.339  0.00  0.00    +0.170 C 
ENDBRANCH  26  29
ENDBRANCH  21  23
ENDBRANCH   1  21
TORSDOF 8
