REMARK  Name = ZINCqH0000050DyQ.0
REMARK                            x       y       z     vdW  Elec       q    Type
REMARK                         _______ _______ _______ _____ _____    ______ ____
ROOT
ATOM      1  C   LIG    1       -4.426  -3.931   0.007  0.00  0.00    +0.190 C 
ATOM      2  C   LIG    1       -4.833  -4.233   1.451  0.00  0.00    +0.070 C 
ENDROOT
BRANCH   1   3
ATOM      3  C   LIG    1       -4.156  -5.224  -0.719  0.00  0.00    +0.520 C 
ATOM      4  N   LIG    1       -5.159  -6.100  -0.930  0.00  0.00    -0.660 N 
ATOM      5  H   LIG    1       -6.037  -5.931  -0.556  0.00  0.00    +0.410 HD
ATOM      6  O   LIG    1       -3.038  -5.475  -1.114  0.00  0.00    -0.500 OA
BRANCH   4   7
ATOM      7  C   LIG    1       -4.931  -7.256  -1.688  0.00  0.00    +0.080 A 
ATOM      8  C   LIG    1       -5.935  -7.761  -2.504  0.00  0.00    +0.040 A 
ATOM      9  C   LIG    1       -5.709  -8.897  -3.255  0.00  0.00    -0.050 A 
ATOM     10  C   LIG    1       -4.481  -9.541  -3.187  0.00  0.00    +0.210 A 
ATOM     11  C   LIG    1       -3.478  -9.040  -2.367  0.00  0.00    -0.050 A 
ATOM     12  C   LIG    1       -3.702  -7.900  -1.620  0.00  0.00    +0.070 A 
BRANCH  10  13
ATOM     13  N   LIG    1       -4.254 -10.696  -3.943  0.00  0.00    -0.640 N 
ATOM     14  C   LIG    1       -5.311 -11.225  -4.808  0.00  0.00    +0.280 C 
ATOM     15  C   LIG    1       -2.958 -11.376  -3.871  0.00  0.00    +0.280 C 
ENDBRANCH  10  13
ENDBRANCH   4   7
ENDBRANCH   1   3
BRANCH   1  16
ATOM     16  O   LIG    1       -3.226  -3.114   0.003  0.00  0.00    -0.320 OA
BRANCH  16  17
ATOM     17  C   LIG    1       -3.395  -1.783   0.019  0.00  0.00    +0.490 C 
ATOM     18  O   LIG    1       -4.509  -1.315   0.035  0.00  0.00    -0.480 OA
BRANCH  17  19
ATOM     19  C   LIG    1       -2.195  -0.871   0.015  0.00  0.00    +0.130 C 
BRANCH  19  20
ATOM     20  S   LIG    1       -2.748   0.857   0.039  0.00  0.00    -0.020 S 
BRANCH  20  27
ATOM     21  C   LIG    1       -2.564   3.886   0.081  0.00  0.00    +0.100 C 
ATOM     22  C   LIG    1       -1.251   3.148   0.053  0.00  0.00    -0.060 A 
ATOM     23  C   LIG    1       -0.063   3.851   0.043  0.00  0.00    +0.030 A 
ATOM     24  C   LIG    1        1.143   3.174   0.017  0.00  0.00    +0.010 A 
ATOM     25  C   LIG    1        1.164   1.791   0.002  0.00  0.00    +0.020 A 
ATOM     26  C   LIG    1       -0.021   1.081   0.013  0.00  0.00    -0.010 A 
ATOM     27  C   LIG    1       -1.234   1.758   0.032  0.00  0.00    -0.110 A 
ENDBRANCH  20  27
ENDBRANCH  19  20
ENDBRANCH  17  19
ENDBRANCH  16  17
ENDBRANCH   1  16
TORSDOF 8
