REMARK  Name = ZINCrH00000tj0vx.1
REMARK                            x       y       z     vdW  Elec       q    Type
REMARK                         _______ _______ _______ _____ _____    ______ ____
ROOT
ATOM      1  C   LIG    1        2.795   4.561  -1.036  0.00  0.00    +0.550 C 
ATOM      2  N   LIG    1        2.362   3.890   0.050  0.00  0.00    -0.560 N 
ATOM      3  C   LIG    1        1.154   3.182   0.016  0.00  0.00    +0.100 A 
ATOM      4  C   LIG    1       -0.058   3.852   0.017  0.00  0.00    +0.040 A 
ATOM      5  C   LIG    1       -1.241   3.135   0.022  0.00  0.00    +0.030 A 
ATOM      6  C   LIG    1       -1.219   1.753   0.017  0.00  0.00    +0.050 A 
ATOM      7  C   LIG    1       -0.013   1.076   0.008  0.00  0.00    +0.020 A 
ATOM      8  C   LIG    1        1.176   1.786   0.000  0.00  0.00    +0.140 A 
ATOM      9  N   LIG    1        2.408   1.124  -0.047  0.00  0.00    -0.680 N 
ATOM     10  H   LIG    1        2.551   0.419  -0.698  0.00  0.00    +0.410 HD
ATOM     11  C   LIG    1        3.401   1.460   0.805  0.00  0.00    +0.530 C 
ATOM     12  C   LIG    1        3.165   2.482   1.886  0.00  0.00    +0.070 C 
ATOM     13  O   LIG    1        4.489   0.936   0.699  0.00  0.00    -0.520 OA
ATOM     14  C   LIG    1        3.146   3.889   1.286  0.00  0.00    +0.260 C 
ATOM     15  C   LIG    1        2.516   4.860   2.287  0.00  0.00    +0.050 C 
ATOM     16  O   LIG    1        3.843   5.172  -0.995  0.00  0.00    -0.510 OA
ENDROOT
BRANCH   1  17
ATOM     17  C   LIG    1        1.977   4.554  -2.302  0.00  0.00    +0.120 C 
BRANCH  17  18
ATOM     18  S   LIG    1        2.817   5.537  -3.569  0.00  0.00    +0.070 S 
BRANCH  18  25
ATOM     19  C   LIG    1       -1.314   5.539 -10.069  0.00  0.00    +0.100 C 
ATOM     20  C   LIG    1       -0.874   5.266  -8.654  0.00  0.00    -0.070 A 
ATOM     21  C   LIG    1       -1.663   4.481  -7.827  0.00  0.00    +0.010 A 
ATOM     22  C   LIG    1       -1.274   4.220  -6.532  0.00  0.00    +0.070 A 
ATOM     23  C   LIG    1       -0.077   4.751  -6.047  0.00  0.00    +0.050 A 
ATOM     24  N   LIG    1        0.560   4.675  -4.849  0.00  0.00    -0.490 NA
ATOM     25  C   LIG    1        1.676   5.361  -4.899  0.00  0.00    +0.250 A 
ATOM     26  N   LIG    1        1.819   5.923  -6.136  0.00  0.00    -0.580 N 
ATOM     27  H   LIG    1        2.555   6.481  -6.433  0.00  0.00    +0.430 HD
ATOM     28  C   LIG    1        0.719   5.546  -6.889  0.00  0.00    +0.060 A 
ATOM     29  C   LIG    1        0.312   5.797  -8.190  0.00  0.00    +0.010 A 
ENDBRANCH  18  25
ENDBRANCH  17  18
ENDBRANCH   1  17
TORSDOF 3
