REMARK  Name = ZINCrH000004tUZq.1
REMARK                            x       y       z     vdW  Elec       q    Type
REMARK                         _______ _______ _______ _____ _____    ______ ____
ROOT
ATOM      1  O   LIG    1        0.064   3.781   3.229  0.00  0.00    -0.520 OA
ATOM      2  C   LIG    1       -1.021   3.944   3.746  0.00  0.00    +0.510 C 
ATOM      3  N   LIG    1       -1.620   5.150   3.691  0.00  0.00    -0.730 N 
ATOM      4  H   LIG    1       -2.488   5.280   4.104  0.00  0.00    +0.400 HD
ENDROOT
BRANCH   3   5
ATOM      5  C   LIG    1       -0.961   6.264   3.005  0.00  0.00    +0.290 C 
BRANCH   5   6
ATOM      6  C   LIG    1       -1.896   7.475   2.985  0.00  0.00    +0.170 C 
BRANCH   6   7
ATOM      7  C   LIG    1       -2.119   7.961   4.395  0.00  0.00    -0.070 A 
ATOM      8  C   LIG    1       -3.276   7.617   5.068  0.00  0.00    +0.010 A 
ATOM      9  C   LIG    1       -3.481   8.062   6.361  0.00  0.00    +0.030 A 
ATOM     10  C   LIG    1       -2.530   8.849   6.981  0.00  0.00    +0.020 A 
ATOM     11  C   LIG    1       -1.371   9.193   6.307  0.00  0.00    -0.040 A 
ATOM     12 CL   LIG    1       -0.176  10.183   7.084  0.00  0.00    -0.070 Cl
ATOM     13  C   LIG    1       -1.164   8.744   5.015  0.00  0.00    +0.060 A 
ENDBRANCH   6   7
BRANCH   6  14
ATOM     14  N   LIG    1       -1.289   8.549   2.188  0.00  0.00    -0.510 NA
ATOM     15  C   LIG    1       -1.027   8.097   0.797  0.00  0.00    +0.170 C 
ATOM     16  C   LIG    1       -0.910   9.426   0.009  0.00  0.00    +0.030 C 
ATOM     17  C   LIG    1       -1.980  10.320   0.677  0.00  0.00    +0.010 C 
ATOM     18  C   LIG    1       -2.204   9.705   2.071  0.00  0.00    +0.170 C 
ENDBRANCH   6  14
ENDBRANCH   5   6
ENDBRANCH   3   5
BRANCH   2  19
ATOM     19  C   LIG    1       -1.699   2.797   4.451  0.00  0.00    +0.140 C 
BRANCH  19  20
ATOM     20  C   LIG    1       -0.827   1.571   4.370  0.00  0.00    -0.160 A 
ATOM     21  C   LIG    1       -0.908   0.590   3.454  0.00  0.00    +0.250 A 
ATOM     22  N   LIG    1        0.046  -0.357   3.698  0.00  0.00    -0.580 N 
ATOM     23  H   LIG    1        0.182  -1.160   3.171  0.00  0.00    +0.420 HD
ATOM     24  C   LIG    1        0.786  -0.003   4.803  0.00  0.00    +0.040 A 
ATOM     25  C   LIG    1        1.852  -0.575   5.484  0.00  0.00    +0.260 A 
ATOM     26  N   LIG    1        2.361   0.022   6.542  0.00  0.00    -0.470 NA
ATOM     27  C   LIG    1        1.897   1.171   7.004  0.00  0.00    +0.210 A 
ATOM     28  C   LIG    1        0.850   1.809   6.399  0.00  0.00    +0.010 A 
ATOM     29  C   LIG    1        0.268   1.223   5.271  0.00  0.00    -0.060 A 
ENDBRANCH  19  20
ENDBRANCH   2  19
TORSDOF 6
