REMARK  Name = ZINCtV00001bB38s.0
REMARK                            x       y       z     vdW  Elec       q    Type
REMARK                         _______ _______ _______ _____ _____    ______ ____
ROOT
ATOM      1  C   LIG    1       -1.141   1.876   0.017  0.00  0.00    -0.220 A 
ATOM      2  C   LIG    1       -0.013   1.076   0.008  0.00  0.00    +0.290 A 
ATOM      3  N   LIG    1        1.063   1.883   0.002  0.00  0.00    -0.300 N 
ATOM      4  N   LIG    1        0.650   3.218   0.013  0.00  0.00    -0.270 NA
ATOM      5  C   LIG    1       -0.663   3.264   0.026  0.00  0.00    +0.150 A 
ENDROOT
BRANCH   5   6
ATOM      6  C   LIG    1       -1.502   4.485   0.041  0.00  0.00    -0.010 A 
ATOM      7  C   LIG    1       -2.717   4.508  -0.644  0.00  0.00    +0.050 A 
ATOM      8  C   LIG    1       -3.497   5.645  -0.622  0.00  0.00    +0.050 A 
ATOM      9  C   LIG    1       -3.071   6.767   0.067  0.00  0.00    -0.080 A 
ATOM     10  C   LIG    1       -1.863   6.752   0.744  0.00  0.00    +0.050 A 
ATOM     11 BR   LIG    1       -4.141   8.326   0.086  0.00  0.00    -0.040 Br
ATOM     12  C   LIG    1       -1.078   5.618   0.734  0.00  0.00    +0.060 A 
ENDBRANCH   5   6
BRANCH   3  13
ATOM     13  C   LIG    1        2.396   1.451  -0.013  0.00  0.00    +0.150 A 
ATOM     14  C   LIG    1        2.687   0.093  -0.017  0.00  0.00    -0.010 A 
ATOM     15  C   LIG    1        4.002  -0.329  -0.039  0.00  0.00    +0.050 A 
ATOM     16  C   LIG    1        5.028   0.598  -0.043  0.00  0.00    +0.010 A 
ATOM     17  C   LIG    1        4.741   1.951  -0.033  0.00  0.00    +0.050 A 
ATOM     18  C   LIG    1        3.428   2.380  -0.018  0.00  0.00    +0.030 A 
ENDBRANCH   3  13
BRANCH   1  20
ATOM     19  C   LIG    1       -2.823   0.103   0.013  0.00  0.00    -0.140 C 
ATOM     20  C   LIG    1       -2.537   1.427   0.020  0.00  0.00    +0.190 C 
BRANCH  19  22
ATOM     21  O   LIG    1       -5.073   0.487   0.024  0.00  0.00    -0.460 OA
ATOM     22  C   LIG    1       -4.170  -0.331   0.016  0.00  0.00    +0.430 C 
BRANCH  22  23
ATOM     23  C   LIG    1       -4.482  -1.776   0.009  0.00  0.00    -0.170 A 
ATOM     24  C   LIG    1       -3.449  -2.716  -0.006  0.00  0.00    +0.090 A 
ATOM     25  C   LIG    1       -3.745  -4.062  -0.008  0.00  0.00    -0.030 A 
ATOM     26  C   LIG    1       -5.066  -4.484  -0.005  0.00  0.00    +0.130 A 
ATOM     27  C   LIG    1       -6.095  -3.555   0.004  0.00  0.00    -0.020 A 
ATOM     28  F   LIG    1       -5.350  -5.804  -0.012  0.00  0.00    -0.130 F 
ATOM     29  C   LIG    1       -5.810  -2.206   0.011  0.00  0.00    +0.120 A 
ENDBRANCH  22  23
ENDBRANCH  19  22
ENDBRANCH   1  20
TORSDOF 5
