REMARK  Name = ZINC670000002Lbj.0
REMARK                            x       y       z     vdW  Elec       q    Type
REMARK                         _______ _______ _______ _____ _____    ______ ____
ROOT
ATOM      1  N   LIG    1        1.339  -0.424  -0.013  0.00  0.00    -0.250 N 
ATOM      2  C   LIG    1        2.119   0.677  -0.015  0.00  0.00    +0.250 A 
ATOM      3  C   LIG    1        1.307   1.759  -0.001  0.00  0.00    -0.110 A 
ATOM      4  C   LIG    1       -0.016   1.304   0.009  0.00  0.00    +0.250 A 
ATOM      5  N   LIG    1        0.002  -0.004   0.002  0.00  0.00    -0.280 NA
ENDROOT
BRANCH   1   6
ATOM      6  O   LIG    1        1.790  -1.766  -0.025  0.00  0.00    -0.270 OA
ATOM      7  H   LIG    1        1.908  -2.133  -0.911  0.00  0.00    +0.390 HD
ENDBRANCH   1   6
TORSDOF 1
