REMARK  Name = ZINCpk00000eauW3.0
REMARK                            x       y       z     vdW  Elec       q    Type
REMARK                         _______ _______ _______ _____ _____    ______ ____
ROOT
ATOM      1  C   LIG    1        0.002  -0.004   0.002  0.00  0.00    +0.460 C 
ATOM      2  O   LIG    1       -0.504  -0.620   0.910  0.00  0.00    -0.500 OA
ENDROOT
BRANCH   1   3
ATOM      3  C   LIG    1       -0.018   1.503   0.010  0.00  0.00    +0.370 C 
BRANCH   3   5
ATOM      4  C   LIG    1       -0.843   3.297   1.437  0.00  0.00    +0.570 C 
ATOM      5  N   LIG    1       -0.704   1.975   1.216  0.00  0.00    -0.720 N 
ATOM      6  H   LIG    1       -1.058   1.337   1.854  0.00  0.00    +0.410 HD
ATOM      7  O   LIG    1       -0.400   4.098   0.637  0.00  0.00    -0.520 OA
BRANCH   4  12
ATOM      8  C   LIG    1       -2.330   5.581   4.027  0.00  0.00    +0.120 A 
ATOM      9  C   LIG    1       -2.834   4.662   4.937  0.00  0.00    -0.050 A 
ATOM     10  C   LIG    1       -2.691   3.305   4.708  0.00  0.00    +0.050 A 
ATOM     11  C   LIG    1       -2.051   2.857   3.572  0.00  0.00    +0.010 A 
ATOM     12  C   LIG    1       -1.535   3.774   2.654  0.00  0.00    -0.100 A 
ATOM     13  C   LIG    1       -1.681   5.142   2.886  0.00  0.00    +0.060 A 
BRANCH   8  15
ATOM     14  C   LIG    1       -3.154   7.295   5.454  0.00  0.00    +0.250 C 
ATOM     15  O   LIG    1       -2.474   6.913   4.257  0.00  0.00    -0.310 OA
ENDBRANCH   8  15
ENDBRANCH   4  12
ENDBRANCH   3   5
ENDBRANCH   1   3
BRANCH   1  16
ATOM     16  O   LIG    1        0.583  -0.662  -1.014  0.00  0.00    -0.320 OA
BRANCH  16  17
ATOM     17  C   LIG    1        0.565  -2.112  -0.956  0.00  0.00    +0.270 C 
BRANCH  17  18
ATOM     18  C   LIG    1        1.258  -2.672  -2.171  0.00  0.00    +0.520 C 
ATOM     19  N   LIG    1        1.362  -4.006  -2.332  0.00  0.00    -0.720 N 
ATOM     20  H   LIG    1        0.992  -4.606  -1.666  0.00  0.00    +0.400 HD
ATOM     21  O   LIG    1        1.720  -1.923  -3.005  0.00  0.00    -0.510 OA
BRANCH  19  22
ATOM     22  C   LIG    1        2.036  -4.551  -3.514  0.00  0.00    +0.240 C 
ATOM     23  C   LIG    1        1.041  -4.637  -4.674  0.00  0.00    +0.000 C 
ATOM     24  C   LIG    1        1.744  -5.205  -5.908  0.00  0.00    +0.020 C 
ATOM     25  C   LIG    1        2.280  -6.603  -5.591  0.00  0.00    +0.010 C 
ATOM     26  C   LIG    1        3.275  -6.517  -4.432  0.00  0.00    +0.020 C 
ATOM     27  C   LIG    1        2.571  -5.949  -3.197  0.00  0.00    +0.010 C 
ENDBRANCH  19  22
ENDBRANCH  17  18
ENDBRANCH  16  17
ENDBRANCH   1  16
TORSDOF 8
