REMARK  Name = ZINCqH0000000od1.0
REMARK                            x       y       z     vdW  Elec       q    Type
REMARK                         _______ _______ _______ _____ _____    ______ ____
ROOT
ATOM      1  C   LIG    1       -4.871  -2.448  -5.898  0.00  0.00    +0.270 A 
ATOM      2  N   LIG    1       -3.658  -2.472  -5.440  0.00  0.00    -0.460 NA
ATOM      3  C   LIG    1       -3.465  -1.972  -4.234  0.00  0.00    +0.100 A 
ATOM      4  C   LIG    1       -4.568  -1.510  -3.642  0.00  0.00    -0.060 A 
ATOM      5  S   LIG    1       -5.920  -1.741  -4.748  0.00  0.00    +0.160 S 
ENDROOT
BRANCH   1   8
ATOM      6  C   LIG    1       -4.747  -3.873  -9.371  0.00  0.00    +0.110 C 
ATOM      7  C   LIG    1       -4.346  -3.459  -7.979  0.00  0.00    +0.510 C 
ATOM      8  N   LIG    1       -5.261  -2.927  -7.145  0.00  0.00    -0.480 N 
ATOM      9  O   LIG    1       -3.201  -3.605  -7.609  0.00  0.00    -0.460 OA
BRANCH   8  10
ATOM     10  C   LIG    1       -6.605  -2.856  -7.532  0.00  0.00    +0.100 A 
ATOM     11  C   LIG    1       -7.466  -3.909  -7.253  0.00  0.00    +0.030 A 
ATOM     12  C   LIG    1       -8.793  -3.833  -7.633  0.00  0.00    +0.030 A 
ATOM     13  C   LIG    1       -9.260  -2.715  -8.299  0.00  0.00    +0.030 A 
ATOM     14  C   LIG    1       -8.404  -1.667  -8.582  0.00  0.00    +0.030 A 
ATOM     15  C   LIG    1       -7.078  -1.734  -8.201  0.00  0.00    +0.030 A 
ENDBRANCH   8  10
ENDBRANCH   1   8
BRANCH   3  16
ATOM     16  C   LIG    1       -2.110  -1.934  -3.576  0.00  0.00    +0.210 C 
BRANCH  16  17
ATOM     17  S   LIG    1       -1.280  -0.381  -3.994  0.00  0.00    +0.050 S 
BRANCH  17  18
ATOM     18  C   LIG    1        0.234  -0.598  -3.119  0.00  0.00    +0.210 A 
ATOM     19  N   LIG    1        0.573  -1.640  -2.390  0.00  0.00    -0.330 NA
ATOM     20  N   LIG    1        1.745  -1.477  -1.890  0.00  0.00    -0.030 NA
ATOM     21  N   LIG    1        2.236  -0.343  -2.260  0.00  0.00    -0.080 NA
ATOM     22  N   LIG    1        1.268   0.275  -3.070  0.00  0.00    -0.360 N 
BRANCH  22  23
ATOM     23  C   LIG    1        1.360   1.582  -3.726  0.00  0.00    +0.340 C 
BRANCH  23  24
ATOM     24  C   LIG    1        0.809   2.661  -2.792  0.00  0.00    -0.030 C 
ATOM     25  C   LIG    1        1.700   2.767  -1.553  0.00  0.00    +0.030 C 
ATOM     26  C   LIG    1        0.789   4.006  -3.522  0.00  0.00    +0.040 C 
ENDBRANCH  23  24
ENDBRANCH  22  23
ENDBRANCH  17  18
ENDBRANCH  16  17
ENDBRANCH   3  16
TORSDOF 7
