REMARK  Name = ZINCvU0000000ACA.0
REMARK                            x       y       z     vdW  Elec       q    Type
REMARK                         _______ _______ _______ _____ _____    ______ ____
ROOT
ATOM      1  C   LIG    1        1.756   2.096  -0.004  0.00  0.00    +0.080 C 
ENDROOT
BRANCH   1   2
ATOM      2  C   LIG    1        1.984   3.586   0.002  0.00  0.00    +0.440 C 
ATOM      3  O   LIG    1        1.036   4.345   0.015  0.00  0.00    -0.450 OA
BRANCH   2   6
ATOM      4  N   LIG    1        5.529   4.215  -0.028  0.00  0.00    -0.460 N 
ATOM      5  C   LIG    1        4.476   3.375  -0.023  0.00  0.00    +0.330 A 
ATOM      6  C   LIG    1        3.304   4.101  -0.007  0.00  0.00    -0.270 A 
ATOM      7  C   LIG    1        3.701   5.523  -0.010  0.00  0.00    -0.050 A 
ATOM      8  C   LIG    1        2.997   6.723   0.011  0.00  0.00    +0.060 A 
ATOM      9  C   LIG    1        3.685   7.918   0.011  0.00  0.00    +0.000 A 
ATOM     10  C   LIG    1        5.072   7.926  -0.003  0.00  0.00    +0.030 A 
ATOM     11  C   LIG    1        5.781   6.744  -0.016  0.00  0.00    +0.000 A 
ATOM     12  C   LIG    1        5.105   5.529  -0.017  0.00  0.00    +0.080 A 
BRANCH   4  13
ATOM     13  C   LIG    1        6.931   3.792  -0.044  0.00  0.00    +0.330 C 
BRANCH  13  14
ATOM     14  C   LIG    1        7.469   3.757   1.388  0.00  0.00    +0.200 C 
BRANCH  14  16
ATOM     15  N   LIG    1        9.966   3.005   1.360  0.00  0.00    -0.410 NA
ATOM     16  C   LIG    1        8.879   3.333   1.372  0.00  0.00    +0.200 C 
ENDBRANCH  14  16
ENDBRANCH  13  14
ENDBRANCH   4  13
ENDBRANCH   2   6
ENDBRANCH   1   2
BRANCH   1  17
ATOM     17  S   LIG    1       -0.022   1.758   0.012  0.00  0.00    +0.070 S 
BRANCH  17  18
ATOM     18  C   LIG    1        0.002  -0.004   0.002  0.00  0.00    +0.190 A 
ATOM     19  N   LIG    1        1.150  -0.670  -0.018  0.00  0.00    -0.510 NA
ATOM     20  C   LIG    1        1.181  -1.993  -0.020  0.00  0.00    +0.260 A 
ATOM     21  N   LIG    1        0.098  -2.733  -0.013  0.00  0.00    -0.460 NA
ATOM     22  C   LIG    1       -1.117  -2.162   0.001  0.00  0.00    +0.170 A 
ATOM     23  C   LIG    1       -2.294  -2.922   0.008  0.00  0.00    +0.060 A 
ATOM     24  C   LIG    1       -3.502  -2.290   0.022  0.00  0.00    +0.070 A 
ATOM     25  C   LIG    1       -3.586  -0.901   0.030  0.00  0.00    +0.040 A 
ATOM     26  C   LIG    1       -2.459  -0.132   0.024  0.00  0.00    +0.060 A 
ATOM     27  C   LIG    1       -1.204  -0.749   0.009  0.00  0.00    -0.120 A 
BRANCH  20  28
ATOM     28  C   LIG    1        2.522  -2.681  -0.037  0.00  0.00    +0.550 C 
ATOM     29  F   LIG    1        2.358  -4.030   0.299  0.00  0.00    -0.150 F 
ATOM     30  F   LIG    1        3.371  -2.070   0.891  0.00  0.00    -0.160 F 
ATOM     31  F   LIG    1        3.080  -2.583  -1.316  0.00  0.00    -0.160 F 
ENDBRANCH  20  28
ENDBRANCH  17  18
ENDBRANCH   1  17
TORSDOF 8
