REMARK  Name = ZINCpk00000FdbaJ.0
REMARK                            x       y       z     vdW  Elec       q    Type
REMARK                         _______ _______ _______ _____ _____    ______ ____
ROOT
ATOM      1  C   LIG    1        1.212   4.529   0.045  0.00  0.00    +0.250 C 
ATOM      2  C   LIG    1        1.292   5.100   1.466  0.00  0.00    +0.290 C 
ATOM      3  N   LIG    1        1.935   6.422   1.399  0.00  0.00    -0.610 N 
ATOM      4  C   LIG    1        1.415   7.396   0.426  0.00  0.00    +0.260 C 
ATOM      5  C   LIG    1        1.330   6.713  -0.944  0.00  0.00    +0.230 C 
ATOM      6  C   LIG    1        2.969   6.731   2.205  0.00  0.00    +0.600 C 
ATOM      7  O   LIG    1        3.326   5.948   3.065  0.00  0.00    -0.520 OA
ATOM      8  O   LIG    1        0.599   5.491  -0.816  0.00  0.00    -0.350 OA
ENDROOT
BRANCH   6   9
ATOM      9  C   LIG    1        3.667   8.017   2.047  0.00  0.00    -0.270 A 
ATOM     10  C   LIG    1        3.131   9.185   2.583  0.00  0.00    +0.190 A 
ATOM     11  C   LIG    1        3.821  10.385   2.413  0.00  0.00    -0.070 A 
ATOM     12  C   LIG    1        4.996  10.405   1.734  0.00  0.00    +0.220 A 
ATOM     13  N   LIG    1        5.523   9.273   1.210  0.00  0.00    -0.600 N 
ATOM     14  H   LIG    1        6.365   9.316   0.729  0.00  0.00    +0.420 HD
ATOM     15  C   LIG    1        4.901   8.087   1.349  0.00  0.00    +0.540 A 
ATOM     16  O   LIG    1        5.393   7.078   0.875  0.00  0.00    -0.530 OA
BRANCH  12  17
ATOM     17  C   LIG    1        5.729  11.710   1.561  0.00  0.00    +0.000 C 
ATOM     18  C   LIG    1        6.937  11.723   0.623  0.00  0.00    +0.050 C 
ATOM     19  C   LIG    1        7.143  11.809   2.136  0.00  0.00    +0.050 C 
ENDBRANCH  12  17
ENDBRANCH   6   9
BRANCH   1  24
ATOM     20  N   LIG    1        0.862   2.000  -0.041  0.00  0.00    -0.470 N 
ATOM     21  C   LIG    1       -0.224   1.191   0.012  0.00  0.00    +0.380 A 
ATOM     22  N   LIG    1       -1.274   1.957   0.128  0.00  0.00    -0.300 NA
ATOM     23  N   LIG    1       -0.909   3.190   0.159  0.00  0.00    -0.260 NA
ATOM     24  C   LIG    1        0.390   3.266   0.056  0.00  0.00    +0.170 A 
BRANCH  20  26
ATOM     25  C   LIG    1        2.903   1.502   1.212  0.00  0.00    +0.050 C 
ATOM     26  C   LIG    1        2.261   1.589  -0.175  0.00  0.00    +0.310 C 
ENDBRANCH  20  26
ENDBRANCH   1  24
TORSDOF 4
