REMARK  Name = ZINCrH00000No58U.0
REMARK                            x       y       z     vdW  Elec       q    Type
REMARK                         _______ _______ _______ _____ _____    ______ ____
ROOT
ATOM      1  N   LIG    1       -6.195   5.781  -3.318  0.00  0.00    -0.720 N 
ATOM      2  H   LIG    1       -6.364   5.057  -3.941  0.00  0.00    +0.400 HD
ATOM      3  C   LIG    1       -5.215   5.664  -2.399  0.00  0.00    +0.550 C 
ATOM      4  O   LIG    1       -5.002   6.573  -1.617  0.00  0.00    -0.550 OA
ENDROOT
BRANCH   3   5
ATOM      5  C   LIG    1       -4.434   4.485  -2.344  0.00  0.00    -0.080 C 
ATOM      6  C   LIG    1       -3.448   4.367  -1.420  0.00  0.00    +0.160 C 
BRANCH   6   7
ATOM      7  C   LIG    1       -2.667   3.187  -1.365  0.00  0.00    -0.020 A 
ATOM      8  C   LIG    1       -2.798   2.086  -2.185  0.00  0.00    +0.010 A 
ATOM      9  C   LIG    1       -1.820   1.166  -1.778  0.00  0.00    -0.060 A 
ATOM     10  C   LIG    1       -1.151   1.724  -0.745  0.00  0.00    +0.050 A 
ATOM     11  O   LIG    1       -1.660   2.940  -0.501  0.00  0.00    -0.160 OA
BRANCH  10  12
ATOM     12  C   LIG    1       -0.013   1.086   0.008  0.00  0.00    +0.050 C 
ATOM     13  C   LIG    1        0.484   1.792   1.271  0.00  0.00    +0.050 C 
ATOM     14  C   LIG    1        1.335   1.811  -0.001  0.00  0.00    -0.030 C 
ATOM     15  C   LIG    1        2.600   0.950  -0.018  0.00  0.00    +0.060 C 
ENDBRANCH  10  12
ENDBRANCH   6   7
ENDBRANCH   3   5
BRANCH   1  16
ATOM     16  C   LIG    1       -7.003   7.001  -3.375  0.00  0.00    +0.340 C 
BRANCH  16  22
ATOM     17  C   LIG    1       -9.186   6.157  -4.272  0.00  0.00    +0.150 A 
ATOM     18  C   LIG    1      -10.123   6.043  -5.287  0.00  0.00    -0.130 A 
ATOM     19  C   LIG    1       -9.894   6.652  -6.511  0.00  0.00    +0.150 A 
ATOM     20  C   LIG    1       -8.724   7.375  -6.718  0.00  0.00    +0.060 A 
ATOM     21  C   LIG    1       -7.793   7.490  -5.699  0.00  0.00    +0.040 A 
ATOM     22  C   LIG    1       -8.020   6.878  -4.480  0.00  0.00    -0.140 A 
BRANCH  17  24
ATOM     23  C   LIG    1      -10.632   4.833  -2.926  0.00  0.00    +0.240 C 
ATOM     24  O   LIG    1       -9.410   5.560  -3.071  0.00  0.00    -0.310 OA
ENDBRANCH  17  24
BRANCH  20  25
ATOM     25  O   LIG    1       -8.496   7.973  -7.919  0.00  0.00    -0.310 OA
ATOM     26  C   LIG    1       -7.274   8.699  -8.061  0.00  0.00    +0.240 C 
ENDBRANCH  20  25
BRANCH  19  27
ATOM     27  O   LIG    1      -10.812   6.541  -7.509  0.00  0.00    -0.300 OA
ATOM     28  C   LIG    1      -11.989   5.783  -7.226  0.00  0.00    +0.240 C 
ENDBRANCH  19  27
ENDBRANCH  16  22
ENDBRANCH   1  16
TORSDOF 8
