REMARK  Name = ZINCvU0000000CHh.0
REMARK                            x       y       z     vdW  Elec       q    Type
REMARK                         _______ _______ _______ _____ _____    ______ ____
ROOT
ATOM      1  C   LIG    1       -8.604   7.054   0.402  0.00  0.00    +0.140 A 
ATOM      2  C   LIG    1       -7.857   6.647  -0.638  0.00  0.00    -0.100 A 
ATOM      3  S   LIG    1       -6.424   5.840  -0.006  0.00  0.00    +0.100 S 
ATOM      4  C   LIG    1       -6.982   6.136   1.638  0.00  0.00    +0.330 A 
ATOM      5  N   LIG    1       -8.117   6.764   1.601  0.00  0.00    -0.530 NA
ENDROOT
BRANCH   1   9
ATOM      6  C   LIG    1      -12.289   9.117  -0.114  0.00  0.00    +0.150 A 
ATOM      7  C   LIG    1      -11.821   8.842   1.165  0.00  0.00    +0.000 A 
ATOM      8  C   LIG    1      -10.627   8.174   1.335  0.00  0.00    +0.070 A 
ATOM      9  C   LIG    1       -9.889   7.773   0.222  0.00  0.00    -0.030 A 
ATOM     10  C   LIG    1      -10.359   8.053  -1.060  0.00  0.00    +0.050 A 
ATOM     11  C   LIG    1      -11.556   8.717  -1.225  0.00  0.00    +0.010 A 
BRANCH   6  12
ATOM     12  N   LIG    1      -13.499   9.795  -0.284  0.00  0.00    -1.060 N 
ATOM     13  H   LIG    1      -14.274   9.544   0.243  0.00  0.00    +0.430 HD
BRANCH  12  15
ATOM     14  C   LIG    1      -12.443  12.278  -0.783  0.00  0.00    -0.280 C 
ATOM     15  S   LIG    1      -13.610  11.027  -1.385  0.00  0.00    +2.610 S 
ATOM     16  O   LIG    1      -14.947  11.490  -1.258  0.00  0.00    -0.950 OA
ATOM     17  O   LIG    1      -13.145  10.454  -2.599  0.00  0.00    -0.950 OA
ENDBRANCH  12  15
ENDBRANCH   6  12
ENDBRANCH   1   9
BRANCH   4  18
ATOM     18  N   LIG    1       -6.316   5.752   2.792  0.00  0.00    -0.630 N 
ATOM     19  H   LIG    1       -6.737   5.871   3.657  0.00  0.00    +0.420 HD
BRANCH  18  20
ATOM     20  C   LIG    1       -5.035   5.193   2.707  0.00  0.00    +0.120 A 
ATOM     21  C   LIG    1       -4.150   5.627   1.729  0.00  0.00    +0.020 A 
ATOM     22  C   LIG    1       -2.887   5.075   1.646  0.00  0.00    +0.030 A 
ATOM     23  C   LIG    1       -2.502   4.087   2.540  0.00  0.00    +0.120 A 
ATOM     24  C   LIG    1       -3.387   3.648   3.514  0.00  0.00    -0.040 A 
ATOM     25  C   LIG    1       -4.649   4.204   3.602  0.00  0.00    +0.030 A 
BRANCH  23  26
ATOM     26  O   LIG    1       -1.258   3.543   2.458  0.00  0.00    -0.310 OA
BRANCH  26  27
ATOM     27  C   LIG    1       -0.929   2.530   3.410  0.00  0.00    +0.240 C 
BRANCH  27  28
ATOM     28  C   LIG    1        0.479   2.050   3.166  0.00  0.00    -0.100 A 
ATOM     29  C   LIG    1        0.709   0.989   2.311  0.00  0.00    +0.020 A 
ATOM     30  C   LIG    1        1.999   0.544   2.093  0.00  0.00    +0.010 A 
ATOM     31  C   LIG    1        3.060   1.162   2.728  0.00  0.00    +0.020 A 
ATOM     32  C   LIG    1        2.830   2.224   3.583  0.00  0.00    +0.010 A 
ATOM     33  C   LIG    1        1.540   2.668   3.802  0.00  0.00    +0.020 A 
ENDBRANCH  27  28
ENDBRANCH  26  27
ENDBRANCH  23  26
ENDBRANCH  18  20
ENDBRANCH   4  18
TORSDOF 8
