REMARK  Name = ZINCnE000001TzUU.0
REMARK                            x       y       z     vdW  Elec       q    Type
REMARK                         _______ _______ _______ _____ _____    ______ ____
ROOT
ATOM      1  N   LIG    1       -1.191   1.867   0.018  0.00  0.00    -0.660 N 
ATOM      2  H   LIG    1       -1.196   2.836  -0.023  0.00  0.00    +0.410 HD
ATOM      3  C   LIG    1       -0.027   1.205   0.175  0.00  0.00    +0.520 C 
ATOM      4  O   LIG    1       -0.028   0.001   0.322  0.00  0.00    -0.510 OA
ENDROOT
BRANCH   1   9
ATOM      5  C   LIG    1       -4.749   0.989   0.319  0.00  0.00    -0.000 A 
ATOM      6  C   LIG    1       -4.765  -0.251  -0.292  0.00  0.00    -0.010 A 
ATOM      7  C   LIG    1       -3.597  -0.790  -0.801  0.00  0.00    +0.020 A 
ATOM      8  C   LIG    1       -2.412  -0.089  -0.704  0.00  0.00    -0.020 A 
ATOM      9  C   LIG    1       -2.391   1.155  -0.086  0.00  0.00    +0.140 A 
ATOM     10  C   LIG    1       -3.565   1.694   0.423  0.00  0.00    -0.020 A 
BRANCH   5  11
ATOM     11  C   LIG    1       -6.023   1.573   0.872  0.00  0.00    -0.020 C 
BRANCH  11  13
ATOM     12  O   LIG    1       -6.206   2.485  -1.303  0.00  0.00    -0.690 OA
ATOM     13  C   LIG    1       -6.707   2.387  -0.196  0.00  0.00    +0.500 C 
ATOM     14  O   LIG    1       -7.762   2.949   0.047  0.00  0.00    -0.700 OA
ENDBRANCH  11  13
ENDBRANCH   5  11
ENDBRANCH   1   9
BRANCH   3  15
ATOM     15  C   LIG    1        1.277   1.961   0.161  0.00  0.00    +0.070 C 
BRANCH  15  16
ATOM     16  C   LIG    1        2.419   0.996   0.348  0.00  0.00    -0.060 A 
ATOM     17  C   LIG    1        2.495   0.229   1.495  0.00  0.00    +0.040 A 
ATOM     18  C   LIG    1        3.540  -0.660   1.665  0.00  0.00    +0.000 A 
ATOM     19  C   LIG    1        4.515  -0.774   0.691  0.00  0.00    +0.000 A 
ATOM     20  C   LIG    1        4.442  -0.004  -0.454  0.00  0.00    +0.000 A 
ATOM     21  C   LIG    1        3.394   0.881  -0.626  0.00  0.00    +0.010 A 
ENDBRANCH  15  16
BRANCH  15  22
ATOM     22  C   LIG    1        1.284   2.986   1.297  0.00  0.00    -0.040 C 
ATOM     23  C   LIG    1        1.234   4.466   0.914  0.00  0.00    +0.020 C 
ATOM     24  C   LIG    1        2.531   3.859   1.452  0.00  0.00    +0.040 C 
ENDBRANCH  15  22
ENDBRANCH   3  15
TORSDOF 6
