REMARK  Name = ZINCpk00000y0CSX.0
REMARK                            x       y       z     vdW  Elec       q    Type
REMARK                         _______ _______ _______ _____ _____    ______ ____
ROOT
ATOM      1  C   LIG    1        1.201   2.082   0.060  0.00  0.00    +0.040 A 
ATOM      2  N   LIG    1        2.350   1.420  -0.013  0.00  0.00    -0.420 NA
ATOM      3  C   LIG    1        2.392   0.107  -0.022  0.00  0.00    +0.230 A 
ATOM      4  C   LIG    1        1.229  -0.647   0.043  0.00  0.00    +0.050 A 
ATOM      5  C   LIG    1        0.006  -0.005   0.120  0.00  0.00    -0.020 A 
ATOM      6  C   LIG    1       -0.013   1.388   0.129  0.00  0.00    +0.140 A 
ENDROOT
BRANCH   1   8
ATOM      7  O   LIG    1        0.153   4.169   0.133  0.00  0.00    -0.490 OA
ATOM      8  C   LIG    1        1.203   3.560   0.068  0.00  0.00    +0.570 C 
ATOM      9  N   LIG    1        2.369   4.232   0.002  0.00  0.00    -0.710 N 
ATOM     10  H   LIG    1        3.207   3.746  -0.051  0.00  0.00    +0.410 HD
BRANCH   9  11
ATOM     11  C   LIG    1        2.371   5.697   0.009  0.00  0.00    +0.250 C 
ATOM     12  C   LIG    1        3.731   6.212  -0.470  0.00  0.00    +0.050 C 
ATOM     13  C   LIG    1        4.846   5.290  -0.013  0.00  0.00    +0.020 C 
ATOM     14  C   LIG    1        5.051   5.276   1.491  0.00  0.00    +0.010 C 
ATOM     15  C   LIG    1        3.848   4.651   2.200  0.00  0.00    +0.270 C 
ATOM     16  N   LIG    1        2.842   5.699   2.434  0.00  0.00    -0.720 N 
ATOM     17  H   LIG    1        2.691   6.029   3.334  0.00  0.00    +0.400 HD
ATOM     18  C   LIG    1        2.138   6.199   1.418  0.00  0.00    +0.510 C 
ATOM     19  O   LIG    1        1.307   7.059   1.624  0.00  0.00    -0.540 OA
ENDBRANCH   9  11
ENDBRANCH   1   8
BRANCH   6  20
ATOM     20  O   LIG    1       -1.188   2.061   0.197  0.00  0.00    -0.260 OA
BRANCH  20  21
ATOM     21  C   LIG    1       -2.382   1.278   0.258  0.00  0.00    +0.250 C 
BRANCH  21  22
ATOM     22  C   LIG    1       -3.579   2.191   0.328  0.00  0.00    -0.050 A 
ATOM     23  C   LIG    1       -4.081   2.609   1.551  0.00  0.00    -0.010 A 
ATOM     24  C   LIG    1       -5.178   3.450   1.576  0.00  0.00    +0.260 A 
ATOM     25  N   LIG    1       -5.751   3.845   0.456  0.00  0.00    -0.480 NA
ATOM     26  C   LIG    1       -5.303   3.463  -0.724  0.00  0.00    +0.260 A 
ATOM     27  C   LIG    1       -4.208   2.627  -0.828  0.00  0.00    -0.010 A 
ENDBRANCH  21  22
ENDBRANCH  20  21
ENDBRANCH   6  20
TORSDOF 5
