REMARK  Name = ZINCrD000000ATpR.0
REMARK                            x       y       z     vdW  Elec       q    Type
REMARK                         _______ _______ _______ _____ _____    ______ ____
ROOT
ATOM      1  C   LIG    1        1.153   3.176   0.008  0.00  0.00    -0.150 A 
ATOM      2  C   LIG    1        1.174   1.780   0.000  0.00  0.00    +0.110 A 
ATOM      3  C   LIG    1       -0.013   1.076   0.008  0.00  0.00    +0.000 A 
ATOM      4  C   LIG    1       -1.221   1.750   0.017  0.00  0.00    +0.150 A 
ATOM      5  C   LIG    1       -1.248   3.133   0.030  0.00  0.00    -0.690 A 
ATOM      6  C   LIG    1       -0.070   3.849   0.022  0.00  0.00    +0.200 A 
ENDROOT
BRANCH   1   8
ATOM      7  O   LIG    1        2.399   5.152   0.006  0.00  0.00    -0.530 OA
ATOM      8  C   LIG    1        2.420   3.937   0.000  0.00  0.00    +0.560 C 
ATOM      9  N   LIG    1        3.599   3.284  -0.014  0.00  0.00    -0.730 N 
ATOM     10  H   LIG    1        3.616   2.314  -0.019  0.00  0.00    +0.400 HD
BRANCH   9  11
ATOM     11  C   LIG    1        4.855   4.038  -0.021  0.00  0.00    +0.260 C 
BRANCH  11  12
ATOM     12  C   LIG    1        6.035   3.064  -0.037  0.00  0.00    +0.050 C 
BRANCH  12  13
ATOM     13  C   LIG    1        7.326   3.841  -0.044  0.00  0.00    -0.120 C 
ATOM     14  C   LIG    1        7.905   4.067   1.091  0.00  0.00    -0.040 C 
ATOM     15  C   LIG    1        9.190   4.827   1.243  0.00  0.00    +0.050 C 
ATOM     16  C   LIG    1        9.909   4.926  -0.104  0.00  0.00    +0.010 C 
ATOM     17  C   LIG    1        8.902   5.408  -1.157  0.00  0.00    +0.020 C 
ATOM     18  C   LIG    1        7.858   4.309  -1.367  0.00  0.00    +0.060 C 
ENDBRANCH  12  13
ENDBRANCH  11  12
ENDBRANCH   9  11
ENDBRANCH   1   8
BRANCH   5  19
ATOM     19  S   LIG    1       -2.792   3.982   0.048  0.00  0.00    +2.700 S 
ATOM     20  O   LIG    1       -2.537   5.267   0.596  0.00  0.00    -0.940 OA
ATOM     21  O   LIG    1       -3.741   3.077   0.597  0.00  0.00    -0.950 OA
BRANCH  19  22
ATOM     22  N   LIG    1       -3.237   4.225  -1.529  0.00  0.00    -1.110 NA
ATOM     23  H   LIG    1       -3.296   5.126  -1.882  0.00  0.00    +0.420 HD
BRANCH  22  24
ATOM     24  C   LIG    1       -3.539   3.079  -2.390  0.00  0.00    +0.400 C 
BRANCH  24  25
ATOM     25  C   LIG    1       -4.257   3.555  -3.626  0.00  0.00    -0.040 A 
ATOM     26  C   LIG    1       -3.674   3.937  -4.777  0.00  0.00    -0.030 A 
ATOM     27  C   LIG    1       -4.714   4.301  -5.662  0.00  0.00    -0.070 A 
ATOM     28  C   LIG    1       -5.871   4.129  -4.997  0.00  0.00    +0.190 A 
ATOM     29  O   LIG    1       -5.588   3.676  -3.764  0.00  0.00    -0.170 OA
ENDBRANCH  24  25
ENDBRANCH  22  24
ENDBRANCH  19  22
ENDBRANCH   5  19
TORSDOF 8
