REMARK  Name = ZINCrH000004nCId.0
REMARK                            x       y       z     vdW  Elec       q    Type
REMARK                         _______ _______ _______ _____ _____    ______ ____
ROOT
ATOM      1  C   LIG    1        1.125  -4.812  -0.057  0.00  0.00    +0.520 C 
ATOM      2  N   LIG    1        1.246  -6.154  -0.072  0.00  0.00    -0.610 N 
ATOM      3  C   LIG    1        0.049  -6.998  -0.066  0.00  0.00    +0.280 C 
ATOM      4  O   LIG    1        2.117  -4.114  -0.062  0.00  0.00    -0.510 OA
ENDROOT
BRANCH   1   5
ATOM      5  C   LIG    1       -0.242  -4.179  -0.035  0.00  0.00    +0.220 C 
BRANCH   5   6
ATOM      6  O   LIG    1       -0.108  -2.757  -0.023  0.00  0.00    -0.280 OA
BRANCH   6  12
ATOM      7  C   LIG    1       -1.201  -0.638   0.010  0.00  0.00    +0.100 A 
ATOM      8  C   LIG    1       -2.374   0.099   0.025  0.00  0.00    -0.030 A 
ATOM      9  C   LIG    1       -3.596  -0.547   0.034  0.00  0.00    +0.020 A 
ATOM     10  C   LIG    1       -3.652  -1.928   0.027  0.00  0.00    +0.010 A 
ATOM     11  C   LIG    1       -2.485  -2.670   0.012  0.00  0.00    -0.050 A 
ATOM     12  C   LIG    1       -1.257  -2.029  -0.003  0.00  0.00    +0.100 A 
BRANCH   7  14
ATOM     13  C   LIG    1       -0.017   1.425   0.010  0.00  0.00    +0.250 C 
ATOM     14  O   LIG    1        0.002  -0.004   0.002  0.00  0.00    -0.300 OA
ENDBRANCH   7  14
ENDBRANCH   6  12
ENDBRANCH   5   6
ENDBRANCH   1   5
BRANCH   2  15
ATOM     15  C   LIG    1        2.576  -6.770  -0.093  0.00  0.00    +0.340 C 
BRANCH  15  16
ATOM     16  C   LIG    1        3.048  -6.994   1.320  0.00  0.00    -0.140 A 
ATOM     17  C   LIG    1        3.773  -6.012   1.969  0.00  0.00    +0.060 A 
ATOM     18  C   LIG    1        4.203  -6.212   3.267  0.00  0.00    -0.040 A 
ATOM     19  C   LIG    1        3.916  -7.407   3.915  0.00  0.00    +0.120 A 
ATOM     20  C   LIG    1        3.193  -8.394   3.257  0.00  0.00    -0.030 A 
ATOM     21  C   LIG    1        2.761  -8.185   1.962  0.00  0.00    +0.040 A 
BRANCH  19  22
ATOM     22  N   LIG    1        4.354  -7.615   5.224  0.00  0.00    -0.490 N 
ATOM     23  C   LIG    1        3.231  -7.948   6.109  0.00  0.00    +0.180 C 
ATOM     24  C   LIG    1        3.762  -8.311   7.497  0.00  0.00    +0.020 C 
ATOM     25  C   LIG    1        4.548  -7.125   8.064  0.00  0.00    +0.010 C 
ATOM     26  C   LIG    1        5.683  -6.768   7.100  0.00  0.00    +0.020 C 
ATOM     27  C   LIG    1        5.095  -6.449   5.723  0.00  0.00    +0.180 C 
ENDBRANCH  19  22
ENDBRANCH  15  16
ENDBRANCH   2  15
TORSDOF 7
