REMARK  Name = ZINCvU00000008sT.0
REMARK                            x       y       z     vdW  Elec       q    Type
REMARK                         _______ _______ _______ _____ _____    ______ ____
ROOT
ATOM      1  C   LIG    1        4.231  -2.973   0.157  0.00  0.00    +0.210 C 
ATOM      2  C   LIG    1        3.533  -1.807   0.067  0.00  0.00    -0.040 C 
ATOM      3  C   LIG    1        4.229  -0.577   0.063  0.00  0.00    +0.150 C 
ATOM      4  C   LIG    1        5.701  -0.629   0.154  0.00  0.00    -0.140 A 
ATOM      5  C   LIG    1        6.468   0.534   0.152  0.00  0.00    +0.070 A 
ATOM      6  C   LIG    1        7.841   0.444   0.238  0.00  0.00    -0.100 A 
ATOM      7  C   LIG    1        8.456  -0.796   0.327  0.00  0.00    +0.080 A 
ATOM      8  C   LIG    1        7.706  -1.954   0.341  0.00  0.00    +0.020 A 
ATOM      9  C   LIG    1        8.678   1.698   0.236  0.00  0.00    +0.100 C 
ATOM     10  C   LIG    1        6.322  -1.884   0.249  0.00  0.00    +0.140 A 
ATOM     11  C   LIG    1        3.545   0.648  -0.029  0.00  0.00    -0.130 C 
ATOM     12  O   LIG    1        5.572  -3.007   0.245  0.00  0.00    -0.220 OA
ENDROOT
BRANCH  11  13
ATOM     13  C   LIG    1        2.112   0.715   0.281  0.00  0.00    +0.370 A 
ATOM     14  N   LIG    1        1.395  -0.276   0.768  0.00  0.00    -0.490 NA
ATOM     15  C   LIG    1        0.112   0.129   0.933  0.00  0.00    +0.060 A 
ATOM     16  C   LIG    1       -1.040  -0.507   1.405  0.00  0.00    +0.060 A 
ATOM     17  C   LIG    1       -2.230   0.184   1.457  0.00  0.00    +0.010 A 
ATOM     18  C   LIG    1       -2.295   1.506   1.044  0.00  0.00    +0.030 A 
ATOM     19  C   LIG    1       -1.166   2.150   0.579  0.00  0.00    +0.010 A 
ATOM     20  C   LIG    1        0.040   1.470   0.515  0.00  0.00    +0.050 A 
ATOM     21  N   LIG    1        1.316   1.819   0.108  0.00  0.00    -0.600 N 
ATOM     22  H   LIG    1        1.595   2.682  -0.236  0.00  0.00    +0.420 HD
ENDBRANCH  11  13
BRANCH   1  26
ATOM     23  C   LIG    1        2.091  -6.639   0.162  0.00  0.00    +0.160 A 
ATOM     24  C   LIG    1        3.478  -6.646   0.252  0.00  0.00    -0.020 A 
ATOM     25  C   LIG    1        4.176  -5.459   0.251  0.00  0.00    +0.100 A 
ATOM     26  C   LIG    1        3.488  -4.246   0.159  0.00  0.00    -0.110 A 
ATOM     27  C   LIG    1        2.092  -4.243   0.074  0.00  0.00    +0.110 A 
ATOM     28  C   LIG    1        1.403  -5.435   0.070  0.00  0.00    -0.070 A 
BRANCH  23  30
ATOM     29  C   LIG    1       -0.017  -7.732   0.069  0.00  0.00    +0.240 C 
ATOM     30  O   LIG    1        1.406  -7.811   0.164  0.00  0.00    -0.310 OA
ENDBRANCH  23  30
ENDBRANCH   1  26
BRANCH  11  31
ATOM     31  C   LIG    1        4.247   1.832  -0.426  0.00  0.00    +0.270 C 
ATOM     32  N   LIG    1        4.804   2.770  -0.742  0.00  0.00    -0.430 NA
ENDBRANCH  11  31
TORSDOF 4
