REMARK  Name = ZINCrD0000074wQf.0
REMARK                            x       y       z     vdW  Elec       q    Type
REMARK                         _______ _______ _______ _____ _____    ______ ____
ROOT
ATOM      1  N   LIG    1        2.041   2.245  -2.889  0.00  0.00    -0.650 N 
ATOM      2  H   LIG    1        2.831   1.998  -2.383  0.00  0.00    +0.410 HD
ATOM      3  C   LIG    1        1.032   2.902  -2.283  0.00  0.00    +0.520 C 
ATOM      4  O   LIG    1        0.044   3.211  -2.915  0.00  0.00    -0.480 OA
ENDROOT
BRANCH   3   5
ATOM      5  C   LIG    1        1.131   3.251  -0.820  0.00  0.00    +0.070 C 
ATOM      6  C   LIG    1        1.284   1.970   0.000  0.00  0.00    +0.100 C 
ATOM      7  C   LIG    1       -0.014   1.209   0.009  0.00  0.00    +0.520 C 
ATOM      8  N   LIG    1       -1.193   1.858   0.018  0.00  0.00    -0.660 N 
ATOM      9  H   LIG    1       -2.021   1.352   0.032  0.00  0.00    +0.420 HD
ATOM     10  C   LIG    1       -1.233   3.255   0.013  0.00  0.00    +0.180 A 
ATOM     11  C   LIG    1       -2.384   3.924   0.407  0.00  0.00    -0.020 A 
ATOM     12  C   LIG    1       -2.416   5.305   0.395  0.00  0.00    +0.050 A 
ATOM     13  C   LIG    1       -1.304   6.021  -0.009  0.00  0.00    -0.010 A 
ATOM     14  C   LIG    1       -0.156   5.357  -0.403  0.00  0.00    +0.060 A 
ATOM     15  O   LIG    1        0.002  -0.004   0.002  0.00  0.00    -0.520 OA
ATOM     16  C   LIG    1       -0.118   3.977  -0.392  0.00  0.00    -0.110 A 
ENDBRANCH   3   5
BRANCH   1  21
ATOM     17  C   LIG    1        0.341   1.804  -7.560  0.00  0.00    +0.160 C 
ATOM     18  C   LIG    1        1.218   1.709  -6.338  0.00  0.00    +0.100 A 
ATOM     19  N   LIG    1        2.399   1.147  -6.286  0.00  0.00    -0.280 NA
ATOM     20  N   LIG    1        2.889   1.270  -4.979  0.00  0.00    -0.340 N 
ATOM     21  C   LIG    1        1.950   1.922  -4.242  0.00  0.00    +0.310 A 
ATOM     22  C   LIG    1        0.907   2.206  -5.069  0.00  0.00    -0.080 A 
BRANCH  20  23
ATOM     23  C   LIG    1        4.127   0.802  -4.514  0.00  0.00    +0.150 A 
ATOM     24  C   LIG    1        4.825   1.520  -3.552  0.00  0.00    +0.020 A 
ATOM     25  C   LIG    1        6.040   1.054  -3.091  0.00  0.00    +0.030 A 
ATOM     26  C   LIG    1        6.568  -0.123  -3.595  0.00  0.00    +0.100 A 
ATOM     27  C   LIG    1        5.876  -0.838  -4.558  0.00  0.00    +0.020 A 
ATOM     28  F   LIG    1        7.760  -0.574  -3.147  0.00  0.00    -0.130 F 
ATOM     29  C   LIG    1        4.657  -0.378  -5.018  0.00  0.00    +0.070 A 
ENDBRANCH  20  23
ENDBRANCH   1  21
TORSDOF 3
