REMARK  Name = ZINCpe00000yqbtq.0
REMARK                            x       y       z     vdW  Elec       q    Type
REMARK                         _______ _______ _______ _____ _____    ______ ____
ROOT
ATOM      1  C   LIG    1       -0.991  -0.801  -0.440  0.00  0.00    +0.620 C 
ATOM      2  N   LIG    1        0.002  -0.004   0.002  0.00  0.00    -0.610 N 
ATOM      3  C   LIG    1        1.285  -0.461   0.557  0.00  0.00    +0.250 C 
ATOM      4  C   LIG    1        2.109   0.797   0.901  0.00  0.00    +0.030 C 
ATOM      5  C   LIG    1        1.474   1.887  -0.002  0.00  0.00    +0.000 C 
ATOM      6  C   LIG    1       -0.018   1.470   0.010  0.00  0.00    +0.260 C 
ATOM      7  O   LIG    1       -2.013  -0.311  -0.880  0.00  0.00    -0.530 OA
ENDROOT
BRANCH   1  10
ATOM      8  C   LIG    1       -1.213  -4.433  -0.579  0.00  0.00    +0.020 A 
ATOM      9  C   LIG    1       -1.786  -3.229  -0.815  0.00  0.00    -0.010 A 
ATOM     10  C   LIG    1       -0.838  -2.269  -0.390  0.00  0.00    -0.010 A 
ATOM     11  N   LIG    1        0.210  -2.933   0.053  0.00  0.00    -0.260 NA
ATOM     12  N   LIG    1        0.005  -4.198  -0.045  0.00  0.00    -0.280 N 
BRANCH   8  14
ATOM     13  C   LIG    1       -1.556  -6.168  -2.317  0.00  0.00    +0.030 C 
ATOM     14  C   LIG    1       -1.821  -5.783  -0.860  0.00  0.00    +0.110 C 
ENDBRANCH   8  14
BRANCH  12  15
ATOM     15  C   LIG    1        0.957  -5.235   0.358  0.00  0.00    +0.340 C 
BRANCH  15  16
ATOM     16  C   LIG    1        1.865  -5.582  -0.824  0.00  0.00    +0.180 C 
BRANCH  16  17
ATOM     17  O   LIG    1        2.794  -6.594  -0.430  0.00  0.00    -0.570 OA
ATOM     18  H   LIG    1        3.403  -6.864  -1.131  0.00  0.00    +0.390 HD
ENDBRANCH  16  17
ENDBRANCH  15  16
ENDBRANCH  12  15
ENDBRANCH   1  10
BRANCH   5  19
ATOM     19  C   LIG    1        1.659   3.279   0.606  0.00  0.00    -0.010 C 
ATOM     20  C   LIG    1        1.378   4.424  -0.381  0.00  0.00    +0.010 C 
ATOM     21  C   LIG    1        2.592   5.144   0.233  0.00  0.00    +0.220 C 
ATOM     22  C   LIG    1        3.122   3.754   0.622  0.00  0.00    +0.030 C 
BRANCH  21  23
ATOM     23  N   LIG    1        2.254   5.987   1.383  0.00  0.00    -0.720 N 
ATOM     24  H   LIG    1        2.021   5.578   2.232  0.00  0.00    +0.400 HD
ATOM     25  C   LIG    1        2.268   7.329   1.263  0.00  0.00    +0.510 C 
ATOM     26  O   LIG    1        2.561   7.840   0.203  0.00  0.00    -0.540 OA
ATOM     27  C   LIG    1        1.921   8.195   2.446  0.00  0.00    +0.090 C 
ENDBRANCH  21  23
ENDBRANCH   5  19
TORSDOF 7
