REMARK  Name = ZINCpk00000y6vLK.0
REMARK                            x       y       z     vdW  Elec       q    Type
REMARK                         _______ _______ _______ _____ _____    ______ ____
ROOT
ATOM      1  N   LIG    1        1.016  -0.734  -0.373  0.00  0.00    -0.480 NA
ATOM      2  C   LIG    1       -0.305  -0.386   0.181  0.00  0.00    +0.200 C 
ATOM      3  C   LIG    1       -0.389   1.154   0.232  0.00  0.00    +0.160 C 
ATOM      4  C   LIG    1        1.101   1.585   0.237  0.00  0.00    +0.030 C 
ATOM      5  F   LIG    1       -1.030   1.576   1.402  0.00  0.00    -0.200 F 
ATOM      6  C   LIG    1        1.739   0.517  -0.686  0.00  0.00    +0.140 C 
ENDROOT
BRANCH   1   7
ATOM      7  C   LIG    1        0.881  -1.577  -1.568  0.00  0.00    +0.360 C 
BRANCH   7  11
ATOM      8  C   LIG    1       -2.619   0.528  -4.465  0.00  0.00    +0.250 C 
ATOM      9  C   LIG    1       -1.308   0.082  -3.870  0.00  0.00    +0.180 A 
ATOM     10  N   LIG    1       -1.148  -0.670  -2.807  0.00  0.00    -0.480 NA
ATOM     11  C   LIG    1        0.181  -0.802  -2.654  0.00  0.00    +0.140 A 
ATOM     12  N   LIG    1        0.752  -0.142  -3.617  0.00  0.00    -0.380 NA
ATOM     13  O   LIG    1       -0.086   0.373  -4.327  0.00  0.00    +0.070 OA
ENDBRANCH   7  11
ENDBRANCH   1   7
BRANCH   6  14
ATOM     14  C   LIG    1        3.229   0.364  -0.374  0.00  0.00    +0.220 C 
BRANCH  14  15
ATOM     15  N   LIG    1        3.773  -0.774  -1.126  0.00  0.00    -0.520 NA
ATOM     16  C   LIG    1        3.975  -0.425  -2.538  0.00  0.00    +0.190 C 
BRANCH  15  17
ATOM     17  C   LIG    1        5.020  -1.258  -0.520  0.00  0.00    +0.310 C 
BRANCH  17  18
ATOM     18  C   LIG    1        5.416  -2.564  -1.160  0.00  0.00    +0.190 A 
ATOM     19  N   LIG    1        4.993  -3.751  -0.821  0.00  0.00    -0.260 NA
ATOM     20  N   LIG    1        5.536  -4.637  -1.579  0.00  0.00    -0.280 NA
ATOM     21  C   LIG    1        6.330  -4.055  -2.435  0.00  0.00    +0.210 A 
ATOM     22  N   LIG    1        6.273  -2.723  -2.197  0.00  0.00    -0.580 N 
ATOM     23  H   LIG    1        6.751  -2.024  -2.672  0.00  0.00    +0.420 HD
BRANCH  21  24
ATOM     24  C   LIG    1        7.154  -4.739  -3.496  0.00  0.00    +0.060 C 
ATOM     25  C   LIG    1        7.712  -3.870  -4.625  0.00  0.00    +0.030 C 
ATOM     26  C   LIG    1        6.557  -4.836  -4.901  0.00  0.00    +0.060 C 
ENDBRANCH  21  24
ENDBRANCH  17  18
ENDBRANCH  15  17
ENDBRANCH  14  15
ENDBRANCH   6  14
TORSDOF 7
