REMARK  Name = ZINCpk00000y6vLK.1
REMARK                            x       y       z     vdW  Elec       q    Type
REMARK                         _______ _______ _______ _____ _____    ______ ____
ROOT
ATOM      1  N   LIG    1        2.899  -5.531  -2.037  0.00  0.00    -0.510 NA
ATOM      2  C   LIG    1        1.872  -6.562  -2.297  0.00  0.00    +0.180 C 
ATOM      3  C   LIG    1        0.817  -5.853  -3.183  0.00  0.00    +0.180 C 
ATOM      4  C   LIG    1        0.803  -4.423  -2.575  0.00  0.00    +0.030 C 
ATOM      5  F   LIG    1       -0.435  -6.465  -3.057  0.00  0.00    -0.200 F 
ATOM      6  C   LIG    1        2.278  -4.202  -2.181  0.00  0.00    +0.190 C 
ENDROOT
BRANCH   1   7
ATOM      7  C   LIG    1        3.483  -5.697  -0.699  0.00  0.00    +0.330 C 
BRANCH   7  11
ATOM      8  C   LIG    1        6.952  -9.303  -0.903  0.00  0.00    +0.250 C 
ATOM      9  C   LIG    1        5.667  -8.539  -0.712  0.00  0.00    +0.180 A 
ATOM     10  N   LIG    1        5.482  -7.258  -0.922  0.00  0.00    -0.470 NA
ATOM     11  C   LIG    1        4.192  -7.025  -0.621  0.00  0.00    +0.180 A 
ATOM     12  N   LIG    1        3.670  -8.154  -0.245  0.00  0.00    -0.380 NA
ATOM     13  O   LIG    1        4.499  -9.037  -0.295  0.00  0.00    +0.080 OA
ENDBRANCH   7  11
ENDBRANCH   1   7
BRANCH   6  14
ATOM     14  C   LIG    1        2.354  -3.445  -0.854  0.00  0.00    +0.170 C 
BRANCH  14  15
ATOM     15  N   LIG    1        1.893  -2.064  -1.050  0.00  0.00    -0.530 NA
ATOM     16  C   LIG    1        0.430  -2.012  -1.181  0.00  0.00    +0.190 C 
BRANCH  15  17
ATOM     17  C   LIG    1        2.356  -1.194   0.039  0.00  0.00    +0.320 C 
BRANCH  17  18
ATOM     18  C   LIG    1        2.079   0.244  -0.315  0.00  0.00    +0.240 A 
ATOM     19  N   LIG    1        2.895   1.040  -0.955  0.00  0.00    -0.290 NA
ATOM     20  N   LIG    1        2.245   2.280  -1.071  0.00  0.00    -0.480 N 
ATOM     21  H   LIG    1        2.591   3.080  -1.497  0.00  0.00    +0.440 HD
ATOM     22  C   LIG    1        1.049   2.138  -0.475  0.00  0.00    +0.320 A 
ATOM     23  N   LIG    1        0.962   0.912  -0.026  0.00  0.00    -0.530 NA
BRANCH  22  24
ATOM     24  C   LIG    1       -0.010   3.203  -0.351  0.00  0.00    +0.050 C 
ATOM     25  C   LIG    1        0.414   4.652  -0.592  0.00  0.00    +0.030 C 
ATOM     26  C   LIG    1        0.099   4.173   0.827  0.00  0.00    +0.060 C 
ENDBRANCH  22  24
ENDBRANCH  17  18
ENDBRANCH  15  17
ENDBRANCH  14  15
ENDBRANCH   6  14
TORSDOF 7
