REMARK  Name = ZINCrg000000tcJy.0
REMARK                            x       y       z     vdW  Elec       q    Type
REMARK                         _______ _______ _______ _____ _____    ______ ____
ROOT
ATOM      1  C   LIG    1       -5.275  -0.134   0.634  0.00  0.00    +0.230 C 
ENDROOT
BRANCH   1   3
ATOM      2  O   LIG    1       -3.615   1.526   0.864  0.00  0.00    -0.440 OA
ATOM      3  C   LIG    1       -3.858   0.339   0.830  0.00  0.00    +0.520 C 
ATOM      4  N   LIG    1       -2.861  -0.557   0.970  0.00  0.00    -0.690 N 
ATOM      5  H   LIG    1       -3.056  -1.507   0.943  0.00  0.00    +0.410 HD
ATOM      6  C   LIG    1       -1.594  -0.134   1.145  0.00  0.00    +0.700 C 
ATOM      7  N   LIG    1       -0.597  -1.030   1.285  0.00  0.00    -0.740 N 
ATOM      8  H   LIG    1       -0.792  -1.980   1.258  0.00  0.00    +0.400 HD
ATOM      9  O   LIG    1       -1.350   1.056   1.179  0.00  0.00    -0.530 OA
BRANCH   7  10
ATOM     10  C   LIG    1        0.781  -0.570   1.470  0.00  0.00    +0.410 C 
BRANCH  10  11
ATOM     11  C   LIG    1        1.697  -1.761   1.592  0.00  0.00    -0.050 A 
ATOM     12  C   LIG    1        2.315  -2.385   0.574  0.00  0.00    -0.030 A 
ATOM     13  C   LIG    1        3.070  -3.439   1.138  0.00  0.00    -0.070 A 
ATOM     14  C   LIG    1        2.861  -3.401   2.466  0.00  0.00    +0.190 A 
ATOM     15  O   LIG    1        2.028  -2.382   2.736  0.00  0.00    -0.170 OA
ENDBRANCH  10  11
ENDBRANCH   7  10
ENDBRANCH   1   3
BRANCH   1  16
ATOM     16  N   LIG    1       -6.166   1.027   0.509  0.00  0.00    -0.520 NA
ATOM     17  C   LIG    1       -6.216   1.789   1.764  0.00  0.00    +0.180 C 
ATOM     18  C   LIG    1       -7.006   3.083   1.540  0.00  0.00    +0.290 C 
ATOM     19  N   LIG    1       -8.317   2.737   0.970  0.00  0.00    -0.610 N 
ATOM     20  C   LIG    1       -8.354   1.861  -0.210  0.00  0.00    +0.300 C 
ATOM     21  C   LIG    1       -9.455   3.211   1.515  0.00  0.00    +0.560 C 
ATOM     22  O   LIG    1      -10.526   2.971   0.991  0.00  0.00    -0.530 OA
ATOM     23  C   LIG    1       -7.510   0.615   0.082  0.00  0.00    +0.170 C 
BRANCH  21  24
ATOM     24  C   LIG    1       -9.402   4.021   2.751  0.00  0.00    -0.130 A 
ATOM     25  C   LIG    1      -10.241   3.718   3.825  0.00  0.00    +0.060 A 
ATOM     26  C   LIG    1      -10.182   4.474   4.977  0.00  0.00    +0.010 A 
ATOM     27  C   LIG    1       -9.302   5.538   5.065  0.00  0.00    +0.030 A 
ATOM     28  C   LIG    1       -8.472   5.847   4.003  0.00  0.00    +0.010 A 
ATOM     29  C   LIG    1       -8.516   5.095   2.847  0.00  0.00    +0.040 A 
ENDBRANCH  21  24
ENDBRANCH   1  16
TORSDOF 5
