REMARK  Name = ZINCpe000000ZmYo.0
REMARK                            x       y       z     vdW  Elec       q    Type
REMARK                         _______ _______ _______ _____ _____    ______ ____
ROOT
ATOM      1  O   LIG    1        1.323   9.928  -1.255  0.00  0.00    -0.500 OA
ATOM      2  C   LIG    1        1.375   9.330  -2.310  0.00  0.00    +0.510 C 
ATOM      3  N   LIG    1        1.301  10.007  -3.473  0.00  0.00    -0.640 N 
ATOM      4  H   LIG    1        1.410   9.538  -4.315  0.00  0.00    +0.430 HD
ENDROOT
BRANCH   3   5
ATOM      5  C   LIG    1        1.067  11.386  -3.466  0.00  0.00    +0.070 A 
ATOM      6  C   LIG    1        1.595  12.186  -2.454  0.00  0.00    +0.110 A 
ATOM      7  C   LIG    1        1.338  13.545  -2.487  0.00  0.00    +0.020 A 
ATOM      8  C   LIG    1        0.567  14.063  -3.520  0.00  0.00    +0.360 A 
ATOM      9  N   LIG    1        0.081  13.274  -4.465  0.00  0.00    -0.490 NA
ATOM     10  C   LIG    1        0.310  11.976  -4.469  0.00  0.00    +0.290 A 
BRANCH   8  11
ATOM     11  N   LIG    1        0.301  15.436  -3.563  0.00  0.00    -0.330 N 
ATOM     12  C   LIG    1       -0.432  16.080  -4.507  0.00  0.00    +0.260 A 
ATOM     13  C   LIG    1       -0.448  17.395  -4.186  0.00  0.00    -0.100 A 
ATOM     14  C   LIG    1        0.296  17.562  -3.013  0.00  0.00    +0.270 A 
ATOM     15  N   LIG    1        0.740  16.391  -2.636  0.00  0.00    -0.290 NA
ENDBRANCH   8  11
ENDBRANCH   3   5
BRANCH   2  16
ATOM     16  C   LIG    1        1.520   7.844  -2.319  0.00  0.00    +0.510 C 
ATOM     17  N   LIG    1        1.594   7.167  -1.156  0.00  0.00    -0.690 N 
ATOM     18  H   LIG    1        1.553   7.645  -0.313  0.00  0.00    +0.410 HD
ATOM     19  O   LIG    1        1.572   7.246  -3.374  0.00  0.00    -0.510 OA
BRANCH  17  20
ATOM     20  C   LIG    1        1.737   5.709  -1.165  0.00  0.00    +0.240 C 
ATOM     21  C   LIG    1        2.403   5.253   0.135  0.00  0.00    +0.020 C 
ATOM     22  C   LIG    1        2.552   3.731   0.125  0.00  0.00    +0.030 C 
ATOM     23  C   LIG    1        1.170   3.084   0.006  0.00  0.00    -0.010 C 
ATOM     24  C   LIG    1        0.505   3.539  -1.294  0.00  0.00    +0.030 C 
ATOM     25  C   LIG    1        0.356   5.062  -1.285  0.00  0.00    +0.010 C 
BRANCH  23  26
ATOM     26  C   LIG    1        1.319   1.561  -0.004  0.00  0.00    +0.180 C 
BRANCH  26  27
ATOM     27  O   LIG    1        0.025   0.956   0.002  0.00  0.00    -0.570 OA
ATOM     28  H   LIG    1        0.043  -0.011  -0.003  0.00  0.00    +0.380 HD
ENDBRANCH  26  27
ENDBRANCH  23  26
ENDBRANCH  17  20
ENDBRANCH   2  16
TORSDOF 6
