REMARK  Name = ZINCpe000000SAIY.0
REMARK                            x       y       z     vdW  Elec       q    Type
REMARK                         _______ _______ _______ _____ _____    ______ ____
ROOT
ATOM      1  C   LIG    1       -8.160  -0.922   6.167  0.00  0.00    +0.510 C 
ATOM      2  N   LIG    1       -7.291  -0.346   5.314  0.00  0.00    -0.720 N 
ATOM      3  H   LIG    1       -7.496  -0.303   4.367  0.00  0.00    +0.410 HD
ATOM      4  O   LIG    1       -7.903  -0.975   7.351  0.00  0.00    -0.530 OA
ENDROOT
BRANCH   1   5
ATOM      5  C   LIG    1       -9.452  -1.501   5.650  0.00  0.00    +0.300 C 
BRANCH   5   7
ATOM      6  C   LIG    1      -11.413  -2.641   6.539  0.00  0.00    +0.510 C 
ATOM      7  N   LIG    1      -10.216  -2.065   6.766  0.00  0.00    -0.710 N 
ATOM      8  H   LIG    1       -9.860  -2.023   7.667  0.00  0.00    +0.420 HD
ATOM      9  O   LIG    1      -11.858  -2.693   5.412  0.00  0.00    -0.540 OA
BRANCH   6  10
ATOM     10  C   LIG    1      -12.199  -3.221   7.687  0.00  0.00    +0.300 C 
BRANCH  10  13
ATOM     11  C   LIG    1      -15.615  -4.940   7.520  0.00  0.00    +0.110 C 
ATOM     12  C   LIG    1      -14.324  -4.361   8.037  0.00  0.00    +0.510 C 
ATOM     13  N   LIG    1      -13.454  -3.784   7.184  0.00  0.00    -0.720 N 
ATOM     14  H   LIG    1      -13.660  -3.742   6.237  0.00  0.00    +0.410 HD
ATOM     15  O   LIG    1      -14.067  -4.414   9.222  0.00  0.00    -0.550 OA
ENDBRANCH  10  13
ENDBRANCH   6  10
ENDBRANCH   5   7
ENDBRANCH   1   5
BRANCH   2  16
ATOM     16  C   LIG    1       -6.035   0.217   5.817  0.00  0.00    +0.330 C 
BRANCH  16  17
ATOM     17  C   LIG    1       -5.249   0.797   4.669  0.00  0.00    -0.160 A 
ATOM     18  C   LIG    1       -5.429   2.120   4.308  0.00  0.00    +0.070 A 
ATOM     19  C   LIG    1       -4.710   2.654   3.256  0.00  0.00    -0.030 A 
ATOM     20  C   LIG    1       -3.806   1.861   2.562  0.00  0.00    +0.140 A 
ATOM     21  C   LIG    1       -3.632   0.533   2.923  0.00  0.00    -0.080 A 
ATOM     22  C   LIG    1       -4.349   0.006   3.979  0.00  0.00    +0.070 A 
BRANCH  20  23
ATOM     23  O   LIG    1       -3.098   2.384   1.527  0.00  0.00    -0.310 OA
BRANCH  23  24
ATOM     24  C   LIG    1       -2.276   1.483   0.783  0.00  0.00    +0.160 C 
ATOM     25  C   LIG    1       -0.860   1.390   1.411  0.00  0.00    +0.000 C 
ATOM     26  C   LIG    1        0.009   0.919   0.218  0.00  0.00    +0.020 C 
ATOM     27  C   LIG    1       -0.573   1.670  -0.997  0.00  0.00    +0.020 C 
ATOM     28  C   LIG    1       -2.026   2.029  -0.638  0.00  0.00    +0.030 C 
ENDBRANCH  23  24
ENDBRANCH  20  23
ENDBRANCH  16  17
ENDBRANCH   2  16
TORSDOF 8
