REMARK  Name = ZINCpe000000TI84.0
REMARK                            x       y       z     vdW  Elec       q    Type
REMARK                         _______ _______ _______ _____ _____    ______ ____
ROOT
ATOM      1  C   LIG    1       -3.954  -1.019   2.624  0.00  0.00    +0.280 C 
ENDROOT
BRANCH   1   2
ATOM      2  N   LIG    1       -3.130  -1.308   1.447  0.00  0.00    -0.560 N 
ATOM      3  C   LIG    1       -2.079  -0.518   1.150  0.00  0.00    +0.510 C 
ATOM      4  O   LIG    1       -1.463  -0.690   0.119  0.00  0.00    -0.480 OA
BRANCH   2   5
ATOM      5  C   LIG    1       -3.449  -2.455   0.593  0.00  0.00    +0.200 C 
ATOM      6  C   LIG    1       -2.365  -2.939  -0.372  0.00  0.00    +0.030 C 
ATOM      7  C   LIG    1       -3.593  -2.200  -0.908  0.00  0.00    +0.030 C 
ENDBRANCH   2   5
BRANCH   3   8
ATOM      8  C   LIG    1       -1.670   0.580   2.097  0.00  0.00    +0.370 C 
BRANCH   8   9
ATOM      9  N   LIG    1       -0.441   1.212   1.612  0.00  0.00    -0.300 N 
ATOM     10  C   LIG    1       -0.258   2.523   1.368  0.00  0.00    +0.400 A 
ATOM     11  N   LIG    1        0.977   2.659   0.950  0.00  0.00    -0.300 NA
ATOM     12  N   LIG    1        1.524   1.492   0.938  0.00  0.00    -0.070 NA
ATOM     13  N   LIG    1        0.670   0.615   1.337  0.00  0.00    -0.060 NA
ENDBRANCH   8   9
ENDBRANCH   3   8
ENDBRANCH   1   2
BRANCH   1  14
ATOM     14  C   LIG    1       -5.376  -0.769   2.192  0.00  0.00    +0.450 C 
ATOM     15  O   LIG    1       -5.671  -0.825   1.022  0.00  0.00    -0.480 OA
BRANCH  14  16
ATOM     16  O   LIG    1       -6.314  -0.483   3.108  0.00  0.00    -0.350 OA
BRANCH  16  18
ATOM     17  C   LIG    1       -8.586   0.056   3.801  0.00  0.00    +0.070 C 
ATOM     18  C   LIG    1       -7.662  -0.253   2.621  0.00  0.00    +0.200 C 
ENDBRANCH  16  18
ENDBRANCH  14  16
ENDBRANCH   1  14
BRANCH   1  19
ATOM     19  C   LIG    1       -3.913  -2.213   3.579  0.00  0.00    +0.110 C 
BRANCH  19  20
ATOM     20  C   LIG    1       -2.512  -2.388   4.106  0.00  0.00    -0.100 A 
ATOM     21  C   LIG    1       -1.617  -3.199   3.434  0.00  0.00    +0.020 A 
ATOM     22  C   LIG    1       -0.330  -3.355   3.914  0.00  0.00    +0.010 A 
ATOM     23  C   LIG    1        0.058  -2.710   5.074  0.00  0.00    +0.010 A 
ATOM     24  C   LIG    1       -0.839  -1.903   5.749  0.00  0.00    +0.000 A 
ATOM     25  C   LIG    1       -2.124  -1.743   5.266  0.00  0.00    +0.010 A 
ENDBRANCH  19  20
ENDBRANCH   1  19
TORSDOF 9
