REMARK  Name = ZINCpk00000e948H.0
REMARK                            x       y       z     vdW  Elec       q    Type
REMARK                         _______ _______ _______ _____ _____    ______ ____
ROOT
ATOM      1  C   LIG    1       -2.516  -2.502  -3.977  0.00  0.00    -0.070 A 
ATOM      2  C   LIG    1       -3.125  -1.258  -4.148  0.00  0.00    +0.080 A 
ATOM      3  C   LIG    1       -2.460  -0.110  -3.772  0.00  0.00    +0.120 A 
ATOM      4  C   LIG    1       -1.191  -0.189  -3.225  0.00  0.00    -0.650 A 
ATOM      5  C   LIG    1       -0.579  -1.419  -3.058  0.00  0.00    +0.120 A 
ATOM      6  C   LIG    1       -1.236  -2.575  -3.425  0.00  0.00    +0.070 A 
ENDROOT
BRANCH   4   7
ATOM      7  S   LIG    1       -0.348   1.282  -2.747  0.00  0.00    +2.710 S 
ATOM      8  O   LIG    1        1.039   0.973  -2.762  0.00  0.00    -0.940 OA
ATOM      9  O   LIG    1       -0.917   2.337  -3.511  0.00  0.00    -0.940 OA
BRANCH   7  10
ATOM     10  N   LIG    1       -0.743   1.582  -1.167  0.00  0.00    -1.010 NA
ATOM     11  C   LIG    1       -0.013   1.086   0.008  0.00  0.00    +0.270 C 
ATOM     12  C   LIG    1       -0.756   1.594   1.262  0.00  0.00    +0.030 C 
ATOM     13  C   LIG    1       -2.187   1.874   0.722  0.00  0.00    +0.040 C 
ATOM     14  C   LIG    1       -1.886   2.391  -0.707  0.00  0.00    +0.280 C 
ENDBRANCH   7  10
ENDBRANCH   4   7
BRANCH   1  15
ATOM     15  C   LIG    1       -3.223  -3.736  -4.378  0.00  0.00    +0.510 C 
ATOM     16  O   LIG    1       -4.336  -3.669  -4.858  0.00  0.00    -0.490 OA
BRANCH  15  17
ATOM     17  O   LIG    1       -2.632  -4.935  -4.211  0.00  0.00    -0.320 OA
BRANCH  17  18
ATOM     18  C   LIG    1       -3.385  -6.104  -4.628  0.00  0.00    +0.270 C 
BRANCH  18  21
ATOM     19  N   LIG    1       -3.072  -8.557  -4.677  0.00  0.00    -0.730 N 
ATOM     20  H   LIG    1       -3.957  -8.631  -5.068  0.00  0.00    +0.400 HD
ATOM     21  C   LIG    1       -2.571  -7.345  -4.367  0.00  0.00    +0.510 C 
ATOM     22  O   LIG    1       -1.465  -7.253  -3.878  0.00  0.00    -0.510 OA
BRANCH  19  23
ATOM     23  C   LIG    1       -2.280  -9.764  -4.423  0.00  0.00    +0.260 C 
BRANCH  23  25
ATOM     24  C   LIG    1       -2.201 -12.244  -4.714  0.00  0.00    +0.030 C 
ATOM     25  C   LIG    1       -3.074 -10.996  -4.862  0.00  0.00    -0.030 C 
ATOM     26  C   LIG    1       -4.321 -11.138  -3.986  0.00  0.00    +0.020 C 
ENDBRANCH  23  25
ENDBRANCH  19  23
ENDBRANCH  18  21
ENDBRANCH  17  18
ENDBRANCH  15  17
ENDBRANCH   1  15
TORSDOF 8
