REMARK  Name = ZINCrH000004np8m.0
REMARK                            x       y       z     vdW  Elec       q    Type
REMARK                         _______ _______ _______ _____ _____    ______ ____
ROOT
ATOM      1  C   LIG    1       -0.017   5.896  -1.350  0.00  0.00    +0.520 C 
ATOM      2  N   LIG    1       -0.069   7.217  -1.614  0.00  0.00    -0.600 N 
ATOM      3  C   LIG    1       -0.181   8.161  -0.485  0.00  0.00    +0.260 C 
ATOM      4  C   LIG    1       -1.177   9.295  -0.769  0.00  0.00    +0.020 C 
ATOM      5  C   LIG    1       -2.393   8.748  -1.474  0.00  0.00    +0.010 C 
ATOM      6  C   LIG    1       -2.190   8.846  -2.983  0.00  0.00    +0.000 C 
ATOM      7  C   LIG    1       -1.454   7.715  -3.570  0.00  0.00    +0.010 C 
ATOM      8  C   LIG    1       -0.018   7.651  -2.993  0.00  0.00    +0.250 C 
ATOM      9  O   LIG    1       -0.041   5.095  -2.260  0.00  0.00    -0.520 OA
ENDROOT
BRANCH   8  10
ATOM     10  C   LIG    1        0.815   6.659  -3.808  0.00  0.00    +0.000 C 
ATOM     11  C   LIG    1        2.179   6.460  -3.139  0.00  0.00    +0.030 C 
ATOM     12  C   LIG    1        3.058   5.581  -4.029  0.00  0.00    +0.020 C 
ATOM     13  C   LIG    1        3.328   6.293  -5.356  0.00  0.00    +0.020 C 
ATOM     14  C   LIG    1        2.007   6.486  -6.109  0.00  0.00    +0.020 C 
ATOM     15  C   LIG    1        1.033   7.205  -5.202  0.00  0.00    +0.360 C 
ATOM     16  O   LIG    1        0.448   8.193  -5.579  0.00  0.00    -0.460 OA
ENDBRANCH   8  10
BRANCH   1  17
ATOM     17  C   LIG    1        0.071   5.416   0.076  0.00  0.00    +0.120 C 
BRANCH  17  23
ATOM     18  C   LIG    1        1.335   3.251   0.044  0.00  0.00    +0.180 A 
ATOM     19  C   LIG    1        1.373   1.864   0.064  0.00  0.00    -0.110 A 
ATOM     20  C   LIG    1        0.199   1.140   0.136  0.00  0.00    +0.090 A 
ATOM     21  C   LIG    1       -1.017   1.794   0.183  0.00  0.00    -0.110 A 
ATOM     22  C   LIG    1       -1.061   3.181   0.169  0.00  0.00    +0.180 A 
ATOM     23  C   LIG    1        0.116   3.910   0.097  0.00  0.00    -0.130 A 
BRANCH  18  25
ATOM     24  C   LIG    1        3.709   3.218  -0.079  0.00  0.00    +0.250 C 
ATOM     25  O   LIG    1        2.490   3.962  -0.027  0.00  0.00    -0.310 OA
ENDBRANCH  18  25
BRANCH  22  26
ATOM     26  O   LIG    1       -2.257   3.824   0.221  0.00  0.00    -0.310 OA
ATOM     27  C   LIG    1       -3.429   3.010   0.294  0.00  0.00    +0.250 C 
ENDBRANCH  22  26
ENDBRANCH  17  23
ENDBRANCH   1  17
TORSDOF 5
