REMARK  Name = ZINCrD0000073upb.0
REMARK                            x       y       z     vdW  Elec       q    Type
REMARK                         _______ _______ _______ _____ _____    ______ ____
ROOT
ATOM      1  N   LIG    1       -0.039   0.901   0.021  0.00  0.00    -0.660 N 
ATOM      2  H   LIG    1        0.111  -0.057   0.016  0.00  0.00    +0.430 HD
ATOM      3  C   LIG    1       -1.296   1.386   0.056  0.00  0.00    +0.520 C 
ATOM      4  O   LIG    1       -1.486   2.582  -0.019  0.00  0.00    -0.490 OA
ENDROOT
BRANCH   1   8
ATOM      5  C   LIG    1        3.205   3.519  -0.084  0.00  0.00    +0.120 A 
ATOM      6  C   LIG    1        2.029   3.846  -0.743  0.00  0.00    +0.020 A 
ATOM      7  C   LIG    1        0.956   2.977  -0.713  0.00  0.00    +0.090 A 
ATOM      8  C   LIG    1        1.051   1.781  -0.014  0.00  0.00    +0.180 A 
ATOM      9  C   LIG    1        2.229   1.454   0.645  0.00  0.00    -0.030 A 
ATOM     10  C   LIG    1        3.303   2.322   0.610  0.00  0.00    +0.100 A 
BRANCH   9  11
ATOM     11  N   LIG    1        2.333   0.177   1.386  0.00  0.00    +0.040 N 
ATOM     12  O   LIG    1        1.420  -0.627   1.343  0.00  0.00    -0.180 OA
ATOM     13  O   LIG    1        3.332  -0.069   2.037  0.00  0.00    -0.130 OA
ENDBRANCH   9  11
BRANCH   5  15
ATOM     14  C   LIG    1        4.092   5.588  -0.851  0.00  0.00    +0.250 C 
ATOM     15  O   LIG    1        4.263   4.373  -0.118  0.00  0.00    -0.310 OA
ENDBRANCH   5  15
ENDBRANCH   1   8
BRANCH   3  16
ATOM     16  C   LIG    1       -2.464   0.444   0.188  0.00  0.00    +0.210 C 
ATOM     17  C   LIG    1       -2.474  -0.525  -0.996  0.00  0.00    +0.080 C 
BRANCH  16  18
ATOM     18  O   LIG    1       -3.700   1.204   0.202  0.00  0.00    -0.330 OA
BRANCH  18  19
ATOM     19  C   LIG    1       -4.731   0.685   0.900  0.00  0.00    +0.550 C 
ATOM     20  O   LIG    1       -4.599  -0.375   1.481  0.00  0.00    -0.490 OA
BRANCH  19  21
ATOM     21  C   LIG    1       -6.009   1.397   0.958  0.00  0.00    -0.270 A 
ATOM     22  C   LIG    1       -7.116   0.977   1.626  0.00  0.00    +0.130 A 
ATOM     23  C   LIG    1       -8.202   1.840   1.521  0.00  0.00    -0.150 A 
ATOM     24  C   LIG    1       -7.961   2.935   0.779  0.00  0.00    -0.220 A 
ATOM     25  C   LIG    1       -9.200   3.819   0.719  0.00  0.00    +0.120 C 
ATOM     26  C   LIG    1      -10.362   2.903   1.153  0.00  0.00    +0.040 C 
ATOM     27  C   LIG    1       -9.638   1.875   2.043  0.00  0.00    +0.100 C 
ATOM     28  S   LIG    1       -6.353   2.934   0.183  0.00  0.00    +0.280 S 
ENDBRANCH  19  21
ENDBRANCH  18  19
ENDBRANCH  16  18
ENDBRANCH   3  16
TORSDOF 7
