REMARK  Name = ZINCvU0000000Az0.0
REMARK                            x       y       z     vdW  Elec       q    Type
REMARK                         _______ _______ _______ _____ _____    ______ ____
ROOT
ATOM      1  C   LIG    1        8.069  -2.590  -3.064  0.00  0.00    +0.660 C 
ATOM      2  N   LIG    1        8.053  -3.454  -4.099  0.00  0.00    -0.700 N 
ATOM      3  H   LIG    1        7.236  -3.926  -4.325  0.00  0.00    +0.410 HD
ATOM      4  O   LIG    1        9.092  -1.999  -2.782  0.00  0.00    -0.560 OA
ENDROOT
BRANCH   1   5
ATOM      5  O   LIG    1        6.950  -2.383  -2.344  0.00  0.00    -0.370 OA
BRANCH   5   6
ATOM      6  C   LIG    1        7.041  -1.440  -1.244  0.00  0.00    +0.410 C 
BRANCH   6  10
ATOM      7  C   LIG    1        3.694  -0.694  -0.037  0.00  0.00    +0.030 A 
ATOM      8  C   LIG    1        4.068  -1.702   0.794  0.00  0.00    +0.160 A 
ATOM      9  N   LIG    1        5.307  -2.077   0.441  0.00  0.00    -0.450 NA
ATOM     10  C   LIG    1        5.703  -1.338  -0.557  0.00  0.00    +0.170 A 
ATOM     11  O   LIG    1        4.729  -0.474  -0.876  0.00  0.00    -0.180 OA
BRANCH   7  17
ATOM     12  C   LIG    1        2.381   1.427  -0.013  0.00  0.00    +0.160 A 
ATOM     13  C   LIG    1        1.167   2.094   0.002  0.00  0.00    -0.070 A 
ATOM     14  C   LIG    1       -0.017   1.379   0.010  0.00  0.00    +0.070 A 
ATOM     15  C   LIG    1        0.002  -0.004   0.002  0.00  0.00    -0.030 A 
ATOM     16  C   LIG    1        1.203  -0.683  -0.013  0.00  0.00    +0.090 A 
ATOM     17  C   LIG    1        2.404   0.027  -0.021  0.00  0.00    -0.060 A 
BRANCH  12  19
ATOM     18  C   LIG    1        3.442   3.554  -0.011  0.00  0.00    +0.240 C 
ATOM     19  O   LIG    1        3.544   2.129  -0.020  0.00  0.00    -0.310 OA
ENDBRANCH  12  19
ENDBRANCH   7  17
ENDBRANCH   6  10
ENDBRANCH   5   6
ENDBRANCH   1   5
BRANCH   2  20
ATOM     20  C   LIG    1        9.269  -3.679  -4.884  0.00  0.00    +0.320 C 
BRANCH  20  21
ATOM     21  C   LIG    1       10.115  -4.729  -4.209  0.00  0.00    -0.160 A 
ATOM     22  C   LIG    1       11.493  -4.594  -4.159  0.00  0.00    +0.080 A 
ATOM     23  C   LIG    1       12.231  -5.583  -3.527  0.00  0.00    -0.030 A 
ATOM     24  C   LIG    1       11.572  -6.664  -2.973  0.00  0.00    +0.260 A 
ATOM     25  N   LIG    1       10.258  -6.760  -3.039  0.00  0.00    -0.480 NA
ATOM     26  C   LIG    1        9.525  -5.835  -3.627  0.00  0.00    +0.260 A 
ENDBRANCH  20  21
BRANCH  20  27
ATOM     27  C   LIG    1        8.890  -4.155  -6.288  0.00  0.00    +0.050 C 
BRANCH  27  28
ATOM     28  C   LIG    1        8.138  -3.041  -7.018  0.00  0.00    -0.010 C 
ATOM     29  C   LIG    1        6.764  -2.808  -6.356  0.00  0.00    +0.010 C 
ATOM     30  C   LIG    1        5.818  -2.501  -7.543  0.00  0.00    +0.010 C 
ATOM     31  C   LIG    1        6.327  -3.465  -8.644  0.00  0.00    +0.000 C 
ATOM     32  C   LIG    1        7.860  -3.458  -8.473  0.00  0.00    +0.010 C 
ENDBRANCH  27  28
ENDBRANCH  20  27
ENDBRANCH   2  20
TORSDOF 9
