REMARK  Name = ZINC650000002J8R.0
REMARK                            x       y       z     vdW  Elec       q    Type
REMARK                         _______ _______ _______ _____ _____    ______ ____
ROOT
ATOM      1  C   LIG    1       -0.753   1.593  -1.232  0.00  0.00    +0.240 C 
ENDROOT
BRANCH   1   2
ATOM      2  O   LIG    1       -2.093   1.098  -1.221  0.00  0.00    -0.540 OA
ATOM      3  H   LIG    1       -2.157   0.133  -1.226  0.00  0.00    +0.370 HD
ENDBRANCH   1   2
BRANCH   1   4
ATOM      4  C   LIG    1       -0.037   1.099  -2.490  0.00  0.00    +0.160 C 
BRANCH   4   5
ATOM      5  O   LIG    1       -0.658   1.667  -3.645  0.00  0.00    -0.560 OA
ATOM      6  H   LIG    1       -0.254   1.397  -4.482  0.00  0.00    +0.380 HD
ENDBRANCH   4   5
ENDBRANCH   1   4
BRANCH   1   7
ATOM      7  C   LIG    1       -0.013   1.086   0.008  0.00  0.00    +0.080 C 
BRANCH   7   8
ATOM      8  S   LIG    1       -0.862   1.671   1.500  0.00  0.00    -0.210 S 
ATOM      9  H   LIG    1       -0.114   1.159   2.494  0.00  0.00    +0.080 HD
ENDBRANCH   7   8
ENDBRANCH   1   7
TORSDOF 5
