REMARK  Name = ZINCrD000000CUgh.0
REMARK                            x       y       z     vdW  Elec       q    Type
REMARK                         _______ _______ _______ _____ _____    ______ ____
ROOT
ATOM      1  C   LIG    1       -2.040   0.870   1.412  0.00  0.00    +0.540 C 
ATOM      2  N   LIG    1       -2.094  -0.477   1.406  0.00  0.00    -0.600 N 
ATOM      3  C   LIG    1       -0.941  -1.425   1.378  0.00  0.00    +0.270 C 
ATOM      4  C   LIG    1       -1.543  -2.853   1.196  0.00  0.00    +0.050 C 
ATOM      5  C   LIG    1       -2.885  -2.530   0.540  0.00  0.00    -0.020 C 
ATOM      6  C   LIG    1       -4.092  -3.419   0.824  0.00  0.00    +0.030 C 
ATOM      7  C   LIG    1       -5.281  -2.413   0.734  0.00  0.00    +0.020 C 
ATOM      8  C   LIG    1       -4.681  -1.012   1.063  0.00  0.00    +0.040 C 
ATOM      9  C   LIG    1       -3.258  -1.286   1.432  0.00  0.00    +0.170 C 
ATOM     10  O   LIG    1       -3.059   1.517   1.531  0.00  0.00    -0.510 OA
ENDROOT
BRANCH   1  16
ATOM     11  O   LIG    1       -2.267   4.655  -0.840  0.00  0.00    -0.530 OA
ATOM     12  C   LIG    1       -1.634   3.808  -0.241  0.00  0.00    +0.570 C 
ATOM     13  N   LIG    1       -1.264   2.671  -0.861  0.00  0.00    -0.730 N 
ATOM     14  H   LIG    1       -1.595   2.484  -1.753  0.00  0.00    +0.410 HD
ATOM     15  C   LIG    1       -0.371   1.714  -0.210  0.00  0.00    +0.310 C 
ATOM     16  C   LIG    1       -0.714   1.571   1.271  0.00  0.00    +0.030 C 
ATOM     17  C   LIG    1       -0.794   2.929   1.917  0.00  0.00    -0.040 A 
ATOM     18  C   LIG    1       -0.429   3.105   3.234  0.00  0.00    +0.010 A 
ATOM     19  C   LIG    1       -0.550   4.352   3.825  0.00  0.00    +0.040 A 
ATOM     20  C   LIG    1       -1.039   5.425   3.101  0.00  0.00    +0.010 A 
ATOM     21  C   LIG    1       -1.401   5.262   1.778  0.00  0.00    +0.080 A 
ATOM     22  C   LIG    1       -1.265   4.015   1.175  0.00  0.00    -0.120 A 
ENDBRANCH   1  16
BRANCH   4  23
ATOM     23  C   LIG    1       -0.683  -3.692   0.286  0.00  0.00    -0.080 A 
ATOM     24  C   LIG    1       -0.432  -3.272  -1.007  0.00  0.00    +0.010 A 
ATOM     25  C   LIG    1        0.360  -4.040  -1.841  0.00  0.00    +0.000 A 
ATOM     26  C   LIG    1        0.893  -5.230  -1.385  0.00  0.00    +0.000 A 
ATOM     27  C   LIG    1        0.638  -5.652  -0.093  0.00  0.00    +0.000 A 
ATOM     28  C   LIG    1       -0.151  -4.883   0.742  0.00  0.00    +0.010 A 
ENDBRANCH   4  23
TORSDOF 2
