REMARK  Name = ZINCnE000001PxNS.0
REMARK                            x       y       z     vdW  Elec       q    Type
REMARK                         _______ _______ _______ _____ _____    ______ ____
ROOT
ATOM      1  C   LIG    1       -2.741   2.668   2.436  0.00  0.00    +0.090 C 
ENDROOT
BRANCH   1   3
ATOM      2  N   LIG    1       -0.704   1.975   1.216  0.00  0.00    -0.610 N 
ATOM      3  C   LIG    1       -2.036   2.182   1.196  0.00  0.00    +0.540 C 
ATOM      4  O   LIG    1       -2.666   1.977   0.181  0.00  0.00    -0.520 OA
ATOM      5  C   LIG    1        0.058   2.223   2.442  0.00  0.00    +0.280 C 
BRANCH   2   6
ATOM      6  C   LIG    1       -0.018   1.503   0.010  0.00  0.00    +0.410 C 
BRANCH   6  11
ATOM      7  C   LIG    1        1.473  -3.252   0.789  0.00  0.00    +0.170 C 
ATOM      8  C   LIG    1        0.650  -2.072   0.341  0.00  0.00    -0.010 A 
ATOM      9  C   LIG    1       -0.519  -2.134  -0.321  0.00  0.00    -0.060 A 
ATOM     10  C   LIG    1       -0.937  -0.801  -0.539  0.00  0.00    -0.030 A 
ATOM     11  C   LIG    1        0.002  -0.004   0.002  0.00  0.00    -0.040 A 
ATOM     12  O   LIG    1        0.964  -0.779   0.528  0.00  0.00    -0.170 OA
ENDBRANCH   6  11
ENDBRANCH   2   6
ENDBRANCH   1   3
BRANCH   1  13
ATOM     13  S   LIG    1       -4.513   2.847   2.092  0.00  0.00    +0.030 S 
BRANCH  13  14
ATOM     14  C   LIG    1       -5.160   3.414   3.631  0.00  0.00    -0.080 A 
ATOM     15  N   LIG    1       -4.497   3.631   4.722  0.00  0.00    -0.250 NA
ATOM     16  N   LIG    1       -5.179   4.080   5.831  0.00  0.00    -0.500 NA
ATOM     17  C   LIG    1       -6.525   4.250   5.684  0.00  0.00    +0.340 A 
ATOM     18  N   LIG    1       -7.385   4.660   6.586  0.00  0.00    -0.630 NA
ATOM     19  S   LIG    1       -6.851   3.795   4.001  0.00  0.00    -0.110 S 
BRANCH  18  20
ATOM     20  C   LIG    1       -6.926   4.993   7.937  0.00  0.00    +0.140 C 
ATOM     21  C   LIG    1       -6.280   3.762   8.575  0.00  0.00    +0.010 C 
ATOM     22  C   LIG    1       -8.120   5.440   8.784  0.00  0.00    +0.020 C 
ATOM     23  C   LIG    1       -5.901   6.127   7.862  0.00  0.00    +0.010 C 
ENDBRANCH  18  20
ENDBRANCH  13  14
ENDBRANCH   1  13
TORSDOF 6
