REMARK  Name = ZINCqH00000059yy.0
REMARK                            x       y       z     vdW  Elec       q    Type
REMARK                         _______ _______ _______ _____ _____    ______ ____
ROOT
ATOM      1  C   LIG    1        2.273   1.051   1.111  0.00  0.00    +0.300 C 
ATOM      2  N   LIG    1        1.483   1.391  -0.075  0.00  0.00    -0.590 N 
ATOM      3  C   LIG    1        2.073   1.987  -1.129  0.00  0.00    +0.580 C 
ATOM      4  O   LIG    1        1.401   2.359  -2.071  0.00  0.00    -0.510 OA
ENDROOT
BRANCH   3   5
ATOM      5  C   LIG    1        3.538   2.187  -1.141  0.00  0.00    -0.050 A 
ATOM      6  C   LIG    1        4.402   1.190  -0.709  0.00  0.00    +0.040 A 
ATOM      7  C   LIG    1        5.779   1.414  -0.734  0.00  0.00    +0.200 A 
ATOM      8  N   LIG    1        6.288   2.545  -1.156  0.00  0.00    -0.450 NA
ATOM      9  C   LIG    1        5.517   3.548  -1.585  0.00  0.00    +0.140 A 
ATOM     10  C   LIG    1        6.083   4.754  -2.035  0.00  0.00    +0.050 A 
ATOM     11  C   LIG    1        5.275   5.755  -2.482  0.00  0.00    +0.050 A 
ATOM     12  C   LIG    1        3.890   5.610  -2.489  0.00  0.00    +0.040 A 
ATOM     13  C   LIG    1        3.306   4.457  -2.056  0.00  0.00    +0.050 A 
ATOM     14 CL   LIG    1        6.847   0.158  -0.191  0.00  0.00    -0.010 Cl
ATOM     15  C   LIG    1        4.108   3.403  -1.599  0.00  0.00    -0.070 A 
ENDBRANCH   3   5
BRANCH   2  16
ATOM     16  C   LIG    1        0.051   1.082  -0.114  0.00  0.00    +0.340 C 
BRANCH  16  17
ATOM     17  C   LIG    1       -0.150  -0.298  -0.685  0.00  0.00    +0.500 C 
ATOM     18  N   LIG    1       -1.395  -0.797  -0.818  0.00  0.00    -0.670 N 
ATOM     19  H   LIG    1       -2.157  -0.295  -0.489  0.00  0.00    +0.410 HD
ATOM     20  O   LIG    1        0.808  -0.959  -1.026  0.00  0.00    -0.510 OA
BRANCH  18  21
ATOM     21  C   LIG    1       -1.588  -2.042  -1.430  0.00  0.00    +0.130 A 
ATOM     22  C   LIG    1       -2.724  -2.271  -2.196  0.00  0.00    +0.030 A 
ATOM     23  C   LIG    1       -2.910  -3.497  -2.803  0.00  0.00    +0.010 A 
ATOM     24  C   LIG    1       -1.971  -4.502  -2.639  0.00  0.00    +0.090 A 
ATOM     25  C   LIG    1       -0.841  -4.277  -1.871  0.00  0.00    +0.010 A 
ATOM     26  F   LIG    1       -2.158  -5.703  -3.229  0.00  0.00    -0.140 F 
ATOM     27  C   LIG    1       -0.648  -3.050  -1.267  0.00  0.00    +0.060 A 
ENDBRANCH  18  21
ENDBRANCH  16  17
ENDBRANCH   2  16
TORSDOF 4
