REMARK  Name = ZINCqH0000001f97.0
REMARK                            x       y       z     vdW  Elec       q    Type
REMARK                         _______ _______ _______ _____ _____    ______ ____
ROOT
ATOM      1  C   LIG    1        3.515   0.644  -0.023  0.00  0.00    +0.610 C 
ATOM      2  N   LIG    1        4.161  -0.539  -0.040  0.00  0.00    -0.660 N 
ATOM      3  H   LIG    1        3.660  -1.366   0.030  0.00  0.00    +0.420 HD
ATOM      4  O   LIG    1        4.148   1.683  -0.028  0.00  0.00    -0.510 OA
ENDROOT
BRANCH   2   5
ATOM      5  C   LIG    1        5.555  -0.573  -0.159  0.00  0.00    +0.150 A 
ATOM      6  C   LIG    1        6.325   0.417   0.429  0.00  0.00    +0.120 A 
ATOM      7  C   LIG    1        7.716   0.375   0.312  0.00  0.00    -0.100 A 
ATOM      8  C   LIG    1        8.321  -0.659  -0.407  0.00  0.00    +0.090 A 
ATOM      9  C   LIG    1        7.545  -1.637  -0.994  0.00  0.00    +0.050 A 
ATOM     10  C   LIG    1        6.167  -1.599  -0.873  0.00  0.00    -0.030 A 
ATOM     11 CL   LIG    1        5.199  -2.834  -1.615  0.00  0.00    -0.050 Cl
BRANCH   7  12
ATOM     12  C   LIG    1        8.544   1.423   0.941  0.00  0.00    +0.510 C 
ATOM     13  O   LIG    1        8.016   2.321   1.566  0.00  0.00    -0.500 OA
BRANCH  12  14
ATOM     14  O   LIG    1        9.885   1.384   0.822  0.00  0.00    -0.350 OA
BRANCH  14  15
ATOM     15  C   LIG    1       10.636   2.447   1.466  0.00  0.00    +0.170 C 
ATOM     16  C   LIG    1       10.816   3.609   0.487  0.00  0.00    +0.040 C 
ATOM     17  C   LIG    1       12.008   1.919   1.888  0.00  0.00    +0.070 C 
ENDBRANCH  14  15
ENDBRANCH  12  14
ENDBRANCH   7  12
ENDBRANCH   2   5
BRANCH   1  20
ATOM     18  N   LIG    1       -0.016   1.399   0.042  0.00  0.00    -0.360 N 
ATOM     19  C   LIG    1        1.269   1.806   0.022  0.00  0.00    +0.310 A 
ATOM     20  C   LIG    1        2.041   0.679   0.003  0.00  0.00    -0.110 A 
ATOM     21  N   LIG    1        1.230  -0.392   0.010  0.00  0.00    -0.200 NA
ATOM     22  N   LIG    1        0.003  -0.003   0.033  0.00  0.00    -0.050 NA
BRANCH  18  23
ATOM     23  C   LIG    1       -1.203   2.257   0.062  0.00  0.00    +0.330 C 
BRANCH  23  24
ATOM     24  C   LIG    1       -2.116   1.891  -1.110  0.00  0.00    +0.020 C 
BRANCH  24  26
ATOM     25  C   LIG    1       -2.941   4.238  -1.337  0.00  0.00    +0.020 C 
ATOM     26  C   LIG    1       -3.356   2.787  -1.090  0.00  0.00    -0.010 C 
ATOM     27  C   LIG    1       -4.327   2.340  -2.185  0.00  0.00    +0.030 C 
ENDBRANCH  24  26
ENDBRANCH  23  24
ENDBRANCH  18  23
ENDBRANCH   1  20
TORSDOF 8
