REMARK  Name = ZINCpe00000R2rqJ.0
REMARK                            x       y       z     vdW  Elec       q    Type
REMARK                         _______ _______ _______ _____ _____    ______ ____
ROOT
ATOM      1  C   LIG    1       -2.531   4.192  -0.491  0.00  0.00    +0.230 C 
ATOM      2  C   LIG    1       -3.041   4.124   0.958  0.00  0.00    +0.020 C 
ATOM      3  C   LIG    1       -1.569   4.194   1.396  0.00  0.00    +0.020 C 
ATOM      4  C   LIG    1       -1.214   3.591   0.027  0.00  0.00    +0.230 C 
ENDROOT
BRANCH   1   6
ATOM      5  C   LIG    1       -3.265   6.029  -1.914  0.00  0.00    +0.520 C 
ATOM      6  N   LIG    1       -2.392   5.558  -1.001  0.00  0.00    -0.710 N 
ATOM      7  H   LIG    1       -1.672   6.124  -0.681  0.00  0.00    +0.400 HD
ATOM      8  O   LIG    1       -4.165   5.322  -2.313  0.00  0.00    -0.510 OA
BRANCH   5   9
ATOM      9  C   LIG    1       -3.122   7.435  -2.438  0.00  0.00    +0.180 C 
BRANCH   9  14
ATOM     10  C   LIG    1       -3.499   8.875  -5.527  0.00  0.00    +0.040 C 
ATOM     11  C   LIG    1       -3.977   9.003  -4.080  0.00  0.00    +0.100 C 
ATOM     12  C   LIG    1       -5.487   9.249  -3.954  0.00  0.00    +0.040 C 
ATOM     13  C   LIG    1       -5.368   8.295  -2.756  0.00  0.00    +0.160 C 
ATOM     14  N   LIG    1       -4.187   7.704  -3.413  0.00  0.00    -0.450 NA
ENDBRANCH   9  14
ENDBRANCH   5   9
ENDBRANCH   1   6
BRANCH   4  15
ATOM     15  N   LIG    1       -1.194   2.126   0.019  0.00  0.00    -0.700 N 
ATOM     16  H   LIG    1       -2.027   1.630   0.021  0.00  0.00    +0.420 HD
ATOM     17  C   LIG    1       -0.018   1.468   0.010  0.00  0.00    +0.580 C 
ATOM     18  O   LIG    1        1.027   2.091   0.004  0.00  0.00    -0.540 OA
BRANCH  17  19
ATOM     19  C   LIG    1        0.002  -0.004   0.002  0.00  0.00    -0.110 A 
ATOM     20  C   LIG    1        1.204  -0.701  -0.013  0.00  0.00    +0.150 A 
ATOM     21  C   LIG    1        1.185  -2.098  -0.021  0.00  0.00    +0.000 A 
ATOM     22  C   LIG    1        0.019  -2.780  -0.013  0.00  0.00    +0.260 A 
ATOM     23  N   LIG    1       -1.184  -2.143   0.002  0.00  0.00    -0.370 N 
ATOM     24  C   LIG    1       -2.476  -2.599   0.012  0.00  0.00    +0.100 A 
ATOM     25  C   LIG    1       -3.280  -1.515   0.025  0.00  0.00    +0.230 A 
ATOM     26  N   LIG    1       -2.517  -0.417   0.024  0.00  0.00    -0.500 NA
ATOM     27  C   LIG    1       -1.246  -0.773   0.016  0.00  0.00    +0.240 A 
ENDBRANCH  17  19
ENDBRANCH   4  15
TORSDOF 5
