REMARK  Name = ZINCvU0000000AwJ.0
REMARK                            x       y       z     vdW  Elec       q    Type
REMARK                         _______ _______ _______ _____ _____    ______ ____
ROOT
ATOM      1  C   LIG    1       -1.931   5.682   1.343  0.00  0.00    +0.000 C 
ATOM      2  C   LIG    1       -1.328   5.096   0.062  0.00  0.00    +0.040 C 
ATOM      3  C   LIG    1       -1.453   3.571   0.097  0.00  0.00    +0.180 C 
ATOM      4  N   LIG    1       -0.749   3.048   1.275  0.00  0.00    -0.530 NA
ATOM      5  C   LIG    1       -1.341   3.559   2.518  0.00  0.00    +0.170 C 
ATOM      6  C   LIG    1       -1.213   5.084   2.555  0.00  0.00    +0.040 C 
ENDROOT
BRANCH   4   7
ATOM      7  C   LIG    1       -0.729   1.579   1.267  0.00  0.00    +0.270 C 
ATOM      8  C   LIG    1       -0.013   1.086   0.008  0.00  0.00    +0.080 C 
BRANCH   7   9
ATOM      9  C   LIG    1        0.000   1.080   2.488  0.00  0.00    +0.190 A 
ATOM     10  N   LIG    1       -0.383   0.111   3.284  0.00  0.00    -0.480 NA
ATOM     11  C   LIG    1        0.573   0.018   4.226  0.00  0.00    +0.180 A 
ATOM     12  N   LIG    1        1.467   0.923   3.964  0.00  0.00    -0.380 NA
ATOM     13  O   LIG    1        1.157   1.544   2.969  0.00  0.00    +0.090 OA
BRANCH  11  14
ATOM     14  C   LIG    1        0.598  -0.954   5.378  0.00  0.00    +0.020 C 
ATOM     15  C   LIG    1        0.604  -2.385   4.837  0.00  0.00    +0.060 C 
ATOM     16  C   LIG    1       -0.641  -0.743   6.250  0.00  0.00    +0.060 C 
ATOM     17  C   LIG    1        1.857  -0.720   6.215  0.00  0.00    +0.050 C 
ENDBRANCH  11  14
ENDBRANCH   7   9
ENDBRANCH   4   7
BRANCH   1  18
ATOM     18  C   LIG    1       -1.755   7.202   1.342  0.00  0.00    +0.060 C 
BRANCH  18  19
ATOM     19  C   LIG    1       -2.456   7.788   0.143  0.00  0.00    -0.080 A 
ATOM     20  C   LIG    1       -3.816   7.604  -0.020  0.00  0.00    +0.040 A 
ATOM     21  C   LIG    1       -4.461   8.145  -1.116  0.00  0.00    -0.020 A 
ATOM     22  C   LIG    1       -3.742   8.863  -2.056  0.00  0.00    +0.090 A 
ATOM     23  C   LIG    1       -2.378   9.042  -1.895  0.00  0.00    -0.020 A 
ATOM     24  F   LIG    1       -4.370   9.388  -3.131  0.00  0.00    -0.140 F 
ATOM     25  C   LIG    1       -1.737   8.504  -0.795  0.00  0.00    +0.070 A 
ENDBRANCH  18  19
BRANCH  18  26
ATOM     26  C   LIG    1       -2.358   7.785   2.621  0.00  0.00    +0.110 C 
BRANCH  26  27
ATOM     27  C   LIG    1       -2.077   9.265   2.679  0.00  0.00    +0.460 C 
ATOM     28  O   LIG    1       -1.458   9.798   1.789  0.00  0.00    -0.500 OA
BRANCH  27  29
ATOM     29  O   LIG    1       -2.514   9.991   3.720  0.00  0.00    -0.360 OA
BRANCH  29  31
ATOM     30  C   LIG    1       -2.782  12.065   4.967  0.00  0.00    +0.070 C 
ATOM     31  C   LIG    1       -2.207  11.410   3.710  0.00  0.00    +0.200 C 
ENDBRANCH  29  31
ENDBRANCH  27  29
ENDBRANCH  26  27
ENDBRANCH  18  26
ENDBRANCH   1  18
TORSDOF 9
