REMARK  Name = ZINCtV000002Mmnz.0
REMARK                            x       y       z     vdW  Elec       q    Type
REMARK                         _______ _______ _______ _____ _____    ______ ____
ROOT
ATOM      1  O   LIG    1       -6.746   2.538   0.076  0.00  0.00    -0.500 OA
ATOM      2  C   LIG    1       -6.595   3.741   0.085  0.00  0.00    +0.540 C 
ATOM      3  N   LIG    1       -7.669   4.555   0.093  0.00  0.00    -0.670 N 
ATOM      4  H   LIG    1       -7.549   5.515   0.165  0.00  0.00    +0.410 HD
ENDROOT
BRANCH   3   5
ATOM      5  C   LIG    1       -8.956   4.016  -0.005  0.00  0.00    +0.150 A 
ATOM      6  C   LIG    1       -9.243   2.791   0.583  0.00  0.00    +0.020 A 
ATOM      7  C   LIG    1      -10.515   2.261   0.485  0.00  0.00    +0.030 A 
ATOM      8  C   LIG    1      -11.502   2.949  -0.197  0.00  0.00    -0.010 A 
ATOM      9  C   LIG    1      -11.219   4.169  -0.784  0.00  0.00    +0.030 A 
ATOM     10  C   LIG    1       -9.951   4.707  -0.684  0.00  0.00    -0.100 A 
BRANCH  10  11
ATOM     11  C   LIG    1       -9.645   6.040  -1.318  0.00  0.00    +0.120 C 
BRANCH  11  12
ATOM     12  C   LIG    1       -9.061   5.822  -2.690  0.00  0.00    -0.080 A 
ATOM     13  C   LIG    1       -7.693   5.699  -2.847  0.00  0.00    +0.000 A 
ATOM     14  C   LIG    1       -7.157   5.495  -4.105  0.00  0.00    +0.000 A 
ATOM     15  C   LIG    1       -7.989   5.421  -5.207  0.00  0.00    +0.000 A 
ATOM     16  C   LIG    1       -9.356   5.549  -5.050  0.00  0.00    +0.000 A 
ATOM     17  C   LIG    1       -9.892   5.749  -3.792  0.00  0.00    +0.010 A 
ENDBRANCH  11  12
ENDBRANCH  10  11
ENDBRANCH   3   5
BRANCH   2  18
ATOM     18  C   LIG    1       -5.206   4.326   0.087  0.00  0.00    +0.000 C 
BRANCH  18  19
ATOM     19  S   LIG    1       -3.985   2.984   0.076  0.00  0.00    +0.040 S 
BRANCH  19  20
ATOM     20  C   LIG    1       -2.448   3.847   0.080  0.00  0.00    -0.090 A 
ATOM     21  C   LIG    1       -2.424   5.226   0.090  0.00  0.00    +0.000 A 
ATOM     22  C   LIG    1       -1.216   5.916   0.093  0.00  0.00    +0.040 A 
ATOM     23  C   LIG    1       -0.027   5.253   0.086  0.00  0.00    +0.020 A 
ATOM     24  C   LIG    1       -0.007   3.847   0.076  0.00  0.00    -0.020 A 
ATOM     25  C   LIG    1        1.205   3.137   0.068  0.00  0.00    +0.040 A 
ATOM     26  C   LIG    1        1.189   1.775   0.058  0.00  0.00    +0.040 A 
ATOM     27  C   LIG    1       -0.014   1.073   0.055  0.00  0.00    +0.040 A 
ATOM     28  C   LIG    1       -1.209   1.729   0.057  0.00  0.00    -0.040 A 
ATOM     29 CL   LIG    1       -2.696   0.834   0.047  0.00  0.00    +0.000 Cl
ATOM     30  C   LIG    1       -1.230   3.133   0.073  0.00  0.00    -0.030 A 
ENDBRANCH  19  20
ENDBRANCH  18  19
ENDBRANCH   2  18
TORSDOF 6
