REMARK  Name = ZINCpk00000ebBp4.1
REMARK                            x       y       z     vdW  Elec       q    Type
REMARK                         _______ _______ _______ _____ _____    ______ ____
ROOT
ATOM      1  O   LIG    1        2.805   4.819   3.857  0.00  0.00    -0.560 OA
ATOM      2  C   LIG    1        2.159   3.894   3.400  0.00  0.00    +0.600 C 
ATOM      3  N   LIG    1        2.343   3.510   2.122  0.00  0.00    -0.720 N 
ATOM      4  H   LIG    1        1.828   2.773   1.758  0.00  0.00    +0.400 HD
ENDROOT
BRANCH   2   5
ATOM      5  C   LIG    1        1.179   3.198   4.242  0.00  0.00    -0.310 A 
ATOM      6  C   LIG    1        0.884   3.477   5.575  0.00  0.00    +0.380 A 
ATOM      7  N   LIG    1        1.363   4.418   6.450  0.00  0.00    -0.590 N 
ATOM      8  H   LIG    1        2.047   5.043   6.162  0.00  0.00    +0.450 HD
ATOM      9  C   LIG    1        0.884   4.476   7.726  0.00  0.00    +0.380 A 
ATOM     10  C   LIG    1       -0.069   3.605   8.127  0.00  0.00    -0.120 A 
ATOM     11  C   LIG    1       -0.562   2.643   7.221  0.00  0.00    +0.560 A 
ATOM     12  O   LIG    1       -1.421   1.854   7.575  0.00  0.00    -0.480 OA
ATOM     13  N   LIG    1       -0.079   2.598   5.963  0.00  0.00    -0.360 N 
ATOM     14  N   LIG    1       -0.376   1.768   4.876  0.00  0.00    -0.260 NA
ATOM     15  C   LIG    1        0.359   2.113   3.857  0.00  0.00    +0.330 A 
ENDBRANCH   2   5
BRANCH   3  16
ATOM     16  C   LIG    1        3.322   4.205   1.282  0.00  0.00    +0.290 C 
BRANCH  16  17
ATOM     17  C   LIG    1        3.334   3.576  -0.113  0.00  0.00    +0.130 C 
ATOM     18  C   LIG    1        4.520   4.128  -0.943  0.00  0.00    +0.040 C 
ATOM     19  C   LIG    1        4.738   2.989  -1.974  0.00  0.00    +0.010 C 
ATOM     20  C   LIG    1        4.430   1.717  -1.156  0.00  0.00    +0.190 C 
ATOM     21  N   LIG    1        3.582   2.122  -0.020  0.00  0.00    -0.490 N 
BRANCH  21  22
ATOM     22  C   LIG    1        2.381   1.409  -0.013  0.00  0.00    +0.080 A 
ATOM     23  C   LIG    1        2.115   0.504   1.006  0.00  0.00    +0.020 A 
ATOM     24  C   LIG    1        0.927  -0.200   1.010  0.00  0.00    +0.010 A 
ATOM     25  C   LIG    1        0.003  -0.005   0.001  0.00  0.00    +0.010 A 
ATOM     26  C   LIG    1        0.264   0.895  -1.016  0.00  0.00    +0.010 A 
ATOM     27  C   LIG    1        1.450   1.603  -1.026  0.00  0.00    -0.030 A 
ENDBRANCH  21  22
ENDBRANCH  16  17
ENDBRANCH   3  16
TORSDOF 4
