REMARK  Name = ZINCnE00000dSQKV.0
REMARK                            x       y       z     vdW  Elec       q    Type
REMARK                         _______ _______ _______ _____ _____    ______ ____
ROOT
ATOM      1  C   LIG    1       -6.698   0.354   1.992  0.00  0.00    +0.210 A 
ATOM      2  N   LIG    1       -5.533   0.968   1.956  0.00  0.00    -0.510 NA
ATOM      3  C   LIG    1       -4.708   0.809   0.923  0.00  0.00    +0.310 A 
ATOM      4  N   LIG    1       -5.014   0.022  -0.106  0.00  0.00    -0.530 NA
ATOM      5  C   LIG    1       -6.159  -0.630  -0.141  0.00  0.00    +0.340 A 
ATOM      6  C   LIG    1       -7.059  -0.485   0.926  0.00  0.00    -0.230 A 
ENDROOT
BRANCH   1   8
ATOM      7  C   LIG    1       -6.822   0.989   4.386  0.00  0.00    +0.020 C 
ATOM      8  C   LIG    1       -7.627   0.545   3.163  0.00  0.00    +0.080 C 
ATOM      9  C   LIG    1       -8.666   1.615   2.820  0.00  0.00    +0.040 C 
ENDBRANCH   1   8
BRANCH   6  10
ATOM     10  C   LIG    1       -8.348  -1.195   0.927  0.00  0.00    +0.530 C 
ATOM     11  O   LIG    1       -9.167  -0.975   1.809  0.00  0.00    -0.660 OA
ATOM     12  O   LIG    1       -8.601  -2.006   0.046  0.00  0.00    -0.680 OA
ENDBRANCH   6  10
BRANCH   3  13
ATOM     13  C   LIG    1       -3.422   1.518   0.921  0.00  0.00    +0.080 C 
ATOM     14  C   LIG    1       -2.571   1.366  -0.112  0.00  0.00    +0.050 C 
BRANCH  14  15
ATOM     15  C   LIG    1       -1.282   2.076  -0.114  0.00  0.00    -0.100 A 
ATOM     16  C   LIG    1       -1.236   3.451   0.148  0.00  0.00    +0.130 A 
ATOM     17  C   LIG    1       -0.023   4.113   0.140  0.00  0.00    +0.000 A 
ATOM     18  C   LIG    1        1.146   3.422  -0.121  0.00  0.00    +0.060 A 
ATOM     19  C   LIG    1        1.113   2.058  -0.376  0.00  0.00    +0.060 A 
ATOM     20  F   LIG    1       -2.375   4.130   0.404  0.00  0.00    -0.120 F 
ATOM     21  C   LIG    1       -0.096   1.380  -0.371  0.00  0.00    +0.120 A 
ATOM     22  F   LIG    1       -0.129   0.052  -0.619  0.00  0.00    -0.120 F 
BRANCH  19  23
ATOM     23  O   LIG    1        2.268   1.387  -0.632  0.00  0.00    -0.480 OA
ATOM     24  H   LIG    1        2.506   1.356  -1.568  0.00  0.00    +0.390 HD
ENDBRANCH  19  23
ENDBRANCH  14  15
ENDBRANCH   3  13
TORSDOF 5
