REMARK  Name = ZINCpe00000MJK9W.0
REMARK                            x       y       z     vdW  Elec       q    Type
REMARK                         _______ _______ _______ _____ _____    ______ ____
ROOT
ATOM      1  C   LIG    1       -1.482   7.896  -0.967  0.00  0.00    +0.190 C 
ATOM      2  C   LIG    1       -2.118   7.978   0.438  0.00  0.00    +0.180 C 
ATOM      3  N   LIG    1       -0.967   7.912   1.374  0.00  0.00    -0.480 NA
ATOM      4  C   LIG    1        0.083   8.735   0.721  0.00  0.00    +0.160 C 
ATOM      5  C   LIG    1       -0.034   8.394  -0.781  0.00  0.00    +0.190 C 
ENDROOT
BRANCH   5   6
ATOM      6  O   LIG    1        0.894   7.365  -1.130  0.00  0.00    -0.550 OA
ATOM      7  H   LIG    1        1.821   7.621  -1.032  0.00  0.00    +0.380 HD
ENDBRANCH   5   6
BRANCH   1   8
ATOM      8  O   LIG    1       -2.185   8.742  -1.879  0.00  0.00    -0.290 OA
BRANCH   8  12
ATOM      9  C   LIG    1       -5.820   8.111  -5.078  0.00  0.00    +0.370 C 
ATOM     10  N   LIG    1       -4.801   7.869  -4.054  0.00  0.00    -0.370 N 
ATOM     11  C   LIG    1       -3.944   8.791  -3.544  0.00  0.00    +0.200 A 
ATOM     12  C   LIG    1       -3.170   8.165  -2.623  0.00  0.00    -0.030 A 
ATOM     13  C   LIG    1       -3.558   6.820  -2.577  0.00  0.00    +0.190 A 
ATOM     14  N   LIG    1       -4.533   6.643  -3.432  0.00  0.00    -0.270 NA
ENDBRANCH   8  12
ENDBRANCH   1   8
BRANCH   3  15
ATOM     15  C   LIG    1       -1.325   8.462   2.688  0.00  0.00    +0.200 C 
BRANCH  15  16
ATOM     16  C   LIG    1       -2.449   7.654   3.282  0.00  0.00    +0.510 C 
ATOM     17  N   LIG    1       -3.028   8.049   4.434  0.00  0.00    -0.730 N 
ATOM     18  H   LIG    1       -2.721   8.853   4.880  0.00  0.00    +0.400 HD
ATOM     19  O   LIG    1       -2.834   6.648   2.724  0.00  0.00    -0.520 OA
BRANCH  17  20
ATOM     20  C   LIG    1       -4.122   7.263   5.011  0.00  0.00    +0.270 C 
BRANCH  20  21
ATOM     21  C   LIG    1       -4.596   7.924   6.306  0.00  0.00    +0.050 C 
BRANCH  21  22
ATOM     22  C   LIG    1       -5.721   7.115   6.900  0.00  0.00    -0.120 C 
ATOM     23  C   LIG    1       -5.425   6.235   7.802  0.00  0.00    -0.050 C 
ATOM     24  C   LIG    1       -6.433   5.353   8.479  0.00  0.00    +0.050 C 
ATOM     25  C   LIG    1       -7.844   5.910   8.274  0.00  0.00    +0.010 C 
ATOM     26  C   LIG    1       -8.034   6.215   6.783  0.00  0.00    +0.020 C 
ATOM     27  C   LIG    1       -7.113   7.377   6.405  0.00  0.00    +0.060 C 
ENDBRANCH  21  22
ENDBRANCH  20  21
ENDBRANCH  17  20
ENDBRANCH  15  16
ENDBRANCH   3  15
TORSDOF 8
