REMARK  Name = ZINCrH000004sNj6.0
REMARK                            x       y       z     vdW  Elec       q    Type
REMARK                         _______ _______ _______ _____ _____    ______ ____
ROOT
ATOM      1  C   LIG    1        2.120   3.116  -0.857  0.00  0.00    +0.560 C 
ATOM      2  N   LIG    1        1.721   1.910  -0.407  0.00  0.00    -0.710 N 
ATOM      3  H   LIG    1        2.373   1.281  -0.061  0.00  0.00    +0.410 HD
ATOM      4  O   LIG    1        1.302   3.904  -1.290  0.00  0.00    -0.530 OA
ENDROOT
BRANCH   1   8
ATOM      5  C   LIG    1        6.239   4.165  -0.760  0.00  0.00    -0.010 A 
ATOM      6  C   LIG    1        5.300   5.071  -1.258  0.00  0.00    +0.060 A 
ATOM      7  C   LIG    1        3.966   4.731  -1.289  0.00  0.00    +0.090 A 
ATOM      8  C   LIG    1        3.552   3.481  -0.823  0.00  0.00    -0.100 A 
ATOM      9  C   LIG    1        4.491   2.578  -0.320  0.00  0.00    +0.050 A 
ATOM     10  C   LIG    1        5.826   2.915  -0.294  0.00  0.00    +0.080 A 
BRANCH   5  15
ATOM     11  C   LIG    1       11.180   4.107  -0.099  0.00  0.00    +0.200 C 
ATOM     12  C   LIG    1        9.774   4.520  -0.452  0.00  0.00    +0.170 A 
ATOM     13  N   LIG    1        9.415   5.657  -0.971  0.00  0.00    -0.380 NA
ATOM     14  O   LIG    1        8.214   5.687  -1.138  0.00  0.00    +0.090 OA
ATOM     15  C   LIG    1        7.672   4.530  -0.727  0.00  0.00    +0.220 A 
ATOM     16  N   LIG    1        8.666   3.783  -0.282  0.00  0.00    -0.470 NA
ENDBRANCH   5  15
ENDBRANCH   1   8
BRANCH   2  17
ATOM     17  C   LIG    1        0.302   1.548  -0.440  0.00  0.00    +0.290 C 
BRANCH  17  18
ATOM     18  C   LIG    1        0.121   0.137   0.123  0.00  0.00    +0.210 C 
BRANCH  18  19
ATOM     19  C   LIG    1       -1.319  -0.282  -0.024  0.00  0.00    -0.110 A 
ATOM     20  C   LIG    1       -2.087   0.233  -1.051  0.00  0.00    +0.040 A 
ATOM     21  C   LIG    1       -3.408  -0.152  -1.186  0.00  0.00    +0.020 A 
ATOM     22  C   LIG    1       -3.961  -1.051  -0.294  0.00  0.00    +0.030 A 
ATOM     23  C   LIG    1       -3.194  -1.567   0.734  0.00  0.00    +0.030 A 
ATOM     24  C   LIG    1       -1.870  -1.187   0.866  0.00  0.00    -0.030 A 
ATOM     25 CL   LIG    1       -0.903  -1.840   2.151  0.00  0.00    -0.060 Cl
ENDBRANCH  18  19
BRANCH  18  26
ATOM     26  N   LIG    1        0.981  -0.798  -0.615  0.00  0.00    -0.530 NA
ATOM     27  C   LIG    1        0.551  -0.917  -2.014  0.00  0.00    +0.180 C 
ATOM     28  C   LIG    1        1.012  -2.113   0.040  0.00  0.00    +0.200 C 
ENDBRANCH  18  26
ENDBRANCH  17  18
ENDBRANCH   2  17
TORSDOF 6
