REMARK  Name = ZINCvU0000000Dg7.0
REMARK                            x       y       z     vdW  Elec       q    Type
REMARK                         _______ _______ _______ _____ _____    ______ ____
ROOT
ATOM      1  S   LIG    1       -2.411  -0.895  -1.337  0.00  0.00    +0.080 S 
ENDROOT
BRANCH   1   3
ATOM      2  N   LIG    1       -0.826   1.320  -0.700  0.00  0.00    -0.450 N 
ATOM      3  C   LIG    1       -1.754   0.730  -1.511  0.00  0.00    +0.150 A 
ATOM      4  N   LIG    1       -2.067   1.602  -2.443  0.00  0.00    -0.290 NA
ATOM      5  N   LIG    1       -1.398   2.686  -2.276  0.00  0.00    -0.240 NA
ATOM      6  C   LIG    1       -0.620   2.575  -1.225  0.00  0.00    +0.220 A 
BRANCH   6   7
ATOM      7  C   LIG    1        0.304   3.605  -0.703  0.00  0.00    -0.010 A 
ATOM      8  C   LIG    1        1.621   3.269  -0.389  0.00  0.00    +0.060 A 
ATOM      9  C   LIG    1        2.479   4.234   0.098  0.00  0.00    +0.050 A 
ATOM     10  C   LIG    1        2.036   5.534   0.275  0.00  0.00    -0.010 A 
ATOM     11  C   LIG    1        0.730   5.874  -0.035  0.00  0.00    +0.050 A 
ATOM     12 CL   LIG    1        3.122   6.741   0.887  0.00  0.00    -0.040 Cl
ATOM     13  C   LIG    1       -0.137   4.919  -0.528  0.00  0.00    +0.010 A 
ATOM     14 CL   LIG    1       -1.772   5.348  -0.923  0.00  0.00    -0.030 Cl
ENDBRANCH   6   7
BRANCH   2  16
ATOM     15  C   LIG    1       -0.940   1.160   1.737  0.00  0.00    +0.060 C 
ATOM     16  C   LIG    1       -0.181   0.736   0.478  0.00  0.00    +0.290 C 
ENDBRANCH   2  16
ENDBRANCH   1   3
BRANCH   1  17
ATOM     17  C   LIG    1       -3.542  -0.930  -2.750  0.00  0.00    +0.020 C 
ATOM     18  C   LIG    1       -4.655   0.097  -2.537  0.00  0.00    +0.080 C 
BRANCH  17  19
ATOM     19  C   LIG    1       -4.145  -2.305  -2.877  0.00  0.00    +0.540 C 
ATOM     20  N   LIG    1       -4.594  -2.736  -4.072  0.00  0.00    -0.560 N 
ATOM     21  O   LIG    1       -4.226  -3.025  -1.903  0.00  0.00    -0.500 OA
BRANCH  20  22
ATOM     22  C   LIG    1       -5.254  -3.966  -4.170  0.00  0.00    +0.130 A 
ATOM     23  C   LIG    1       -4.562  -5.148  -3.934  0.00  0.00    +0.030 A 
ATOM     24  C   LIG    1       -5.218  -6.360  -4.027  0.00  0.00    +0.020 A 
ATOM     25  C   LIG    1       -6.559  -6.399  -4.363  0.00  0.00    +0.020 A 
ATOM     26  C   LIG    1       -7.249  -5.225  -4.603  0.00  0.00    +0.020 A 
ATOM     27  C   LIG    1       -6.600  -4.009  -4.507  0.00  0.00    +0.010 A 
ENDBRANCH  20  22
BRANCH  20  28
ATOM     28  C   LIG    1       -4.391  -1.917  -5.270  0.00  0.00    +0.310 C 
BRANCH  28  29
ATOM     29  C   LIG    1       -3.059  -2.290  -5.923  0.00  0.00    +0.180 C 
BRANCH  29  30
ATOM     30  C   LIG    1       -2.856  -1.467  -7.127  0.00  0.00    +0.200 C 
ATOM     31  N   LIG    1       -2.699  -0.832  -8.055  0.00  0.00    -0.410 NA
ENDBRANCH  29  30
ENDBRANCH  28  29
ENDBRANCH  20  28
ENDBRANCH  17  19
ENDBRANCH   1  17
TORSDOF 9
