REMARK  Name = ZINCvU0000000A8P.0
REMARK                            x       y       z     vdW  Elec       q    Type
REMARK                         _______ _______ _______ _____ _____    ______ ____
ROOT
ATOM      1  N   LIG    1        1.193  -1.504  -2.038  0.00  0.00    -0.450 N 
ATOM      2  C   LIG    1        1.854  -1.233  -3.204  0.00  0.00    +0.190 A 
ATOM      3  N   LIG    1        1.913   0.063  -3.324  0.00  0.00    -0.250 NA
ATOM      4  N   LIG    1        1.335   0.625  -2.324  0.00  0.00    -0.290 NA
ATOM      5  C   LIG    1        0.871  -0.290  -1.504  0.00  0.00    +0.150 A 
ENDROOT
BRANCH   1   7
ATOM      6  C   LIG    1       -0.467  -3.300  -2.002  0.00  0.00    +0.060 C 
ATOM      7  C   LIG    1        0.890  -2.824  -1.479  0.00  0.00    +0.310 C 
ENDBRANCH   1   7
BRANCH   2   8
ATOM      8  C   LIG    1        2.414  -2.246  -4.169  0.00  0.00    +0.240 C 
BRANCH   8   9
ATOM      9  S   LIG    1        4.119  -2.641  -3.706  0.00  0.00    +0.040 S 
BRANCH   9  10
ATOM     10  C   LIG    1        4.514  -3.811  -4.963  0.00  0.00    +0.080 A 
ATOM     11  N   LIG    1        3.707  -4.193  -5.894  0.00  0.00    -0.470 NA
ATOM     12  C   LIG    1        4.159  -5.094  -6.788  0.00  0.00    +0.090 A 
ATOM     13  C   LIG    1        3.481  -5.662  -7.888  0.00  0.00    +0.080 A 
ATOM     14  C   LIG    1        4.109  -6.579  -8.693  0.00  0.00    +0.040 A 
ATOM     15  C   LIG    1        5.417  -6.963  -8.439  0.00  0.00    +0.040 A 
ATOM     16  C   LIG    1        6.099  -6.421  -7.371  0.00  0.00    +0.060 A 
ATOM     17  C   LIG    1        5.478  -5.489  -6.544  0.00  0.00    -0.170 A 
ATOM     18  S   LIG    1        6.063  -4.628  -5.123  0.00  0.00    +0.120 S 
ENDBRANCH   9  10
ENDBRANCH   8   9
ENDBRANCH   2   8
BRANCH   5  19
ATOM     19  S   LIG    1        0.004  -0.004   0.003  0.00  0.00    +0.090 S 
BRANCH  19  20
ATOM     20  C   LIG    1       -0.017   1.806   0.015  0.00  0.00    +0.110 C 
BRANCH  20  21
ATOM     21  C   LIG    1       -0.729   2.292   1.251  0.00  0.00    +0.540 C 
ATOM     22  N   LIG    1       -0.867   3.614   1.474  0.00  0.00    -0.660 N 
ATOM     23  H   LIG    1       -0.450   4.253   0.875  0.00  0.00    +0.420 HD
ATOM     24  O   LIG    1       -1.179   1.493   2.045  0.00  0.00    -0.500 OA
BRANCH  22  25
ATOM     25  C   LIG    1       -1.612   4.065   2.569  0.00  0.00    +0.150 A 
ATOM     26  C   LIG    1       -2.361   5.230   2.468  0.00  0.00    +0.000 A 
ATOM     27  C   LIG    1       -3.099   5.671   3.550  0.00  0.00    +0.050 A 
ATOM     28  C   LIG    1       -3.084   4.960   4.735  0.00  0.00    -0.090 A 
ATOM     29  C   LIG    1       -2.334   3.801   4.841  0.00  0.00    -0.020 A 
ATOM     30 CL   LIG    1       -2.318   2.911   6.331  0.00  0.00    -0.060 Cl
ATOM     31  C   LIG    1       -3.885   5.447   5.915  0.00  0.00    +0.100 C 
ATOM     32  C   LIG    1       -1.598   3.352   3.760  0.00  0.00    +0.040 A 
ENDBRANCH  22  25
ENDBRANCH  20  21
ENDBRANCH  19  20
ENDBRANCH   5  19
TORSDOF 8
