REMARK  Name = ZINCrH000004np8n.0
REMARK                            x       y       z     vdW  Elec       q    Type
REMARK                         _______ _______ _______ _____ _____    ______ ____
ROOT
ATOM      1  C   LIG    1       -3.219   5.127   1.388  0.00  0.00    +0.530 C 
ATOM      2  N   LIG    1       -2.080   5.759   1.043  0.00  0.00    -0.590 N 
ATOM      3  C   LIG    1       -1.713   6.996   1.761  0.00  0.00    +0.260 C 
ATOM      4  C   LIG    1       -1.177   8.081   0.809  0.00  0.00    +0.020 C 
ATOM      5  C   LIG    1       -1.988   8.103  -0.462  0.00  0.00    +0.010 C 
ATOM      6  C   LIG    1       -1.337   7.186  -1.494  0.00  0.00    +0.000 C 
ATOM      7  C   LIG    1       -1.725   5.772  -1.379  0.00  0.00    +0.020 C 
ATOM      8  C   LIG    1       -1.269   5.199  -0.014  0.00  0.00    +0.250 C 
ATOM      9  O   LIG    1       -3.510   4.072   0.863  0.00  0.00    -0.540 OA
ENDROOT
BRANCH   8  10
ATOM     10  C   LIG    1       -1.425   3.677  -0.024  0.00  0.00    +0.000 C 
ATOM     11  C   LIG    1       -0.434   3.064  -1.019  0.00  0.00    +0.020 C 
ATOM     12  C   LIG    1       -0.498   1.539  -0.926  0.00  0.00    +0.020 C 
ATOM     13  C   LIG    1       -0.049   1.085   0.464  0.00  0.00    +0.020 C 
ATOM     14  C   LIG    1       -1.025   1.623   1.515  0.00  0.00    -0.000 C 
ATOM     15  C   LIG    1       -1.128   3.123   1.353  0.00  0.00    +0.380 C 
ATOM     16  O   LIG    1       -0.977   3.860   2.297  0.00  0.00    -0.460 OA
ENDBRANCH   8  10
BRANCH   1  17
ATOM     17  C   LIG    1       -4.132   5.729   2.425  0.00  0.00    +0.120 C 
BRANCH  17  23
ATOM     18  C   LIG    1       -6.467   5.013   1.859  0.00  0.00    +0.180 A 
ATOM     19  C   LIG    1       -7.563   4.182   2.042  0.00  0.00    -0.110 A 
ATOM     20  C   LIG    1       -7.522   3.182   2.994  0.00  0.00    +0.090 A 
ATOM     21  C   LIG    1       -6.388   3.002   3.763  0.00  0.00    -0.110 A 
ATOM     22  C   LIG    1       -5.287   3.827   3.580  0.00  0.00    +0.180 A 
ATOM     23  C   LIG    1       -5.326   4.832   2.625  0.00  0.00    -0.130 A 
BRANCH  18  25
ATOM     24  C   LIG    1       -7.718   6.130   0.174  0.00  0.00    +0.250 C 
ATOM     25  O   LIG    1       -6.511   6.001   0.927  0.00  0.00    -0.310 OA
ENDBRANCH  18  25
BRANCH  22  26
ATOM     26  O   LIG    1       -4.171   3.650   4.336  0.00  0.00    -0.310 OA
ATOM     27  C   LIG    1       -4.202   2.596   5.300  0.00  0.00    +0.250 C 
ENDBRANCH  22  26
ENDBRANCH  17  23
ENDBRANCH   1  17
TORSDOF 5
