REMARK  Name = ZINCvU0000000BAW.0
REMARK                            x       y       z     vdW  Elec       q    Type
REMARK                         _______ _______ _______ _____ _____    ______ ____
ROOT
ATOM      1  N   LIG    1       -0.016   1.354   0.009  0.00  0.00    -0.530 N 
ATOM      2  C   LIG    1        0.002  -0.004   0.002  0.00  0.00    +0.590 A 
ATOM      3  N   LIG    1        1.115  -0.674  -0.012  0.00  0.00    -0.490 NA
ATOM      4  C   LIG    1        2.317  -0.056  -0.020  0.00  0.00    +0.070 A 
ATOM      5  C   LIG    1        2.372   1.332  -0.013  0.00  0.00    -0.220 A 
ATOM      6  C   LIG    1        3.741   1.829  -0.023  0.00  0.00    +0.000 A 
ATOM      7  C   LIG    1        4.672   0.875  -0.037  0.00  0.00    -0.040 A 
ATOM      8  S   LIG    1        3.945  -0.720  -0.039  0.00  0.00    +0.230 S 
ATOM      9  C   LIG    1        1.137   2.050   0.002  0.00  0.00    +0.560 A 
ATOM     10  O   LIG    1        1.127   3.268   0.008  0.00  0.00    -0.500 OA
ENDROOT
BRANCH   6  11
ATOM     11  C   LIG    1        4.071   3.274  -0.019  0.00  0.00    -0.020 A 
ATOM     12  C   LIG    1        3.467   4.133  -0.936  0.00  0.00    +0.070 A 
ATOM     13  C   LIG    1        3.775   5.478  -0.924  0.00  0.00    +0.040 A 
ATOM     14  C   LIG    1        4.689   5.973  -0.010  0.00  0.00    -0.080 A 
ATOM     15  C   LIG    1        5.295   5.124   0.899  0.00  0.00    +0.050 A 
ATOM     16 BR   LIG    1        5.110   7.817  -0.004  0.00  0.00    -0.050 Br
ATOM     17  C   LIG    1        4.991   3.778   0.899  0.00  0.00    +0.030 A 
ENDBRANCH   6  11
BRANCH   1  18
ATOM     18  C   LIG    1       -1.297   2.065   0.019  0.00  0.00    +0.380 C 
BRANCH  18  23
ATOM     19  C   LIG    1       -3.865  -0.630   3.621  0.00  0.00    +0.190 A 
ATOM     20  C   LIG    1       -3.482  -0.885   2.306  0.00  0.00    -0.070 A 
ATOM     21  C   LIG    1       -2.793   0.052   1.592  0.00  0.00    +0.110 A 
ATOM     22  C   LIG    1       -2.468   1.277   2.185  0.00  0.00    -0.180 A 
ATOM     23  C   LIG    1       -1.729   2.301   1.444  0.00  0.00    -0.010 A 
ATOM     24  C   LIG    1       -1.449   3.473   2.073  0.00  0.00    -0.040 A 
ATOM     25  C   LIG    1       -1.865   3.669   3.406  0.00  0.00    +0.510 A 
ATOM     26  O   LIG    1       -2.537   2.725   4.082  0.00  0.00    -0.270 OA
ATOM     27  O   LIG    1       -1.607   4.724   3.958  0.00  0.00    -0.450 OA
ATOM     28  C   LIG    1       -2.847   1.539   3.515  0.00  0.00    +0.190 A 
ATOM     29  C   LIG    1       -3.542   0.574   4.227  0.00  0.00    -0.010 A 
BRANCH  19  31
ATOM     30  C   LIG    1       -4.842  -2.796   3.639  0.00  0.00    +0.250 C 
ATOM     31  O   LIG    1       -4.550  -1.572   4.317  0.00  0.00    -0.300 OA
ENDBRANCH  19  31
ENDBRANCH  18  23
ENDBRANCH   1  18
TORSDOF 4
