REMARK  Name = ZINCpe000000Sxs1.0
REMARK                            x       y       z     vdW  Elec       q    Type
REMARK                         _______ _______ _______ _____ _____    ______ ____
ROOT
ATOM      1  C   LIG    1       -0.753   1.593  -1.232  0.00  0.00    +0.230 C 
ENDROOT
BRANCH   1   2
ATOM      2  O   LIG    1       -0.672   3.018  -1.285  0.00  0.00    -0.540 OA
ATOM      3  H   LIG    1        0.232   3.360  -1.333  0.00  0.00    +0.380 HD
ENDBRANCH   1   2
BRANCH   1   4
ATOM      4  C   LIG    1       -0.111   0.998  -2.487  0.00  0.00    +0.330 C 
BRANCH   4   7
ATOM      5  C   LIG    1       -1.465   2.180  -5.595  0.00  0.00    -0.040 A 
ATOM      6  C   LIG    1       -0.410   2.016  -4.762  0.00  0.00    +0.150 A 
ATOM      7  N   LIG    1       -0.891   1.387  -3.665  0.00  0.00    -0.280 N 
ATOM      8  N   LIG    1       -2.151   1.183  -3.836  0.00  0.00    -0.070 NA
ATOM      9  N   LIG    1       -2.525   1.650  -4.975  0.00  0.00    -0.240 NA
BRANCH   5  10
ATOM     10  C   LIG    1       -1.447   2.832  -6.953  0.00  0.00    +0.250 C 
ATOM     11  C   LIG    1       -2.856   2.804  -7.550  0.00  0.00    +0.090 C 
BRANCH  10  13
ATOM     12  C   LIG    1        0.090   4.663  -7.448  0.00  0.00    +0.030 C 
ATOM     13  C   LIG    1       -0.986   4.260  -6.819  0.00  0.00    -0.060 C 
ENDBRANCH  10  13
BRANCH  10  14
ATOM     14  O   LIG    1       -0.553   2.121  -7.811  0.00  0.00    -0.540 OA
ATOM     15  H   LIG    1        0.361   2.098  -7.495  0.00  0.00    +0.370 HD
ENDBRANCH  10  14
ENDBRANCH   5  10
ENDBRANCH   4   7
ENDBRANCH   1   4
BRANCH   1  16
ATOM     16  C   LIG    1       -0.013   1.086   0.008  0.00  0.00    +0.190 C 
BRANCH  16  17
ATOM     17  O   LIG    1       -0.682   1.547   1.184  0.00  0.00    -0.290 OA
BRANCH  17  18
ATOM     18  C   LIG    1       -0.150   1.183   2.378  0.00  0.00    +0.170 A 
ATOM     19  C   LIG    1        0.993   0.391   2.415  0.00  0.00    -0.090 A 
ATOM     20  C   LIG    1        1.539   0.024   3.625  0.00  0.00    +0.120 A 
ATOM     21  C   LIG    1        0.937   0.439   4.816  0.00  0.00    -0.170 A 
ATOM     22  C   LIG    1       -0.215   1.230   4.774  0.00  0.00    +0.140 A 
ATOM     23  C   LIG    1       -0.752   1.598   3.560  0.00  0.00    -0.020 A 
BRANCH  21  24
ATOM     24  C   LIG    1        1.514   0.043   6.114  0.00  0.00    +0.510 C 
ATOM     25  O   LIG    1        0.990   0.405   7.148  0.00  0.00    -0.510 OA
BRANCH  24  26
ATOM     26  O   LIG    1        2.625  -0.719   6.152  0.00  0.00    -0.360 OA
ATOM     27  C   LIG    1        3.138  -1.071   7.464  0.00  0.00    +0.270 C 
ENDBRANCH  24  26
ENDBRANCH  21  24
ENDBRANCH  17  18
ENDBRANCH  16  17
ENDBRANCH   1  16
TORSDOF 11
