REMARK  Name = ZINCvU0000000E4q.0
REMARK                            x       y       z     vdW  Elec       q    Type
REMARK                         _______ _______ _______ _____ _____    ______ ____
ROOT
ATOM      1  C   LIG    1        1.537   0.953  -3.942  0.00  0.00    +0.270 A 
ATOM      2  N   LIG    1        1.286   1.525  -2.783  0.00  0.00    -0.280 NA
ATOM      3  N   LIG    1       -0.033   1.187  -2.438  0.00  0.00    -0.330 N 
ATOM      4  C   LIG    1       -0.501   0.406  -3.439  0.00  0.00    +0.300 A 
ATOM      5  N   LIG    1        0.452   0.280  -4.337  0.00  0.00    -0.500 NA
ENDROOT
BRANCH   3   6
ATOM      6  C   LIG    1       -0.756   1.595  -1.231  0.00  0.00    +0.280 C 
ATOM      7  C   LIG    1       -0.838   3.123  -1.172  0.00  0.00    +0.010 C 
ATOM      8  C   LIG    1       -1.527   3.539   0.131  0.00  0.00    +0.230 C 
ATOM      9  O   LIG    1       -0.802   3.008   1.242  0.00  0.00    -0.370 OA
ATOM     10  C   LIG    1       -0.732   1.581   1.266  0.00  0.00    +0.120 C 
ATOM     11  C   LIG    1        0.040   1.127   2.506  0.00  0.00    +0.070 C 
ATOM     12  C   LIG    1       -2.148   1.002   1.305  0.00  0.00    +0.020 C 
ATOM     13  C   LIG    1       -0.013   1.086   0.008  0.00  0.00    +0.020 C 
ENDBRANCH   3   6
BRANCH   1  17
ATOM     14  C   LIG    1        5.204   1.208  -6.083  0.00  0.00    -0.070 A 
ATOM     15  C   LIG    1        4.146   0.471  -6.604  0.00  0.00    +0.040 A 
ATOM     16  C   LIG    1        2.957   0.387  -5.912  0.00  0.00    +0.090 A 
ATOM     17  C   LIG    1        2.816   1.041  -4.689  0.00  0.00    -0.020 A 
ATOM     18  C   LIG    1        3.876   1.784  -4.171  0.00  0.00    +0.070 A 
ATOM     19  C   LIG    1        5.065   1.861  -4.864  0.00  0.00    -0.010 A 
BRANCH  14  21
ATOM     20  C   LIG    1        7.749   2.358  -5.899  0.00  0.00    +0.140 C 
ATOM     21  S   LIG    1        6.723   1.313  -6.970  0.00  0.00    -0.110 S 
ENDBRANCH  14  21
ENDBRANCH   1  17
BRANCH   4  22
ATOM     22  C   LIG    1       -1.851  -0.198  -3.512  0.00  0.00    +0.250 A 
ATOM     23  C   LIG    1       -2.217  -0.990  -4.604  0.00  0.00    +0.040 A 
ATOM     24  C   LIG    1       -3.491  -1.531  -4.623  0.00  0.00    +0.370 A 
ATOM     25  N   LIG    1       -4.314  -1.282  -3.617  0.00  0.00    -0.470 NA
ATOM     26  C   LIG    1       -3.938  -0.530  -2.600  0.00  0.00    +0.250 A 
ATOM     27  N   LIG    1       -2.736   0.001  -2.535  0.00  0.00    -0.480 NA
BRANCH  26  28
ATOM     28  C   LIG    1       -4.912  -0.277  -1.479  0.00  0.00    +0.550 C 
ATOM     29  F   LIG    1       -5.409   1.027  -1.578  0.00  0.00    -0.160 F 
ATOM     30  F   LIG    1       -4.260  -0.434  -0.251  0.00  0.00    -0.160 F 
ATOM     31  F   LIG    1       -5.970  -1.187  -1.565  0.00  0.00    -0.150 F 
ENDBRANCH  26  28
ENDBRANCH   4  22
TORSDOF 5
