REMARK  Name = ZINCvU0000000Ikm.0
REMARK                            x       y       z     vdW  Elec       q    Type
REMARK                         _______ _______ _______ _____ _____    ______ ____
ROOT
ATOM      1  C   LIG    1       -2.475   1.088   4.370  0.00  0.00    +0.180 C 
ATOM      2  N   LIG    1       -2.992   1.843   5.282  0.00  0.00    -0.220 NA
ATOM      3  N   LIG    1       -3.583   1.142   6.331  0.00  0.00    -0.460 N 
ATOM      4  C   LIG    1       -3.430  -0.300   6.086  0.00  0.00    +0.310 C 
ATOM      5  C   LIG    1       -4.191   1.696   7.398  0.00  0.00    +0.570 C 
ATOM      6  O   LIG    1       -4.670   0.987   8.259  0.00  0.00    -0.490 OA
ATOM      7  C   LIG    1       -2.672  -0.363   4.745  0.00  0.00    +0.110 C 
ENDROOT
BRANCH   1  12
ATOM      8  C   LIG    1       -0.013   1.086   0.008  0.00  0.00    +0.180 C 
ATOM      9  C   LIG    1       -0.718   1.572   1.248  0.00  0.00    +0.020 A 
ATOM     10  C   LIG    1       -0.915   2.863   1.584  0.00  0.00    -0.060 A 
ATOM     11  C   LIG    1       -1.612   2.870   2.807  0.00  0.00    +0.030 A 
ATOM     12  C   LIG    1       -1.797   1.565   3.160  0.00  0.00    +0.020 A 
ATOM     13  O   LIG    1       -1.249   0.791   2.203  0.00  0.00    -0.160 OA
ENDBRANCH   1  12
BRANCH   4  14
ATOM     14  C   LIG    1       -4.776  -0.967   5.966  0.00  0.00    -0.200 A 
ATOM     15  C   LIG    1       -5.060  -2.206   6.372  0.00  0.00    +0.030 A 
ATOM     16  C   LIG    1       -6.369  -2.603   6.160  0.00  0.00    +0.000 A 
ATOM     17  C   LIG    1       -7.145  -1.691   5.573  0.00  0.00    -0.030 A 
ATOM     18  S   LIG    1       -6.211  -0.234   5.261  0.00  0.00    +0.110 S 
ENDBRANCH   4  14
BRANCH   5  19
ATOM     19  C   LIG    1       -4.278   3.195   7.523  0.00  0.00    +0.130 C 
BRANCH  19  20
ATOM     20  S   LIG    1       -5.145   3.625   9.052  0.00  0.00    +0.030 S 
BRANCH  20  21
ATOM     21  C   LIG    1       -5.103   5.383   8.944  0.00  0.00    +0.150 A 
ATOM     22  N   LIG    1       -4.524   5.966   7.906  0.00  0.00    -0.490 NA
ATOM     23  C   LIG    1       -4.471   7.278   7.786  0.00  0.00    +0.180 A 
ATOM     24  C   LIG    1       -5.022   8.109   8.745  0.00  0.00    -0.150 A 
ATOM     25  C   LIG    1       -5.640   7.555   9.853  0.00  0.00    +0.030 A 
ATOM     26  C   LIG    1       -6.250   8.432  10.916  0.00  0.00    +0.120 C 
ATOM     27  C   LIG    1       -4.949   9.605   8.585  0.00  0.00    +0.120 C 
ATOM     28  C   LIG    1       -3.799   7.884   6.581  0.00  0.00    +0.150 C 
ATOM     29  C   LIG    1       -5.691   6.161   9.959  0.00  0.00    -0.070 A 
BRANCH  29  30
ATOM     30  C   LIG    1       -6.324   5.537  11.081  0.00  0.00    +0.250 C 
ATOM     31  N   LIG    1       -6.826   5.042  11.972  0.00  0.00    -0.390 NA
ENDBRANCH  29  30
ENDBRANCH  20  21
ENDBRANCH  19  20
ENDBRANCH   5  19
TORSDOF 6
