REMARK  Name = ZINCvU00000008aU.0
REMARK                            x       y       z     vdW  Elec       q    Type
REMARK                         _______ _______ _______ _____ _____    ______ ____
ROOT
ATOM      1  C   LIG    1       -2.572  -0.197  -2.137  0.00  0.00    +0.530 C 
ATOM      2  N   LIG    1       -1.983  -1.146  -1.383  0.00  0.00    -0.540 N 
ATOM      3  O   LIG    1       -2.803   0.896  -1.665  0.00  0.00    -0.500 OA
ENDROOT
BRANCH   2   4
ATOM      4  C   LIG    1       -1.541  -0.839  -0.091  0.00  0.00    +0.160 A 
ATOM      5  C   LIG    1       -1.835   0.397   0.469  0.00  0.00    +0.030 A 
ATOM      6  C   LIG    1       -1.402   0.696   1.746  0.00  0.00    +0.050 A 
ATOM      7  C   LIG    1       -0.666  -0.231   2.463  0.00  0.00    -0.060 A 
ATOM      8  C   LIG    1       -0.367  -1.461   1.905  0.00  0.00    +0.050 A 
ATOM      9 CL   LIG    1       -0.117   0.151   4.065  0.00  0.00    -0.070 Cl
ATOM     10  C   LIG    1       -0.802  -1.767   0.631  0.00  0.00    -0.020 A 
ENDBRANCH   2   4
BRANCH   1  14
ATOM     11  N   LIG    1       -2.840   0.232  -6.360  0.00  0.00    -0.470 N 
ATOM     12  C   LIG    1       -4.089   0.387  -5.603  0.00  0.00    +0.230 C 
ATOM     13  C   LIG    1       -3.766   0.666  -4.134  0.00  0.00    +0.070 C 
ATOM     14  C   LIG    1       -2.944  -0.495  -3.567  0.00  0.00    -0.010 C 
ATOM     15  C   LIG    1       -1.672  -0.665  -4.402  0.00  0.00    +0.060 C 
ATOM     16  C   LIG    1       -2.056  -0.906  -5.864  0.00  0.00    +0.220 C 
BRANCH  11  20
ATOM     17  C   LIG    1       -3.615  -0.135 -10.377  0.00  0.00    -0.110 A 
ATOM     18  C   LIG    1       -2.281  -0.171  -9.942  0.00  0.00    +0.150 A 
ATOM     19  C   LIG    1       -2.028  -0.049  -8.602  0.00  0.00    -0.040 A 
ATOM     20  C   LIG    1       -3.092   0.108  -7.716  0.00  0.00    +0.340 A 
ATOM     21  N   LIG    1       -4.344   0.134  -8.153  0.00  0.00    -0.520 NA
ATOM     22  C   LIG    1       -4.632   0.025  -9.434  0.00  0.00    +0.360 A 
BRANCH  17  24
ATOM     23  N   LIG    1       -4.177  -0.359 -12.873  0.00  0.00    -0.410 NA
ATOM     24  C   LIG    1       -3.929  -0.260 -11.769  0.00  0.00    +0.260 C 
ENDBRANCH  17  24
ENDBRANCH  11  20
ENDBRANCH   1  14
BRANCH   2  25
ATOM     25  C   LIG    1       -1.806  -2.500  -1.915  0.00  0.00    +0.340 C 
BRANCH  25  26
ATOM     26  C   LIG    1       -2.931  -3.380  -1.435  0.00  0.00    -0.120 A 
ATOM     27  C   LIG    1       -4.096  -3.476  -2.173  0.00  0.00    +0.010 A 
ATOM     28  C   LIG    1       -5.128  -4.284  -1.734  0.00  0.00    +0.010 A 
ATOM     29  C   LIG    1       -4.995  -4.994  -0.555  0.00  0.00    +0.010 A 
ATOM     30  C   LIG    1       -3.830  -4.898   0.183  0.00  0.00    +0.010 A 
ATOM     31  C   LIG    1       -2.798  -4.091  -0.257  0.00  0.00    +0.020 A 
ENDBRANCH  25  26
ENDBRANCH   2  25
TORSDOF 6
