REMARK  Name = ZINCvU00000006N2.0
REMARK                            x       y       z     vdW  Elec       q    Type
REMARK                         _______ _______ _______ _____ _____    ______ ____
ROOT
ATOM      1  O   LIG    1       -2.243   1.188   2.807  0.00  0.00    -0.460 OA
ATOM      2  C   LIG    1       -1.640   0.772   1.837  0.00  0.00    +0.580 C 
ATOM      3  N   LIG    1       -0.825   1.594   1.147  0.00  0.00    -0.500 N 
ENDROOT
BRANCH   2   4
ATOM      4  C   LIG    1       -1.802  -0.639   1.414  0.00  0.00    +0.130 A 
ATOM      5  N   LIG    1       -1.146  -1.073   0.354  0.00  0.00    -0.410 NA
ATOM      6  C   LIG    1       -1.261  -2.333  -0.063  0.00  0.00    +0.130 A 
ATOM      7  C   LIG    1       -0.558  -2.789  -1.194  0.00  0.00    +0.050 A 
ATOM      8  C   LIG    1       -0.694  -4.081  -1.597  0.00  0.00    +0.030 A 
ATOM      9  C   LIG    1       -1.520  -4.967  -0.908  0.00  0.00    +0.020 A 
ATOM     10  C   LIG    1       -2.216  -4.564   0.191  0.00  0.00    +0.030 A 
ATOM     11  C   LIG    1       -2.102  -3.238   0.637  0.00  0.00    -0.080 A 
ATOM     12  C   LIG    1       -2.805  -2.784   1.769  0.00  0.00    +0.090 A 
ATOM     13  C   LIG    1       -2.643  -1.484   2.152  0.00  0.00    +0.030 A 
ENDBRANCH   2   4
BRANCH   3  14
ATOM     14  C   LIG    1       -0.593   2.885   1.602  0.00  0.00    +0.310 A 
ATOM     15  N   LIG    1       -1.109   3.406   2.671  0.00  0.00    -0.470 NA
ATOM     16  C   LIG    1       -0.770   4.656   2.955  0.00  0.00    +0.130 A 
ATOM     17  C   LIG    1        0.069   5.239   2.080  0.00  0.00    -0.080 A 
ATOM     18  S   LIG    1        0.441   4.072   0.813  0.00  0.00    +0.090 S 
BRANCH  16  19
ATOM     19  C   LIG    1       -1.286   5.365   4.151  0.00  0.00    -0.010 A 
ATOM     20  C   LIG    1       -2.075   4.688   5.080  0.00  0.00    +0.080 A 
ATOM     21  C   LIG    1       -2.549   5.351   6.193  0.00  0.00    +0.050 A 
ATOM     22  C   LIG    1       -2.251   6.689   6.383  0.00  0.00    -0.080 A 
ATOM     23  C   LIG    1       -1.472   7.368   5.462  0.00  0.00    +0.050 A 
ATOM     24 BR   LIG    1       -2.909   7.594   7.908  0.00  0.00    -0.050 Br
ATOM     25  C   LIG    1       -0.989   6.713   4.348  0.00  0.00    +0.030 A 
ENDBRANCH  16  19
ENDBRANCH   3  14
BRANCH   3  26
ATOM     26  C   LIG    1       -0.184   1.125  -0.085  0.00  0.00    +0.330 C 
BRANCH  26  27
ATOM     27  C   LIG    1       -1.151   1.292  -1.258  0.00  0.00    +0.130 C 
ATOM     28  C   LIG    1       -0.444   0.921  -2.576  0.00  0.00    +0.020 C 
ATOM     29  C   LIG    1       -1.305  -0.226  -3.159  0.00  0.00    +0.000 C 
ATOM     30  C   LIG    1       -2.657  -0.019  -2.431  0.00  0.00    +0.200 C 
ATOM     31  O   LIG    1       -2.265   0.397  -1.105  0.00  0.00    -0.360 OA
ENDBRANCH  26  27
ENDBRANCH   3  26
TORSDOF 5
