REMARK  Name = ZINCpe00000VVH5w.0
REMARK                            x       y       z     vdW  Elec       q    Type
REMARK                         _______ _______ _______ _____ _____    ______ ____
ROOT
ATOM      1  C   LIG    1        2.209   1.129  -2.672  0.00  0.00    +0.190 C 
ENDROOT
BRANCH   1   7
ATOM      2  C   LIG    1        4.083   2.083  -1.473  0.00  0.00    +0.130 C 
ATOM      3  C   LIG    1        5.582   2.378  -1.558  0.00  0.00    +0.030 C 
ATOM      4  C   LIG    1        5.835   3.396  -2.674  0.00  0.00    +0.000 C 
ATOM      5  C   LIG    1        5.292   2.840  -3.994  0.00  0.00    +0.030 C 
ATOM      6  C   LIG    1        3.801   2.532  -3.837  0.00  0.00    +0.180 C 
ATOM      7  N   LIG    1        3.613   1.553  -2.759  0.00  0.00    -0.490 NA
BRANCH   2   8
ATOM      8  C   LIG    1        3.829   1.051  -0.372  0.00  0.00    +0.310 C 
BRANCH   8  12
ATOM      9  C   LIG    1        6.760  -3.007  -0.142  0.00  0.00    +0.110 C 
ATOM     10  C   LIG    1        5.774  -1.975  -0.623  0.00  0.00    -0.240 A 
ATOM     11  C   LIG    1        5.392  -0.864   0.050  0.00  0.00    +0.200 A 
ATOM     12  N   LIG    1        4.499  -0.205  -0.717  0.00  0.00    -0.370 N 
ATOM     13  N   LIG    1        4.326  -0.934  -1.900  0.00  0.00    -0.230 NA
ATOM     14  C   LIG    1        5.090  -1.994  -1.843  0.00  0.00    +0.200 A 
ENDBRANCH   8  12
ENDBRANCH   2   8
ENDBRANCH   1   7
BRANCH   1  15
ATOM     15  C   LIG    1        1.875   0.255  -3.853  0.00  0.00    +0.520 C 
ATOM     16  N   LIG    1        0.634  -0.255  -3.984  0.00  0.00    -0.730 N 
ATOM     17  H   LIG    1       -0.044  -0.058  -3.319  0.00  0.00    +0.400 HD
ATOM     18  O   LIG    1        2.722   0.008  -4.685  0.00  0.00    -0.490 OA
BRANCH  16  19
ATOM     19  C   LIG    1        0.308  -1.105  -5.132  0.00  0.00    +0.260 C 
ATOM     20  C   LIG    1       -0.976  -1.887  -4.845  0.00  0.00    +0.050 C 
ATOM     21  C   LIG    1       -1.938  -1.055  -4.018  0.00  0.00    +0.010 C 
ATOM     22  C   LIG    1       -2.488   0.155  -4.751  0.00  0.00    +0.000 C 
ATOM     23  C   LIG    1       -1.382   1.176  -5.024  0.00  0.00    +0.260 C 
ATOM     24  N   LIG    1       -0.717   0.823  -6.288  0.00  0.00    -0.720 N 
ATOM     25  H   LIG    1       -0.860   1.368  -7.078  0.00  0.00    +0.400 HD
ATOM     26  C   LIG    1        0.083  -0.243  -6.356  0.00  0.00    +0.510 C 
ATOM     27  O   LIG    1        0.630  -0.522  -7.402  0.00  0.00    -0.540 OA
ENDBRANCH  16  19
ENDBRANCH   1  15
TORSDOF 5
