REMARK  Name = ZINCfA000000DYbj.0
REMARK                            x       y       z     vdW  Elec       q    Type
REMARK                         _______ _______ _______ _____ _____    ______ ____
ROOT
ATOM      1  N   LIG    1       -2.776   0.383  -2.542  0.00  0.00    -0.510 N 
ATOM      2  H   LIG    1       -2.611  -0.301  -3.266  0.00  0.00    +0.430 HD
ATOM      3  H   LIG    1       -2.869   1.297  -2.958  0.00  0.00    +0.420 HD
ENDROOT
BRANCH   1   4
ATOM      4  C   LIG    1       -4.010   0.046  -1.821  0.00  0.00    +0.310 C 
BRANCH   4   5
ATOM      5  C   LIG    1       -5.200   0.129  -2.780  0.00  0.00    -0.180 C 
ATOM      6  C   LIG    1       -6.208  -1.022  -2.756  0.00  0.00    +0.090 C 
ATOM      7  C   LIG    1       -5.246  -0.872  -3.937  0.00  0.00    +0.040 C 
BRANCH   5   9
ATOM      8  C   LIG    1       -6.314   2.111  -1.744  0.00  0.00    +0.030 C 
ATOM      9  C   LIG    1       -5.740   1.536  -3.041  0.00  0.00    +0.060 C 
ENDBRANCH   5   9
ENDBRANCH   4   5
ENDBRANCH   1   4
BRANCH   1  10
ATOM     10  C   LIG    1       -1.645   0.384  -1.604  0.00  0.00    +0.340 C 
BRANCH  10  11
ATOM     11  C   LIG    1       -0.379   0.730  -2.344  0.00  0.00    -0.220 A 
ATOM     12  C   LIG    1        0.499  -0.264  -2.730  0.00  0.00    +0.330 A 
ATOM     13  N   LIG    1        1.607   0.031  -3.383  0.00  0.00    -0.470 NA
ATOM     14  C   LIG    1        1.923   1.274  -3.688  0.00  0.00    +0.340 A 
ATOM     15  C   LIG    1        1.097   2.322  -3.329  0.00  0.00    +0.000 A 
ATOM     16  C   LIG    1       -0.077   2.052  -2.641  0.00  0.00    +0.020 A 
ATOM     17 CL   LIG    1       -1.147   3.336  -2.170  0.00  0.00    -0.030 Cl
ENDBRANCH  10  11
ENDBRANCH   1  10
TORSDOF 5
