REMARK  Name = ZINCrg00000SjSxH.0
REMARK                            x       y       z     vdW  Elec       q    Type
REMARK                         _______ _______ _______ _____ _____    ______ ____
ROOT
ATOM      1  C   LIG    1       -2.086   9.945   0.072  0.00  0.00    +0.280 C 
ENDROOT
BRANCH   1   3
ATOM      2  C   LIG    1       -3.318  12.154   0.220  0.00  0.00    +0.330 C 
ATOM      3  C   LIG    1       -3.458  10.621   0.088  0.00  0.00    +0.000 C 
ATOM      4  C   LIG    1       -4.158  10.485  -1.284  0.00  0.00    +0.070 C 
ATOM      5  C   LIG    1       -4.877  11.804  -1.466  0.00  0.00    +0.520 C 
ATOM      6  O   LIG    1       -5.762  12.008  -2.269  0.00  0.00    -0.520 OA
ATOM      7  N   LIG    1       -4.390  12.718  -0.608  0.00  0.00    -0.600 N 
ATOM      8  C   LIG    1       -4.869  14.099  -0.512  0.00  0.00    +0.310 C 
BRANCH   2  14
ATOM      9  C   LIG    1       -1.073  13.021   2.172  0.00  0.00    +0.320 C 
ATOM     10  N   LIG    1       -2.501  12.947   2.494  0.00  0.00    -0.450 N 
ATOM     11  C   LIG    1       -3.079  13.248   3.698  0.00  0.00    +0.140 A 
ATOM     12  C   LIG    1       -4.402  13.037   3.558  0.00  0.00    +0.140 A 
ATOM     13  N   LIG    1       -4.626  12.625   2.302  0.00  0.00    -0.470 NA
ATOM     14  C   LIG    1       -3.492  12.571   1.658  0.00  0.00    +0.180 A 
ENDBRANCH   2  14
ENDBRANCH   1   3
BRANCH   1  15
ATOM     15  N   LIG    1       -2.258   8.490   0.066  0.00  0.00    -0.730 N 
ATOM     16  H   LIG    1       -3.149   8.107   0.073  0.00  0.00    +0.410 HD
ATOM     17  C   LIG    1       -1.178   7.684   0.052  0.00  0.00    +0.520 C 
ATOM     18  O   LIG    1       -0.064   8.162   0.044  0.00  0.00    -0.510 OA
BRANCH  17  19
ATOM     19  C   LIG    1       -1.355   6.187   0.046  0.00  0.00    +0.240 C 
BRANCH  19  20
ATOM     20  O   LIG    1       -0.073   5.556   0.031  0.00  0.00    -0.280 OA
BRANCH  20  21
ATOM     21  C   LIG    1       -0.055   4.198   0.024  0.00  0.00    +0.160 A 
ATOM     22  C   LIG    1        1.159   3.522   0.009  0.00  0.00    +0.000 A 
ATOM     23  C   LIG    1        1.182   2.145   0.002  0.00  0.00    +0.110 A 
ATOM     24  C   LIG    1       -0.017   1.428   0.010  0.00  0.00    -0.070 A 
ATOM     25  C   LIG    1       -1.236   2.112   0.019  0.00  0.00    +0.110 A 
ATOM     26  C   LIG    1       -1.250   3.489   0.031  0.00  0.00    -0.070 A 
BRANCH  24  27
ATOM     27  C   LIG    1        0.002  -0.004   0.002  0.00  0.00    +0.250 C 
ATOM     28  N   LIG    1        0.018  -1.140  -0.004  0.00  0.00    -0.420 NA
ENDBRANCH  24  27
ENDBRANCH  20  21
ENDBRANCH  19  20
ENDBRANCH  17  19
ENDBRANCH   1  15
TORSDOF 7
