REMARK  Name = ZINCpk000005V3TN.0
REMARK                            x       y       z     vdW  Elec       q    Type
REMARK                         _______ _______ _______ _____ _____    ______ ____
ROOT
ATOM      1  N   LIG    1       -0.721   1.571  -1.179  0.00  0.00    -0.740 N 
ATOM      2  H   LIG    1       -1.516   2.118  -1.079  0.00  0.00    +0.400 HD
ATOM      3  C   LIG    1       -0.268   1.258  -2.409  0.00  0.00    +0.730 C 
ATOM      4  N   LIG    1       -0.920   1.705  -3.501  0.00  0.00    -0.630 N 
ATOM      5  C   LIG    1       -2.131   2.538  -3.495  0.00  0.00    +0.240 C 
ATOM      6  C   LIG    1       -2.530   2.778  -4.966  0.00  0.00    +0.090 C 
ATOM      7  C   LIG    1       -1.847   1.598  -5.708  0.00  0.00    +0.070 C 
ATOM      8  C   LIG    1       -0.533   1.444  -4.899  0.00  0.00    +0.280 C 
ATOM      9  O   LIG    1        0.729   0.574  -2.534  0.00  0.00    -0.580 OA
ENDROOT
BRANCH   7  10
ATOM     10  C   LIG    1       -1.553   1.963  -7.164  0.00  0.00    +0.370 C 
ATOM     11  F   LIG    1       -2.751   2.271  -7.819  0.00  0.00    -0.190 F 
ATOM     12  F   LIG    1       -0.940   0.879  -7.802  0.00  0.00    -0.200 F 
ENDBRANCH   7  10
BRANCH   7  13
ATOM     13  O   LIG    1       -2.644   0.414  -5.630  0.00  0.00    -0.530 OA
ATOM     14  H   LIG    1       -2.258  -0.350  -6.079  0.00  0.00    +0.390 HD
ENDBRANCH   7  13
BRANCH   1  15
ATOM     15  C   LIG    1       -0.013   1.086   0.008  0.00  0.00    +0.310 C 
BRANCH  15  16
ATOM     16  C   LIG    1       -0.729   1.579   1.267  0.00  0.00    +0.050 C 
BRANCH  16  18
ATOM     17  O   LIG    1        0.994   0.397   2.363  0.00  0.00    -0.530 OA
ATOM     18  C   LIG    1        0.000   1.080   2.488  0.00  0.00    +0.530 C 
ATOM     19  N   LIG    1       -0.453   1.393   3.718  0.00  0.00    -0.610 N 
ATOM     20  C   LIG    1        0.240   0.911   4.922  0.00  0.00    +0.300 C 
ATOM     21  C   LIG    1        0.803   2.127   5.674  0.00  0.00    +0.110 C 
ATOM     22  C   LIG    1       -0.262   3.200   5.747  0.00  0.00    -0.170 A 
ATOM     23  C   LIG    1       -1.355   3.261   4.963  0.00  0.00    -0.130 A 
ATOM     24  C   LIG    1       -2.174   4.354   5.224  0.00  0.00    +0.020 A 
ATOM     25  C   LIG    1       -1.763   5.161   6.198  0.00  0.00    -0.040 A 
ATOM     26  S   LIG    1       -0.254   4.558   6.865  0.00  0.00    +0.110 S 
ATOM     27  C   LIG    1       -1.656   2.219   3.891  0.00  0.00    +0.360 C 
ENDBRANCH  16  18
ENDBRANCH  15  16
ENDBRANCH   1  15
TORSDOF 5
