REMARK  Name = ZINCrD0000071FIF.0
REMARK                            x       y       z     vdW  Elec       q    Type
REMARK                         _______ _______ _______ _____ _____    ______ ____
ROOT
ATOM      1  C   LIG    1       -6.175  -6.534   2.852  0.00  0.00    +0.250 C 
ATOM      2  C   LIG    1       -6.143  -6.034   1.406  0.00  0.00    +0.030 C 
ATOM      3  C   LIG    1       -4.766  -5.430   1.109  0.00  0.00    +0.280 C 
ATOM      4  N   LIG    1       -4.478  -4.396   2.112  0.00  0.00    -0.610 N 
ATOM      5  C   LIG    1       -4.564  -4.748   3.536  0.00  0.00    +0.280 C 
ATOM      6  C   LIG    1       -4.136  -3.148   1.733  0.00  0.00    +0.530 C 
ATOM      7  O   LIG    1       -4.148  -2.846   0.559  0.00  0.00    -0.530 OA
ATOM      8  C   LIG    1       -5.948  -5.359   3.805  0.00  0.00    +0.000 C 
ENDROOT
BRANCH   1   9
ATOM      9  N   LIG    1       -7.479  -7.143   3.129  0.00  0.00    -1.120 NA
ATOM     10  H   LIG    1       -8.280  -6.779   2.721  0.00  0.00    +0.420 HD
BRANCH   9  11
ATOM     11  S   LIG    1       -7.584  -8.451   4.138  0.00  0.00    +2.610 S 
ATOM     12  O   LIG    1       -6.621  -9.364   3.630  0.00  0.00    -0.950 OA
ATOM     13  O   LIG    1       -8.967  -8.776   4.147  0.00  0.00    -0.950 OA
BRANCH  11  14
ATOM     14  C   LIG    1       -7.068  -7.817   5.757  0.00  0.00    -0.360 C 
BRANCH  14  16
ATOM     15  C   LIG    1       -6.688  -8.411   8.154  0.00  0.00    +0.030 C 
ATOM     16  C   LIG    1       -7.124  -8.946   6.788  0.00  0.00    +0.040 C 
ENDBRANCH  14  16
ENDBRANCH  11  14
ENDBRANCH   9  11
ENDBRANCH   1   9
BRANCH   6  17
ATOM     17  C   LIG    1       -3.737  -2.129   2.769  0.00  0.00    +0.030 C 
ATOM     18  C   LIG    1       -3.928  -0.722   2.200  0.00  0.00    +0.070 C 
BRANCH  17  19
ATOM     19  C   LIG    1       -2.290  -2.329   3.140  0.00  0.00    -0.080 A 
ATOM     20  C   LIG    1       -1.308  -2.224   2.173  0.00  0.00    +0.010 A 
ATOM     21  C   LIG    1        0.020  -2.406   2.513  0.00  0.00    +0.010 A 
ATOM     22  C   LIG    1        0.365  -2.690   3.821  0.00  0.00    +0.010 A 
ATOM     23  C   LIG    1       -0.618  -2.800   4.787  0.00  0.00    -0.070 A 
ATOM     24  C   LIG    1       -1.945  -2.617   4.447  0.00  0.00    +0.010 A 
BRANCH  23  25
ATOM     25  C   LIG    1       -0.241  -3.114   6.212  0.00  0.00    +0.060 C 
BRANCH  25  26
ATOM     26  C   LIG    1       -0.237  -4.630   6.416  0.00  0.00    -0.020 C 
ATOM     27  C   LIG    1        0.865  -5.257   5.559  0.00  0.00    +0.010 C 
ATOM     28  C   LIG    1        0.023  -4.946   7.891  0.00  0.00    +0.020 C 
ENDBRANCH  25  26
ENDBRANCH  23  25
ENDBRANCH  17  19
ENDBRANCH   6  17
TORSDOF 8
