REMARK  Name = ZINCvU0000000H5U.0
REMARK                            x       y       z     vdW  Elec       q    Type
REMARK                         _______ _______ _______ _____ _____    ______ ____
ROOT
ATOM      1  C   LIG    1        0.824   7.352   0.575  0.00  0.00    +0.110 A 
ATOM      2  C   LIG    1       -0.461   7.728   0.740  0.00  0.00    -0.060 A 
ATOM      3  S   LIG    1       -1.472   6.289   0.640  0.00  0.00    +0.100 S 
ATOM      4  C   LIG    1       -0.039   5.299   0.381  0.00  0.00    +0.120 A 
ATOM      5  N   LIG    1        1.016   6.058   0.393  0.00  0.00    -0.450 NA
ENDROOT
BRANCH   1   9
ATOM      6  C   LIG    1        4.036  10.137   0.657  0.00  0.00    -0.070 A 
ATOM      7  C   LIG    1        4.294   8.793   0.456  0.00  0.00    +0.010 A 
ATOM      8  C   LIG    1        3.256   7.885   0.429  0.00  0.00    +0.050 A 
ATOM      9  C   LIG    1        1.945   8.323   0.604  0.00  0.00    -0.030 A 
ATOM     10  C   LIG    1        1.690   9.679   0.800  0.00  0.00    +0.020 A 
ATOM     11  C   LIG    1        2.737  10.578   0.831  0.00  0.00    +0.010 A 
BRANCH   6  12
ATOM     12  C   LIG    1        5.174  11.124   0.686  0.00  0.00    +0.070 C 
BRANCH  12  13
ATOM     13  C   LIG    1        5.433  11.647  -0.728  0.00  0.00    +0.030 C 
BRANCH  13  14
ATOM     14  C   LIG    1        6.588  12.649  -0.699  0.00  0.00    +0.230 C 
ATOM     15  C   LIG    1        6.929  13.078  -2.127  0.00  0.00    +0.030 C 
BRANCH  14  18
ATOM     16  C   LIG    1        6.734  15.795   1.478  0.00  0.00    +0.090 C 
ATOM     17  C   LIG    1        7.138  14.586   0.674  0.00  0.00    +0.510 C 
ATOM     18  N   LIG    1        6.196  13.824   0.083  0.00  0.00    -0.730 N 
ATOM     19  H   LIG    1        5.258  14.054   0.176  0.00  0.00    +0.400 HD
ATOM     20  O   LIG    1        8.310  14.299   0.559  0.00  0.00    -0.550 OA
ENDBRANCH  14  18
ENDBRANCH  13  14
ENDBRANCH  12  13
ENDBRANCH   6  12
ENDBRANCH   1   9
BRANCH   4  21
ATOM     21  C   LIG    1       -0.036   3.833   0.186  0.00  0.00    -0.010 A 
ATOM     22  C   LIG    1        1.168   3.156  -0.011  0.00  0.00    +0.060 A 
ATOM     23  C   LIG    1        1.169   1.787  -0.192  0.00  0.00    +0.040 A 
ATOM     24  C   LIG    1       -0.021   1.084  -0.178  0.00  0.00    +0.040 A 
ATOM     25  C   LIG    1       -1.226   1.750   0.012  0.00  0.00    +0.150 A 
ATOM     26  C   LIG    1       -1.236   3.123   0.199  0.00  0.00    +0.010 A 
BRANCH  25  27
ATOM     27  N   LIG    1       -2.428   1.034   0.019  0.00  0.00    -0.670 N 
ATOM     28  H   LIG    1       -3.237   1.441  -0.326  0.00  0.00    +0.410 HD
ATOM     29  C   LIG    1       -2.461  -0.223   0.506  0.00  0.00    +0.540 C 
ATOM     30  O   LIG    1       -1.473  -0.698   1.025  0.00  0.00    -0.520 OA
BRANCH  29  31
ATOM     31  C   LIG    1       -3.725  -1.037   0.405  0.00  0.00    -0.070 C 
ATOM     32  C   LIG    1       -4.467  -1.352   1.706  0.00  0.00    +0.060 C 
ATOM     33  C   LIG    1       -3.699  -2.456   0.976  0.00  0.00    +0.080 C 
ENDBRANCH  29  31
ENDBRANCH  25  27
ENDBRANCH   4  21
TORSDOF 8
