REMARK  Name = ZINCpe00000VVGcP.0
REMARK                            x       y       z     vdW  Elec       q    Type
REMARK                         _______ _______ _______ _____ _____    ______ ____
ROOT
ATOM      1  S   LIG    1        1.495  -1.039  -0.673  0.00  0.00    +0.140 S 
ENDROOT
BRANCH   1   2
ATOM      2  C   LIG    1        1.428  -2.792  -0.507  0.00  0.00    +0.200 A 
ATOM      3  N   LIG    1        0.348  -3.542  -0.557  0.00  0.00    -0.330 NA
ATOM      4  N   LIG    1        0.652  -4.780  -0.400  0.00  0.00    -0.030 NA
ATOM      5  N   LIG    1        1.924  -4.914  -0.240  0.00  0.00    -0.060 NA
ATOM      6  N   LIG    1        2.481  -3.625  -0.309  0.00  0.00    -0.310 N 
BRANCH   6   7
ATOM      7  C   LIG    1        3.834  -3.274  -0.195  0.00  0.00    +0.100 A 
ATOM      8  C   LIG    1        4.409  -2.412  -1.118  0.00  0.00    +0.050 A 
ATOM      9  C   LIG    1        5.742  -2.069  -1.003  0.00  0.00    +0.030 A 
ATOM     10  C   LIG    1        6.503  -2.583   0.030  0.00  0.00    -0.060 A 
ATOM     11  C   LIG    1        5.933  -3.442   0.952  0.00  0.00    +0.030 A 
ATOM     12  C   LIG    1        7.958  -2.207   0.152  0.00  0.00    +0.100 C 
ATOM     13  C   LIG    1        4.599  -3.784   0.845  0.00  0.00    -0.050 A 
ATOM     14  C   LIG    1        3.977  -4.715   1.854  0.00  0.00    +0.110 C 
ENDBRANCH   6   7
ENDBRANCH   1   2
BRANCH   1  15
ATOM     15  C   LIG    1       -0.263  -0.679  -0.911  0.00  0.00    +0.120 C 
BRANCH  15  21
ATOM     16  N   LIG    1       -3.091   3.142  -1.626  0.00  0.00    -0.730 N 
ATOM     17  H   LIG    1       -3.858   2.548  -1.659  0.00  0.00    +0.400 HD
ATOM     18  C   LIG    1       -1.857   2.639  -1.428  0.00  0.00    +0.700 C 
ATOM     19  N   LIG    1       -1.687   1.310  -1.277  0.00  0.00    -0.680 N 
ATOM     20  H   LIG    1       -2.454   0.716  -1.310  0.00  0.00    +0.410 HD
ATOM     21  C   LIG    1       -0.453   0.807  -1.080  0.00  0.00    +0.540 C 
ATOM     22  O   LIG    1        0.506   1.548  -1.043  0.00  0.00    -0.450 OA
ATOM     23  O   LIG    1       -0.897   3.382  -1.387  0.00  0.00    -0.530 OA
BRANCH  16  24
ATOM     24  C   LIG    1       -3.276   4.586  -1.790  0.00  0.00    +0.310 C 
BRANCH  24  25
ATOM     25  C   LIG    1       -4.761   4.890  -1.998  0.00  0.00    +0.180 C 
BRANCH  25  27
ATOM     26  C   LIG    1       -6.892   4.795  -0.905  0.00  0.00    +0.200 C 
ATOM     27  O   LIG    1       -5.487   4.548  -0.816  0.00  0.00    -0.390 OA
ENDBRANCH  25  27
ENDBRANCH  24  25
ENDBRANCH  16  24
ENDBRANCH  15  21
ENDBRANCH   1  15
TORSDOF 7
