REMARK  Name = ZINCrg000000soIE.0
REMARK                            x       y       z     vdW  Elec       q    Type
REMARK                         _______ _______ _______ _____ _____    ______ ____
ROOT
ATOM      1  C   LIG    1        5.742   8.180   4.430  0.00  0.00    +0.600 C 
ATOM      2  N   LIG    1        5.643   7.512   3.264  0.00  0.00    -0.610 N 
ATOM      3  C   LIG    1        6.473   7.885   2.108  0.00  0.00    +0.280 C 
ATOM      4  C   LIG    1        5.559   8.065   0.891  0.00  0.00    +0.200 C 
ATOM      5  N   LIG    1        4.748   6.854   0.708  0.00  0.00    -0.540 NA
ATOM      6  C   LIG    1        3.859   6.630   1.856  0.00  0.00    +0.180 C 
ATOM      7  C   LIG    1        4.703   6.392   3.113  0.00  0.00    +0.300 C 
ATOM      8  O   LIG    1        4.973   7.932   5.340  0.00  0.00    -0.520 OA
ENDROOT
BRANCH   1  11
ATOM      9  C   LIG    1        5.569  10.626   6.341  0.00  0.00    +0.180 C 
ATOM     10  C   LIG    1        6.715  10.274   5.429  0.00  0.00    +0.130 A 
ATOM     11  C   LIG    1        6.776   9.206   4.603  0.00  0.00    -0.060 A 
ATOM     12  N   LIG    1        8.010   9.258   3.947  0.00  0.00    -0.630 N 
ATOM     13  H   LIG    1        8.339   8.621   3.294  0.00  0.00    +0.440 HD
ATOM     14  C   LIG    1        8.659  10.355   4.385  0.00  0.00    +0.660 A 
ATOM     15  O   LIG    1        9.764  10.718   4.026  0.00  0.00    -0.560 OA
ATOM     16  N   LIG    1        7.881  10.980   5.290  0.00  0.00    -0.620 N 
ATOM     17  H   LIG    1        8.110  11.794   5.765  0.00  0.00    +0.440 HD
ENDBRANCH   1  11
BRANCH   5  18
ATOM     18  C   LIG    1        3.984   6.916  -0.545  0.00  0.00    +0.360 C 
BRANCH  18  19
ATOM     19  C   LIG    1        3.361   5.572  -0.821  0.00  0.00    +0.190 A 
ATOM     20  N   LIG    1        2.181   5.165  -0.426  0.00  0.00    -0.470 NA
ATOM     21  C   LIG    1        2.051   3.907  -0.903  0.00  0.00    +0.210 A 
ATOM     22  N   LIG    1        3.152   3.624  -1.549  0.00  0.00    -0.370 NA
ATOM     23  O   LIG    1        3.910   4.570  -1.516  0.00  0.00    +0.090 OA
BRANCH  21  24
ATOM     24  C   LIG    1        0.881   3.012  -0.722  0.00  0.00    -0.030 A 
ATOM     25  C   LIG    1       -0.227   3.447   0.001  0.00  0.00    +0.060 A 
ATOM     26  C   LIG    1       -1.312   2.611   0.166  0.00  0.00    +0.010 A 
ATOM     27  C   LIG    1       -1.301   1.342  -0.384  0.00  0.00    +0.030 A 
ATOM     28  C   LIG    1       -0.203   0.904  -1.103  0.00  0.00    +0.010 A 
ATOM     29  C   LIG    1        0.888   1.732  -1.274  0.00  0.00    +0.050 A 
ENDBRANCH  21  24
ENDBRANCH  18  19
ENDBRANCH   5  18
TORSDOF 4
