REMARK  Name = ZINCrD00000F5LzM.0
REMARK                            x       y       z     vdW  Elec       q    Type
REMARK                         _______ _______ _______ _____ _____    ______ ____
ROOT
ATOM      1  C   LIG    1       -1.342   2.131   0.539  0.00  0.00    +0.350 C 
ATOM      2  N   LIG    1       -1.439   3.402   0.261  0.00  0.00    -0.460 NA
ATOM      3  C   LIG    1       -2.755   3.765   0.287  0.00  0.00    -0.090 C 
ATOM      4  C   LIG    1       -3.494   2.536   0.634  0.00  0.00    +0.480 C 
ATOM      5  O   LIG    1       -4.697   2.411   0.768  0.00  0.00    -0.410 OA
ATOM      6  C   LIG    1       -3.280   5.016   0.046  0.00  0.00    +0.250 C 
ATOM      7  O   LIG    1       -2.550   1.581   0.771  0.00  0.00    -0.290 OA
ENDROOT
BRANCH   6   8
ATOM      8  C   LIG    1       -4.732   5.193  -0.056  0.00  0.00    -0.090 A 
ATOM      9  C   LIG    1       -5.338   6.347   0.459  0.00  0.00    +0.090 A 
ATOM     10  C   LIG    1       -6.702   6.508   0.359  0.00  0.00    +0.020 A 
ATOM     11  C   LIG    1       -7.477   5.532  -0.248  0.00  0.00    +0.100 A 
ATOM     12  C   LIG    1       -6.885   4.385  -0.761  0.00  0.00    +0.070 A 
ATOM     13  F   LIG    1       -7.647   3.439  -1.352  0.00  0.00    -0.120 F 
ATOM     14  F   LIG    1       -8.815   5.698  -0.342  0.00  0.00    -0.120 F 
ATOM     15  C   LIG    1       -5.520   4.212  -0.674  0.00  0.00    +0.090 A 
ENDBRANCH   6   8
BRANCH   1  18
ATOM     16  C   LIG    1        1.132  -0.665   0.960  0.00  0.00    +0.150 A 
ATOM     17  C   LIG    1       -0.064   0.028   0.911  0.00  0.00    -0.040 A 
ATOM     18  C   LIG    1       -0.068   1.390   0.598  0.00  0.00    +0.030 A 
ATOM     19  C   LIG    1        1.137   2.047   0.336  0.00  0.00    -0.010 A 
ATOM     20  C   LIG    1        2.329   1.349   0.386  0.00  0.00    +0.150 A 
ATOM     21  C   LIG    1        2.330  -0.008   0.698  0.00  0.00    +0.060 A 
BRANCH  16  23
ATOM     22  C   LIG    1       -0.130  -2.602   1.521  0.00  0.00    +0.250 C 
ATOM     23  O   LIG    1        1.136  -1.991   1.264  0.00  0.00    -0.300 OA
ENDBRANCH  16  23
BRANCH  20  24
ATOM     24  O   LIG    1        3.502   1.988   0.131  0.00  0.00    -0.300 OA
ATOM     25  C   LIG    1        3.428   3.380  -0.182  0.00  0.00    +0.250 C 
ENDBRANCH  20  24
BRANCH  21  26
ATOM     26  O   LIG    1        3.504  -0.692   0.747  0.00  0.00    -0.310 OA
ATOM     27  C   LIG    1        3.950  -1.303  -0.465  0.00  0.00    +0.240 C 
ENDBRANCH  21  26
ENDBRANCH   1  18
TORSDOF 5
