REMARK  Name = ZINCrH000004vDTK.0
REMARK                            x       y       z     vdW  Elec       q    Type
REMARK                         _______ _______ _______ _____ _____    ______ ____
ROOT
ATOM      1  O   LIG    1       -0.422   4.334   0.409  0.00  0.00    -0.450 OA
ATOM      2  C   LIG    1       -0.216   5.394  -0.149  0.00  0.00    +0.580 C 
ATOM      3  N   LIG    1        1.027   5.913  -0.172  0.00  0.00    -0.570 N 
ATOM      4  C   LIG    1        2.205   5.168  -0.269  0.00  0.00    +0.160 A 
ATOM      5  C   LIG    1        2.371   3.785  -0.372  0.00  0.00    -0.010 A 
ATOM      6  C   LIG    1        3.635   3.242  -0.465  0.00  0.00    +0.040 A 
ATOM      7  C   LIG    1        4.747   4.063  -0.461  0.00  0.00    -0.010 A 
ATOM      8  C   LIG    1        4.591   5.433  -0.364  0.00  0.00    +0.060 A 
ATOM      9  C   LIG    1        3.326   5.982  -0.271  0.00  0.00    -0.140 A 
ATOM     10  C   LIG    1        2.876   7.421  -0.156  0.00  0.00    +0.110 C 
ATOM     11  C   LIG    1        1.342   7.342  -0.092  0.00  0.00    +0.230 C 
ENDROOT
BRANCH   2  12
ATOM     12  C   LIG    1       -1.333   6.116  -0.805  0.00  0.00    +0.030 A 
ATOM     13  C   LIG    1       -2.667   5.765  -0.543  0.00  0.00    +0.060 A 
ATOM     14  N   LIG    1       -3.266   4.847   0.230  0.00  0.00    -0.500 NA
ATOM     15  C   LIG    1       -4.569   4.971   0.084  0.00  0.00    +0.440 A 
ATOM     16  N   LIG    1       -4.848   5.949  -0.768  0.00  0.00    -0.560 NA
ATOM     17  C   LIG    1       -3.708   6.487  -1.189  0.00  0.00    +0.240 A 
ATOM     18  N   LIG    1       -3.394   7.492  -2.054  0.00  0.00    -0.470 N 
ATOM     19  H   LIG    1       -4.105   7.981  -2.496  0.00  0.00    +0.430 HD
ATOM     20  C   LIG    1       -2.116   7.819  -2.297  0.00  0.00    +0.330 A 
ATOM     21  C   LIG    1       -1.081   7.162  -1.700  0.00  0.00    -0.020 A 
ENDBRANCH   2  12
BRANCH  11  22
ATOM     22  C   LIG    1        0.835   7.924   1.229  0.00  0.00    +0.080 C 
BRANCH  22  23
ATOM     23  C   LIG    1       -0.623   7.585   1.401  0.00  0.00    -0.100 A 
ATOM     24  C   LIG    1       -1.593   8.488   1.006  0.00  0.00    -0.010 A 
ATOM     25  C   LIG    1       -2.931   8.175   1.159  0.00  0.00    -0.010 A 
ATOM     26  C   LIG    1       -3.299   6.964   1.716  0.00  0.00    +0.010 A 
ATOM     27  C   LIG    1       -2.328   6.064   2.115  0.00  0.00    +0.080 A 
ATOM     28  C   LIG    1       -0.991   6.375   1.958  0.00  0.00    -0.010 A 
ENDBRANCH  22  23
ENDBRANCH  11  22
TORSDOF 3
