REMARK  Name = ZINCqH00000088KH.0
REMARK                            x       y       z     vdW  Elec       q    Type
REMARK                         _______ _______ _______ _____ _____    ______ ____
ROOT
ATOM      1  C   LIG    1        2.635  -1.062   8.003  0.00  0.00    +0.270 C 
ENDROOT
BRANCH   1   2
ATOM      2  N   LIG    1        2.304  -0.335   6.775  0.00  0.00    -0.720 N 
ATOM      3  H   LIG    1        2.990   0.169   6.310  0.00  0.00    +0.400 HD
ATOM      4  C   LIG    1        1.047  -0.366   6.291  0.00  0.00    +0.600 C 
ATOM      5  O   LIG    1        0.186  -0.999   6.875  0.00  0.00    -0.530 OA
BRANCH   4   6
ATOM      6  C   LIG    1        0.715   0.362   5.062  0.00  0.00    -0.310 A 
ATOM      7  C   LIG    1        1.572   1.103   4.315  0.00  0.00    +0.280 A 
ATOM      8  N   LIG    1        1.027   1.649   3.257  0.00  0.00    -0.480 NA
ATOM      9  C   LIG    1       -0.233   1.433   3.059  0.00  0.00    +0.060 A 
ATOM     10  S   LIG    1       -0.867   0.431   4.290  0.00  0.00    +0.240 S 
BRANCH   9  11
ATOM     11  C   LIG    1       -1.028   1.982   1.902  0.00  0.00    +0.010 C 
ATOM     12  C   LIG    1       -2.478   1.504   2.006  0.00  0.00    +0.040 C 
ATOM     13  C   LIG    1       -0.992   3.511   1.939  0.00  0.00    +0.060 C 
ATOM     14  C   LIG    1       -0.422   1.489   0.587  0.00  0.00    +0.060 C 
ENDBRANCH   9  11
ENDBRANCH   4   6
ENDBRANCH   1   2
BRANCH   1  15
ATOM     15  C   LIG    1        4.117  -0.863   8.330  0.00  0.00    +0.020 C 
BRANCH  15  16
ATOM     16  C   LIG    1        4.462  -1.623   9.612  0.00  0.00    +0.170 C 
BRANCH  16  20
ATOM     17  C   LIG    1        8.094  -1.883   9.850  0.00  0.00    +0.160 A 
ATOM     18  N   LIG    1        7.811  -0.862  10.625  0.00  0.00    -0.290 NA
ATOM     19  N   LIG    1        6.542  -0.657  10.631  0.00  0.00    -0.280 NA
ATOM     20  C   LIG    1        5.944  -1.528   9.868  0.00  0.00    +0.190 A 
ATOM     21  N   LIG    1        6.911  -2.344   9.347  0.00  0.00    -0.460 N 
BRANCH  17  23
ATOM     22  C   LIG    1       10.703  -1.424  10.533  0.00  0.00    +0.150 C 
ATOM     23  S   LIG    1        9.696  -2.541   9.526  0.00  0.00    -0.000 S 
ENDBRANCH  17  23
BRANCH  21  24
ATOM     24  C   LIG    1        6.717  -3.474   8.436  0.00  0.00    +0.310 C 
BRANCH  24  25
ATOM     25  C   LIG    1        6.374  -4.728   9.244  0.00  0.00    -0.030 C 
ATOM     26  C   LIG    1        7.574  -5.121  10.109  0.00  0.00    +0.020 C 
ATOM     27  C   LIG    1        6.036  -5.874   8.289  0.00  0.00    +0.040 C 
ENDBRANCH  24  25
ENDBRANCH  21  24
ENDBRANCH  16  20
ENDBRANCH  15  16
ENDBRANCH   1  15
TORSDOF 9
