REMARK  Name = ZINCnE000001GgD9.0
REMARK                            x       y       z     vdW  Elec       q    Type
REMARK                         _______ _______ _______ _____ _____    ______ ____
ROOT
ATOM      1  S   LIG    1       -0.024   1.806  -0.013  0.00  0.00    +0.060 S 
ENDROOT
BRANCH   1   6
ATOM      2  N   LIG    1        5.288   3.738  -0.096  0.00  0.00    -0.640 NA
ATOM      3  C   LIG    1        4.138   3.063  -0.079  0.00  0.00    +0.370 A 
ATOM      4  N   LIG    1        3.968   1.726  -0.078  0.00  0.00    -0.400 NA
ATOM      5  N   LIG    1        2.670   1.267  -0.052  0.00  0.00    -0.270 NA
ATOM      6  C   LIG    1        1.706   2.137  -0.041  0.00  0.00    -0.050 A 
ATOM      7  S   LIG    1        2.493   3.726  -0.051  0.00  0.00    -0.030 S 
BRANCH   2   8
ATOM      8  C   LIG    1        6.447   3.079  -0.116  0.00  0.00    +0.610 C 
ATOM      9  O   LIG    1        6.455   1.861  -0.118  0.00  0.00    -0.590 OA
BRANCH   8  10
ATOM     10  O   LIG    1        7.612   3.762  -0.133  0.00  0.00    -0.360 OA
BRANCH  10  12
ATOM     11  C   LIG    1       10.022   3.933  -0.171  0.00  0.00    +0.040 C 
ATOM     12  C   LIG    1        8.816   2.993  -0.154  0.00  0.00    +0.180 C 
ENDBRANCH  10  12
ENDBRANCH   8  10
ENDBRANCH   2   8
ENDBRANCH   1   6
BRANCH   1  13
ATOM     13  C   LIG    1        0.001  -0.003  -0.016  0.00  0.00    +0.110 C 
BRANCH  13  14
ATOM     14  C   LIG    1       -1.412  -0.526   0.006  0.00  0.00    +0.540 C 
ATOM     15  N   LIG    1       -1.640  -1.854   0.008  0.00  0.00    -0.670 N 
ATOM     16  H   LIG    1       -0.898  -2.473  -0.071  0.00  0.00    +0.420 HD
ATOM     17  O   LIG    1       -2.345   0.250   0.023  0.00  0.00    -0.500 OA
BRANCH  15  18
ATOM     18  C   LIG    1       -2.948  -2.340   0.123  0.00  0.00    +0.160 A 
ATOM     19  C   LIG    1       -4.002  -1.645  -0.454  0.00  0.00    +0.040 A 
ATOM     20  C   LIG    1       -5.291  -2.127  -0.339  0.00  0.00    +0.030 A 
ATOM     21  C   LIG    1       -5.533  -3.301   0.351  0.00  0.00    +0.000 A 
ATOM     22  C   LIG    1       -4.486  -3.996   0.927  0.00  0.00    +0.050 A 
ATOM     23  C   LIG    1       -3.193  -3.522   0.811  0.00  0.00    -0.070 A 
ATOM     24 CL   LIG    1       -1.878  -4.399   1.530  0.00  0.00    -0.060 Cl
ENDBRANCH  15  18
ENDBRANCH  13  14
ENDBRANCH   1  13
TORSDOF 7
